# total energy = -340896.03912570147 ev
CRYSTAL
PRIMVEC
9.02444579866565 0.00000000000000 0.00000000000000
0.00000000000000 9.02444579866565 0.00000000000000
0.00000000000000 0.00000000000000 13.20818863131427
PRIMCOORD
 96 1
Ni 6.347470269359932 2.077310096753821 11.477691708701254 0.1699280645841267 -0.4271078004980709 -0.47802747016607355
Ni 4.548681642176995 0.3700410813830612 6.0408439683506066 -0.7576889321223016 -0.6049116682858485 0.5105799501807979
Ni 2.5432512559222213 1.4786734870922646 4.746164491244378 1.030600734059522 0.4774394588730874 -0.10251708212932022
Ni 3.599318972398054 4.586873096644285 4.886158011025743 -0.32095594982964076 -1.1012649333443034 0.2487789134447587
Ni 4.8602957543593055 4.401556102909454 2.616753561769383 1.0790428887213093 1.2024409280646968 0.2160647110411892
Ni 6.956954262828124 5.9344755334806605 2.6824506244764783 1.2659026960637683 -0.06633266178896317 -1.2216303565089541
Ni 5.044412496807713 4.692639600981867 11.433748072504887 0.053121562415327866 -0.052454618255290304 -0.19692464777762858
Ni 5.728357192263053 7.916731143017097 12.271595665995475 -0.2025813318427737 -0.06998697071209882 -0.151747537020358
Ni 1.918804731379651 6.445150870294231 0.2976569043658851 0.6663985719467361 0.9228694547191139 0.42398930947374724
Ni 2.7062959175149754 1.5551917627132843 0.33486740157878164 1.301074873089527 -0.36900523992838385 0.4094517779792045
Ni 0.5397268326125069 9.068304568998444 4.502697578793707 0.33447403892073363 -0.8696329639924765 0.8522003703383259
Ni 8.459813264564136 2.304852472211822 1.4134475004539766 0.2588702362424896 0.07153220371203166 0.4461946419261928
Ni 6.844473570843175 0.6600633046337933 5.017328330185021 0.40473971721551594 -0.4556154210194605 -0.7185873381351495
Ni 0.8660219131614022 7.575489775396197 2.4744091738668623 0.1590031901415068 -0.5364743014490567 0.18590644229025402
Ni 7.590497428699388 3.7322310095895124 3.7463046327562752 0.24727276121287736 0.5792744273337185 0.5917226803994002
Ni 7.6194658995973095 3.6416887452534246 12.75601979253024 0.6125072212449193 0.663930827132534 -0.028734391820215026
Ni 7.679622855050749 8.692364207420376 7.402106708737817 0.044803015247303485 -0.04169069487056691 -1.1153707766180663
Ni 6.815712662197793 0.7977601029685782 0.3830615517293293 -0.30080904256812063 -0.6606729823168687 0.18079766030877895
Ni 1.9868039302007834 6.279732779465914 9.234993301790134 -1.3362007702583827 0.6551260843567104 -0.37555949610713385
Ni 0.037379254348657076 4.707448716478281 1.3664265282525658 -0.025000121588763396 0.5734416227020254 0.7400290529486933
Ni 6.36020376233095 1.920799133893184 6.959870061254017 -0.058284337563189945 0.7565406774504713 0.8587474274282242
Ni 3.310428414645951 4.4691401772255075 0.42825417121923876 0.7718626525195224 -0.5819838558450816 -0.10508587129776095
Ni 5.9250720609960394 5.833473936505728 4.777678758291926 -0.03259901698194386 -1.0201072907273656 0.9366076302408127
Ni 5.222392616137557 2.8530063322774373 9.369651569236652 0.2641867633593966 0.5186501287834423 -0.08240617031205807
P 0.3821825707120528 5.330270840783584 12.464158387233091 -0.29154330099547854 0.5490796489178931 -0.39690325189023257
P 4.048619053580234 6.304342443060504 12.659506954877623 -0.16770894544562084 -0.42373502737109603 -0.95084202867264
P 2.553494001862764 8.549335766529051 1.3340404997443511 0.3240669846547967 -0.152381313949615 0.7135384628573324
P 6.243346214151143 7.698727606730157 5.961806067472671 0.32437603125478326 0.20937444350520718 -0.5320707730647223
P 4.859005258615255 0.9148531891827889 12.533593375375053 -1.2488873924526942 0.5127733582876911 0.5718516525070861
P 3.9136584672006665 6.024331939938791 8.183490149981019 1.4237195792066577 0.7292988110153826 0.4252352660657064
P 4.802024908070247 0.976688691548071 4.018009938442674 -0.6053911790254284 -0.07293988269283568 -1.905713490219647
P 0.13174156657605038 5.656360163969092 3.431460671435533 -0.23777382058350663 0.08000475995941705 0.338835658323539
Ni 1.4219638699201351 1.276291266420371 2.5244280669506063 -0.03540434764122289 -1.1755276486136206 -0.6092516904220991
Ni 1.7754514104408732 6.354175432561538 4.780544922266126 0.48613621531613693 1.4143931595994093 -0.6303342221240111
Ni 6.029773680733634 5.573605996326123 9.066642266088975 -0.3147883875663482 0.1885510790019527 1.5673084916756232
Ni 8.620168641319639 2.223767827034931 10.326782481928035 0.5959117787800834 0.8574929861958328 -0.12159183937258415
Ni 2.3404990329740616 5.328520098305642 6.922028755282316 -1.511554633843771 -1.2140548581545414 0.22719347396449904
Ni 0.7632154270339513 8.946555771215312 8.831337964830569 -1.0321107429461451 -0.3760300079856492 0.29942038975071017
Ni 1.5334428484254368 0.9873465619936924 11.300397447249365 -0.4291883371761834 0.432688637019958 0.06696489605632339
Ni 4.332492019488336 6.871898861515693 1.6447368257926058 -0.36494289693355214 0.2681002394811899 -0.037365328022335643
Ni 5.33885308870381 7.916279920728968 7.938966474931549 1.0851526011634731 -0.1630832737481514 1.4443585956132479
Ni 5.087486176432566 2.791865712235875 5.085813044188181 0.5093311653753615 0.39349216932615455 -0.5629201543454112
Ni 0.5709062927222632 7.374082194866664 6.784372566953463 0.4642129328804844 -0.30355369519279335 0.16916084740079898
Ni 5.12510006637105 4.372885438721698 7.098832989329295 0.39982839595682756 1.0909782067063147 0.11221656880527126
Ni 8.267231591990418 7.09915245470929 9.107930910341985 -0.19915250866688283 -0.32221964703341277 0.7415429184900584
Ni 4.613251551608342 0.33186767580729604 10.314221355871082 0.27125292617755864 -0.3335844372269287 0.2930646227360114
Ni 8.039987023242583 7.277574771881501 4.706368490320498 -0.03126589999281712 -0.4718743060804841 -0.144513481165764
Ni 7.228869838100791 5.976682866312305 7.091885970981251 0.14113787982531178 0.15321049471912968 -0.5084068537888793
Ni 2.4091750652273887 5.358409062671347 2.6425490375371763 -0.5367329544270821 -0.30500585425828763 -0.7256689275722793
Ni 2.3326658140521315 4.970520334903608 11.307926542349096 0.4023105389487329 0.46932505729606916 0.7179594747431636
Ni 1.081372262394141 3.369863414438383 3.6440332962625455 -0.30962406975658935 0.8011536881741558 0.6292592438922775
Ni 3.500808122453597 2.6667688450748215 2.6871000189333656 -0.2434803840499807 -0.8582306356928058 0.3432499853411508
Ni 1.1567354089575488 3.342158365947225 8.281243848925994 -0.5723062235460015 0.38058086058112517 -0.36479865804620404
Ni 3.57667663797971 2.7816500396326207 7.130097279229219 -1.0674130177918648 -0.6771869208114919 -0.26900912444870445
Ni 4.0159144621366 6.843868932977081 6.122893326779519 0.4306646646113938 0.5479843589711854 -0.8974448439984222
Ni 0.7323843105306311 7.266772510303679 11.237196546240202 0.7656866056157974 -0.2403007007704184 0.38972935984961266
P 0.18930760365105007 5.422798483187443 8.0408416382563 0.5301015651534936 0.19856835402863868 -0.3182555201793422
P 8.576824228321907 1.6059362212363404 8.044434270114388 0.3220370987089615 0.3947633227290943 -0.6745723660067802
P 1.8948448278799686 3.0115207220973703 10.338921263923297 -0.5706190656515656 -0.20984958336941278 0.6912665388330094
P 3.957562395835678 6.378532411674775 3.889296073419973 0.5942115082595251 -0.01622443227866238 -1.425481813313403
P 7.036143774394872 4.024045487768695 10.704523220435737 -1.196548473839662 0.6674846059220634 -2.0565300307853036
P 6.384416350311985 7.833543801977522 10.03037726818942 -0.20204885637807138 -0.38005198466084866 0.12530682633032614
P 2.2550646049396006 8.372276140666992 5.6701431999822995 0.23327978936789504 0.8196129233206079 1.2832327027017836
P 6.727534802651505 3.980141559133684 1.5306172944571694 0.32179592923243294 -0.1560029698626023 0.9783404912032247
Ni 5.115461958296602 2.8710101015738094 0.4829414100959715 0.09769497815032853 -0.23180963258027174 0.058288708438564124
Ni 1.5461131702761164 1.3188505526367558 6.939991914572756 -0.33854409522504925 -0.8975201773210478 -0.43939535961617227
Ni 6.81949390497232 1.0022007997189193 9.171409764280636 -0.7652852564123208 -0.7759278237278314 0.797649274565323
Ni 2.6716510702323837 1.3151595543198558 9.103981812876276 0.20795905121491925 1.3292801318791494 0.6194828812318041
Ni 6.257677034022139 2.023912451176563 2.75579590496737 -0.02502300440689884 -0.15416205999912158 -0.4106928494751572
Ni 4.154358484580527 6.848516522544816 10.310232550844017 0.4303414769440202 0.08423705287320976 0.22548420458287619
Ni 8.522298527024326 7.046973109309983 13.60284941688834 -1.2007296018005449 -0.08860021493791193 0.538074556056641
Ni 7.625855207197225 3.6266088963841328 8.393143366603834 -0.1992718078535665 0.48368158312805737 -0.06535127171230036
Ni 3.091982680516643 8.339959600391149 12.206175653773292 0.7219017472203632 -0.17509006840104038 0.6746050190169285
Ni 0.007542631768374599 4.881728813045462 10.307260800854394 0.3604498941592051 -0.7314302555360886 -0.6189126105506308
Ni 8.614329824911241 2.3924076450004916 5.849523913294498 0.17457713332036384 0.5930498838512561 -0.22903824048272167
Ni 3.7669029302093917 2.6209156361550905 11.556689902017833 -0.4370078332206022 -0.006627018398214393 -0.5636812008811517
Ni 1.2309524509091074 3.1724446389359153 12.655571394080555 -1.2116084534965779 0.3100537010948402 -0.9902236157940558
Ni 3.02642008205141 8.25024758506522 7.89360961052876 -0.857261072690685 0.087530636022817 -0.22241482162893306
Ni 5.831109531715929 7.934473203386354 3.4683643374925013 -1.0738682864989053 0.634734665184552 0.08662663615130886
Ni 3.122277744941665 8.389566978748118 3.54872341723008 0.31226562114449447 -0.0754575069083668 0.13485307525786452
Ni 3.2667410727092414 4.240821699431923 9.176957091090902 1.1649642712754775 -0.5840546223311812 0.0037167867299548896
Ni 7.447992405662293 6.2462340367951725 11.512362726876557 -0.5313472646351365 -0.38778457741841604 -0.8524130005697641
Ni 0.8306984275574637 -0.08579089364208317 0.19464556331962335 -1.0762175034573722 0.47322696345363663 -0.1906619546973684
Ni 4.569040791817403 0.4986628970589834 1.7072636007033024 0.08181738768812362 -0.3654452904912674 -0.23842276702141518
Ni 6.127607697245897 5.754735647227111 0.26571217125546104 -0.30523596799122266 -0.49211762971055245 0.3970850288837355
Ni 8.07019184320998 8.858594498367324 11.090228934773508 -0.43960233342065586 0.25438906054268445 0.2779149115787665
Ni 0.04570972023210598 5.088325449888486 5.713453320086132 -0.3919124835438605 -1.5428835258640397 -0.1985488136446129
Ni 7.890370736944566 8.945391617711937 2.4543983678328907 0.267912548950416 -0.23634274456393495 0.052896333778399224
P 8.469722106011464 1.6069830569448011 3.662617337421452 -0.5847254231459608 1.7021721084564494 -0.21327789232467137
P 1.777003615112039 3.31449843968488 1.511399737205729 0.3370379429931679 -0.6353090496307833 0.8145961868323068
P 4.588578716893416 1.114437831668279 8.190899219952108 1.0456303746991347 -0.2661947949283609 -0.5610905573358401
P 8.545554523754525 1.5421694874778638 12.448836683217364 0.3006401210904242 -0.311876870346508 0.14991485468699342
P 6.509080044076434 7.706515703423275 1.2541588131876134 -0.1344082744109621 0.08030712169118427 0.28091281786482586
P 1.9094012588950298 3.395862842680412 5.759602530826877 -0.6924240494762204 -0.5153871417614544 0.4872299626009479
P 6.935918279755522 3.9992282619215667 6.040883675911962 0.329486098787839 -0.25940733969288227 -0.8754498277845697
P 2.3794756142226974 8.315530425711811 10.122980715937684 0.34539557092924383 -0.17031218739642282 0.048401788342155354
