# total energy = -340869.905123926 ev
CRYSTAL
PRIMVEC
9.19302280589385 0.00000000000000 0.00000000000000
0.00000000000000 9.19302280589385 0.00000000000000
0.00000000000000 0.00000000000000 13.45491812140806
PRIMCOORD
 96 1
Ni 4.145354509712797 5.414543205836641 6.960417060180451 -1.6451167582043538 0.5981326976908021 -1.927483534906887
Ni 3.2921868570076716 1.6575387416044745 12.539243256566213 0.44284063785229544 0.548337628545546 1.1135200965625727
Ni 3.8550940150625412 9.175436318616255 1.5351253723540363 0.2980330224848803 1.5952880076076847 0.3042856882628114
Ni 4.780380929835547 5.570870554652997 12.974765458764358 0.6286030983655175 0.6503543739996799 0.23165408083901393
Ni 4.298905565712772 5.122903757800767 4.448882374537223 -1.2279858664133367 1.9704456402907093 -0.7504196521543979
Ni 7.377667210716886 4.623364104326382 13.236773037147794 -0.5490287410752996 -0.5442436609818304 0.22931591962414055
Ni 6.747715339053214 5.970077559789735 11.328099304954362 -0.2550230945822576 -0.8236744949844912 -1.9487025921866632
Ni 0.2275787895535525 5.192540903774533 11.460065143958113 -1.5148309906021975 3.241338333369902 -0.6515445376530392
Ni 6.763582496010406 8.869593650708502 12.714399754212067 -1.9583216033336663 0.7623991931137772 0.265910945139355
Ni 6.607006935584638 8.837978846087543 8.94738592700482 1.5013406694252465 0.35562444774610363 -0.1283659248716241
Ni 2.6689275057755384 8.309683418011714 13.270047182342783 -0.5346092232158599 -0.42697513157494854 -0.30269674650913675
Ni 2.6020482665730107 3.4974210859006516 5.867393336278478 0.20202777333214886 2.184634988686057 -0.6744008734259224
Ni 4.8600568564566204 7.340113713515192 10.2220913559734 1.8955992846037808 1.3569997092816048 0.4984916515576963
Ni 8.929605702050647 8.785937145314277 3.152178042556733 0.4987577607348894 1.5357086053821551 0.9637463954391339
Ni 6.706916704884031 1.393901240319239 4.766350538788001 0.4333578951728407 -0.1982387386033618 -0.31300609885494485
Ni 3.5262412116600914 0.07969890917750018 6.897623200208384 -1.7649957286508895 1.1591168113557648 1.784426069461359
Ni 0.030773643055733536 2.904241304520157 10.432580316567845 0.289474848502224 -1.7068929109708864 -0.09353750433852923
Ni 1.0047789809426628 0.6098448926968305 12.474215492109444 0.7577683792099853 3.0422711853279734 0.22743155811723412
Ni 5.094129597154182 3.1272456460424825 4.4596593548969645 0.9303099701575591 -1.1061122341342757 -0.4724255505982638
Ni 2.8382813675747087 9.13671530754807 10.931313741962772 0.15471099052405612 -1.1718003203607046 -0.5965332144141661
Ni 1.767303431099757 4.351241443208304 10.059111936024816 2.4134192041764435 -0.16334578338091868 0.8762705239136521
Ni 3.8202800385869438 3.519447567980275 0.7818693275528166 3.3237342192693142 -1.8124850324811044 2.2385394520139963
Ni 8.783740012919857 0.2996621988334068 0.7301999441936678 0.41032466750246105 -2.2567891422528037 -0.5273404574685886
Ni 6.1352302102740515 4.730324921937572 6.161168323457548 1.071178655481884 0.5525218418302226 -0.9466007368977826
P 4.282808583191311 9.07860621187808 8.990966369803928 -0.779781907366599 0.847171549665167 0.21535200124488074
P 2.3229113292334165 4.013820742769874 3.6190907396251126 1.1877784409565155 1.1654687217157218 1.2419359008355257
P 4.225306227010994 4.611358016848925 11.069266996566881 -0.4433643715662493 -0.4343932784158906 0.08669219928192166
P 7.439306427054061 3.7128227977569304 11.274669457772907 0.7670750013228917 0.3788278824457605 -0.19152815935240564
P 1.9290178911425977 8.335037774261963 2.950703759895208 0.4156483937082197 -0.7175563257674739 -0.5232009813789182
P 7.331876765291761 3.5612574346322465 4.695147821070428 -0.29030068683762905 0.10893198451672852 0.37833654463163874
P 7.873897376065786 8.652895722669744 10.935888189994 -2.322443289917503 -0.9519545450105283 0.9536021079162802
P 2.0764739731781363 2.009751015359312 10.707087647740789 -0.7814418115675251 -0.4576756459825989 -0.08185286891174937
Ni 1.3392395281132967 1.2253931365965816 2.2399608479726263 -1.3071413909985812 -3.126217189323326 -2.6339514640706834
Ni 4.113519072550137 2.5569748769084066 10.128418133186035 0.03850226984025627 1.3377331477425092 -0.008140626829263399
Ni 6.939656457308826 2.2076859843310817 9.759013068619298 0.13337906181549933 0.1381443444146266 0.15036274085768941
Ni 9.131254652141019 8.395150948852386 7.330118140073967 1.2805811240115492 1.3761120046310236 0.49325020065309894
Ni 7.223766819859221 3.03021329280775 7.320928794712202 0.9817204634190512 -1.1093911619958636 -0.49970032715381685
Ni 2.469006843928477 4.428150270035568 13.059908475908284 -2.117269257646889 2.3766372594614036 -3.080144820445295
Ni 5.61732289770322 2.982464733575045 12.102550782594806 -0.9177758422462903 -0.1162071780219031 0.5826096623545385
Ni 8.545493639975154 4.873175299665143 6.228227745902463 0.9261427261537469 -0.1596246257755896 1.462169912763056
Ni 2.0422667361922113 5.040911189491854 7.871288396260193 -2.437846226870556 -0.32032962909955154 -1.1456185197590143
Ni 2.4826768684912484 7.405439331903255 7.526721040075229 -1.6789308785403214 -1.5213690488310314 1.0138325134622475
Ni 0.21188538072294977 0.3657986418122143 10.127597196270463 1.3256721028129168 1.4253080067397002 -0.5630746776454044
Ni 6.816258515341056 0.4436837676364968 1.8432561835796586 -1.164697647877652 1.40747226410986 0.41495291030309184
Ni 2.3851664780828346 6.31937564538963 1.108266674626607 2.35563520328844 -0.5422677682023822 0.8389532755204326
Ni 2.993266535095728 6.495863292703737 11.41986129834926 -0.5620758040672449 -0.6874857316343386 1.1846792332059015
Ni 5.017882667952014 7.497433908769192 7.690898310864785 0.3469240917586284 -1.5951080303863947 0.4644505028125872
Ni 8.897935739294262 1.459383140091006 8.106547956171644 -0.18387655634441882 0.7755799534701094 0.04386713369659542
Ni 3.837811132629448 7.310677655243508 2.9357549858928396 0.6155141263920432 -1.1864280975762083 -0.0026325525268406274
Ni 5.2449043603377765 1.7279664875193288 8.085719324932997 -0.23504896545317583 -0.9600679181462819 -0.5205401467173035
Ni 1.797245105612834 8.770483674372771 5.101189838488551 -0.5349115849476272 -0.13968160699475943 -0.050534261304125874
Ni 1.736442454329601 1.6021232015477271 6.541040563523391 -0.2981862602332929 -2.252732198574611 0.18847883100312057
Ni 1.4861164497268755 2.072337113021279 4.1322875474306695 -0.6311415485166549 1.381007385050112 3.176358071843775
Ni 2.0376426458391017 6.197586482371749 4.2193004253654935 -0.9554941827326705 -0.10079624278347157 0.13971117468111421
Ni 0.3988356070248774 3.5101350361160604 12.722028124341312 -1.1634684034562415 -2.1136033787595276 1.6821820384877675
Ni 6.07327843116947 8.165123138085974 3.5929880713376 0.3301011066640186 -0.44669317882916615 0.6059007716719952
P 6.366839220922641 5.963476969583905 8.961984446847243 0.6696556454314531 1.7320347003438366 0.750263843302824
P 1.630639957562331 6.4900441094164245 9.790093758628895 -1.116124109844323 0.6176386289342136 -1.273374578960781
P 5.3963594071916114 1.3925406729787615 0.2932647744263911 0.04714811844071235 0.7266798853352969 -0.06058058979653438
P 8.5818980093555 1.7826465857704128 3.4919549146800573 -0.6674861485839602 -0.09820302813499862 -0.5664525929787018
P 5.908723327152254 6.738191367669871 5.372965922655711 -0.4940791243122975 0.911342942136753 0.058597240817918436
P 4.5115217917301 8.062666901534472 12.285873442190297 0.8761401689833749 -0.2904667801018481 0.4913000189052635
P 8.168818733159434 4.5672039294414 1.7773541626764064 -0.19562752623275986 0.31465571864322583 0.7679900569379935
P 0.7052978846539006 6.310430834428248 13.447598462368331 -0.9352498306613377 -0.06931359879415805 -1.7219791158800473
Ni 0.1286756562256633 4.555436860550784 4.192592856192823 0.6566029260125531 -1.2099686039003097 -2.133575965226713
Ni 1.0812557357090995 3.968342860112155 1.871282951491239 0.5386579393639368 1.1238605592566322 0.25412937912339456
Ni 7.692463882608591 6.939279543383424 13.158089037662108 2.164391922166305 -0.35915971459287177 1.723898444389947
Ni 8.438689103747668 2.38696831050671 1.3955706932180951 -0.4512864546268034 1.075947023404805 0.30998788085391127
Ni 5.486873907423651 4.153232930055967 8.42785144943896 0.4925380050774227 -1.2857824657068309 2.3681292219903924
Ni 3.7909451035635398 5.737301035274655 9.12640349413041 -0.44642012767343764 -1.0798034210364178 1.5388592351959949
Ni 3.300837491246789 2.098187892490352 2.7593344476435 0.8571482012619045 2.576454655405795 -0.743865653085964
Ni 3.635426740733414 1.4308663840764024 5.111523715160381 0.48874639924547436 -0.543286953495516 -0.13158288914702498
Ni 6.2340827819778015 3.618906879173697 2.0335894421876386 -1.0855212973568014 -0.19089412531283254 -0.37457142116225167
Ni 5.245308853330893 0.6366388762816673 10.850247830328996 0.5045394004136731 -0.5342238148519832 0.652925734271282
Ni -0.14281636354405888 0.9880752589315297 5.419936752178927 -1.4891963207532288 -0.8077251707440863 0.7603618509687744
Ni 5.378249152727147 8.94524303344357 5.992631721364921 3.2643823596735584 0.18445325478349525 -2.5065818416740573
Ni 5.67913678146924 7.671816353914587 1.0359488432711976 -0.5906579865803118 -1.7756701776456 0.00023139928451573053
Ni 8.582780539522295 6.800409744429007 4.457533928078597 -0.5171498900888318 0.5811276784923735 0.9244028606445047
Ni 1.9882117634759413 0.32058459890227725 8.680063862273212 0.19927874983210195 -0.6588053329805106 -0.32526486161763984
Ni 0.44910305444198 6.674345825915706 2.324566073296159 0.24172380637019011 -1.2723309681876154 -0.5073012794295263
Ni 8.61788869272016 7.108569054024598 9.49329242841952 0.3038303458929477 -0.2625877943033929 0.543554862444922
Ni 8.64326143501555 4.503009052829545 8.83209071513095 -0.31282637874397096 0.7160925967377537 -0.5425318204970463
Ni 6.838147102082116 5.476118071015822 3.547348391482635 -0.4132009606089916 -0.06018978211601893 -0.4425886697424894
Ni 3.6358128476813873 7.325561158785625 5.485422329159722 1.3469760064970158 -0.2747365138507849 -0.3540121089536613
Ni 7.934929852913288 1.5905399931085267 12.40566312279903 -0.207572614409778 1.2988061316600084 -1.0148887226409038
Ni 2.1698015383168388 2.5746346732669023 8.56373259675561 0.4440508561103127 0.846302259686336 0.33680602948801996
Ni 0.7421177786544455 7.775053997384606 11.742779086380004 -0.5377094594077384 -2.249701125057771 -0.7719086752661093
Ni 7.619710301983326 6.730689861252104 7.285959456155157 -1.8663182762514763 -0.46964644519122983 -0.42560293381777026
P 4.544175407901561 3.2809621764487322 6.734469112830958 -0.06850678662214653 -1.092970297435679 -1.08728198880165
P 7.339920660041205 0.37593762640554323 6.800061328873574 -0.3131554799486155 0.6660712705143045 0.1963214669759909
P 1.5917442790653007 2.3933390751482704 0.5796448942495145 1.7625310691604807 -1.1897098536512736 -2.402235419645482
P 4.899219132608203 0.9917708540049891 3.3367123425270564 2.2999453659253035 -1.2428337300594465 0.9377648837737075
P 4.801285863161533 5.424287809761684 1.7819019509421783 -0.25193957056092736 -0.018600645820322805 0.09322125864969108
P 7.7375096932054825 7.4852255747951775 2.041393399047986 -2.7286107407184814 0.38761591305103565 -0.9109382504991667
P 0.6420563244826363 3.303613784063169 7.2080550249834765 -1.2365988048933283 1.240346959081851 0.00010695789150949321
P 0.703439055490086 6.851651652238614 6.13195749423885 1.065904037346506 -1.0842475728507006 0.17097321801918944
