# total energy = -381171.14477620524 ev
CRYSTAL
PRIMVEC
9.22570559343944 0.00000000000000 0.00000000000000

0.00000000000000 9.22570559343944 0.00000000000000

0.00000000000000 0.00000000000000 13.50275268460689

PRIMCOORD
 96 1
Ni 8.916506089898839 8.822468472580061 0.7537871997245623 -0.820399166667329 -0.7410711210599624 -0.38879553518143367
Ni 4.198221919379086 1.9643095621173543 7.266222940596164 -0.047470277666821464 1.502198903660484 0.5631983477074624
Ni 5.363834469415743 3.8132332241262072 10.834460171590418 0.10136548502338026 -2.0749332158828397 0.2487431751108168
Ni 3.4105865283290195 5.61217201312092 6.55383148195954 0.49833944225054827 0.045174282543793166 -2.257949481109492
Ni 5.6597305255587 7.520509219280948 12.306489772451709 -0.5413460277190613 0.9547156526954332 -0.17677156986852136
Ni 7.62368951086274 6.5178964360242535 1.6451075284534817 0.19277411594436478 0.44606737231970917 -0.34211201508196565
Ni 5.39729610367604 6.694116638948414 7.0878513031229256 -0.47642078780058594 0.47605594826199954 0.1146766003099896
Ni 6.4346436685677 5.52908530836541 5.469871039455487 -1.0044891245741345 -1.4201074363753672 -0.1878810495181216
Ni 7.0466954303809395 1.1041416735336638 4.540502978205781 -0.8674410985474802 0.14032592544697767 0.9870891839301323
Ni 0.15809076882300035 0.6854505531039746 4.5917323989071885 0.24365624750621262 2.4351715082518703 1.453837995858593
Ni -0.09885528079016646 1.6835067603581433 12.281388472618398 -0.48476298911769417 -0.6699376954482462 -0.7643457753171868
Ni 8.120835109259383 6.105092238346562 4.105012770424404 1.8193110542640019 0.003125690113175262 -1.0110369529949814
Ni 0.7303834297241429 0.7932178655168174 2.422852963085837 -1.3456441750594694 0.5442464891953079 -0.3432049910358283
Ni 8.084504280553276 2.324748654732612 2.7642566573086853 -0.2119010665818028 -0.9570371017397582 -0.8893222148912878
Ni 4.063775711473018 1.015777865167211 4.647458428524633 -0.6448990073120635 1.8842373226237419 -1.1550971486734107
Ni 8.840052667479462 4.502716333153859 2.1573749809212717 0.7767881148455976 -0.7601911297188649 0.3550654899188401
Ni 5.839069016980236 7.091024945853982 9.268586693228233 -0.5108853972363588 0.1168232143393472 0.38325789319265613
Ni 2.1642121513514634 2.8190250586834447 12.467240312203092 -0.49795789054141343 1.4174419737280621 0.17348441447681737
Ni 6.944022552607891 0.5123062004313668 12.850772268539593 -0.24697811279059403 -0.7994827282296361 -0.0983747778261725
Ni 7.053337938422685 4.785917818372589 7.886026140265896 -0.0532953689890308 0.827659447774168 1.027069838088128
Ni 2.6310420811020245 0.6301738153499092 11.535887801675916 0.8514876605420173 -0.4780819775530928 -0.8078308430840153
Ni 3.30026554060235 7.544117799945988 12.732839151111195 1.2901952500625458 -0.8374854327256543 0.9525752093136626
Ni 2.789991763117645 6.926087780895177 10.487412190673208 -0.046869925078661216 -1.8276861657015748 0.6764850096484608
Ni 8.687376465281046 5.217514778385054 6.290162660665789 0.9242995022974211 0.17749456407747496 -0.7685824391063537
P 7.977449192613798 5.978128077693072 9.497525345739826 0.3934731431627611 -0.24579977621177668 0.4878503697937662
Ni 8.273086928999575 2.1495248280147132 8.370775158029629 0.4296845600863116 -2.7570677105075934 0.23740152484575244
P 7.268850421554899 0.5813689100837397 6.718186504894131 0.18303452005909768 -0.17955761725409078 0.9523911183273145
Ni 3.299029296050136 7.455670960229013 8.28672067675526 -0.2351240416654854 -1.0492790271953154 -2.55509007368709
P 8.562469636979376 1.90296784549295 0.7754832916159162 -0.5722141780528274 -0.31125672026400586 -0.24683593078577493
P 5.121595117121115 4.01494405166057 6.838725884158355 -0.9017599264340083 0.3928622490516395 -0.5310865547745821
P 5.186396473350595 3.7224246037721676 0.8793029245967265 0.3475748379687498 2.2582513286206267 -0.20206711121051654
Ni 0.49791963509761794 5.93215638662082 0.49973709910348457 0.7295204401078855 1.7730170562934688 0.5548468904189735
Ni 7.74551495348949 3.639596218773837 4.459175615510773 0.1582585986659984 1.0249641045990348 0.9440887691092065
Ni 1.7767601926997705 5.609201335913361 12.023148056507653 0.6400234243873171 -1.0321454528388223 1.6010621910873006
Ni 6.198668570384663 0.1381355675809209 8.70623749783736 0.34675131362618994 0.1710729768218473 -1.0204160802170361
Ni 1.2115750154032965 7.988907518985811 12.365537056090025 -2.2655301216702273 0.010687818731149335 -1.1540206277797804
Ni 2.8523390816539247 3.3198424879142743 5.602116916572726 0.7869200610732769 -0.2562482252386103 -0.2874562754102985
Ni 4.421733089278235 0.2117327115423471 0.0011947288769529787 0.4187887391094142 -0.7985933836461472 0.395180612772171
Ni 5.206019549190588 7.008648620430715 1.142681136163651 -0.7109683881373111 -0.5764343867817621 -0.46545169038359197
Ni 6.953349740983176 2.832097883537826 6.58112019659382 -0.16529596512875402 -1.0916988869224231 -0.5699426084098314
Ni 5.514840818898109 2.789936408883964 4.669684075918204 -1.3344285088493082 2.2947080287857644 -0.0008458929400630594
Ni 6.688774955398176 8.75424437956796 1.6653487265695808 -1.1195889284644718 0.6755265023899334 -1.5882239016720519
Ni 2.008067083842358 5.704161523793492 4.199126961099774 -0.1758858248294584 0.69641414447222 0.48847026276595235
Ni 6.092739018530037 7.119393990615607 3.493796857539751 -2.2830280213446748 -0.4796835177122578 0.2312231639491824
Ni 6.685942663774822 4.960864873922082 -0.1596905061763876 0.2902747186957001 1.3814966659817047 0.9354485769357049
Ni 3.7459040245586177 2.2190681969295514 0.875836826997721 -2.6035458551956325 0.38852685490107924 -0.2674119551649137
Ni 1.9033553251287185 8.010680184233756 1.185847290158827 -0.34808417350500054 -2.230866765960087 0.35506369014662725
Ni 5.10668637684964 0.8213784093315762 10.557383632328515 -0.5168359583928389 -0.22185792068419857 0.6207650903783374
Ni 3.5576258243975647 2.5819336501211696 9.693491326388639 -0.38297712872744366 0.7346778159391089 0.11119969750498268
Ni 3.340969353769273 3.5289707827619203 2.799620632066494 -0.7554793260654924 0.2365869993642571 0.6641452571361852
Ni 7.598789331411805 8.05002781867549 10.609936019214903 -0.3254198991382653 0.9140464571108452 0.9002787139027915
Ni 2.0113053065127096 8.52635099950238 4.101771780042369 -0.9507049888741435 -0.74191804244129 0.36649507191202046
Ni 2.8286197925215224 0.4521029358796729 8.873279968817174 -0.4042753759845877 0.47006090702082914 0.18874931105568785
Ni 7.35488935210674 1.3262320847683282 10.503008246012891 1.5116631343971774 0.4189972555757945 0.6703380162104585
Ni 2.5686117312152232 4.918740302090674 8.41093188685367 -0.014452427979904143 -1.5687544800935305 1.8818780783629463
Ni 1.706165093344989 2.3171835761295125 7.726828286769272 -0.12448047377428885 0.16418936232813658 -0.31229081795547503
P -0.05354322766928188 2.992948060909835 6.311497104897091 0.8811484208312437 0.2898610281970492 -0.8058143268746186
Ni 9.308829221114479 7.952871912859337 5.714688976469099 1.2182156744004504 -0.8964287440290819 0.449276109064994
P 5.381178795969193 9.399794678463948 3.201164856042863 0.14142738604127256 -0.27563202908186074 0.030155183427141616
Ni 6.430953386322286 4.567508463677726 2.6387889061057113 -0.6929832644138001 -0.07598021218105624 -0.26259473628192836
P 1.6816339421185953 4.027887716636362 1.0582225689834084 -0.6865969012714821 -0.1610464458237807 -0.5450317041007645
P 0.35142834594251704 7.275123901372104 2.652399589597362 0.5156038857579508 -0.3020395725411121 0.18720999159302598
P 7.624796595536365 7.55356492249425 13.111861582543801 0.06015172978923189 -0.5555248903226047 -0.3071997765858128
Ni 4.272285884044558 8.05806340826488 4.888374814634281 -0.09745843665949022 -3.1154535230489184 -0.4405785812909961
Ni 3.349087974709185 7.127946219719356 2.797149065532627 1.3465139792589325 -0.5553986491573853 -0.27499850926291997
Ni 2.4057964785475305 0.6352092054737775 6.191012157295988 -0.5935872444119649 -1.0090677450837524 0.5607588850280343
Ni 7.927399739660362 7.823924225498936 8.268546036696593 -0.20285823965324418 -1.4392364438953342 -0.9532920328750291
Ni 6.870585935924141 2.854248802715927 12.585524006444805 -0.07497131130056765 -0.7737197603329191 -0.10308709570017731
Ni 5.0309710108793455 9.260763294867955 6.542974671593529 1.0512299802740992 -0.4258405037498731 1.5055693627946134
Ni 5.920006132327792 1.8177500027407132 1.360429007766024 1.5446372753303528 -0.8810378633953084 0.6202536979595576
Ni 7.832421100369004 8.482565800660534 3.5366677889552935 2.673589390177279 -0.7660316476600421 0.1478587434889131
Ni -0.18617566185172824 4.002775345956315 12.951421949071593 0.43931771230070144 -0.7147157709948851 0.2510592248385031
Ni 1.6018869427951858 0.7547088477153546 0.12389200068418187 1.2730205380554722 1.606987812543116 0.5129358520074844
Ni 1.035843774876653 6.489010751748271 7.7442611800966095 -0.7446724652579756 0.24404911206925714 -1.1921009795912694
Ni 4.359976215901222 5.0732893225286375 12.525207265714064 -0.11713406071154664 0.3043944459265338 -0.24512409030099078
Ni 4.956897820508261 4.903914593169722 8.941725478764003 -1.1669355360692355 0.15811513110959866 -1.131443770920529
Ni 0.41972808974065057 -0.07575503650443238 7.952634812225068 1.5358037361991228 1.1551092328582686 0.2915553851803366
Ni 0.9464005589534163 2.1669798630355244 10.267695553492906 0.2483181717582562 3.052072744799428 -1.3256798161224008
Ni 0.1457338587242296 3.9543403914852484 8.244632085175745 -0.05732454475308192 2.351916873896588 -1.132165993798534
Ni 6.32268050524182 5.723369442880876 11.112832922491023 1.4954227612789148 0.6151521150669341 -0.3903636509995019
Ni 6.124300157433946 2.55334318842482 8.939943072439467 -1.5693352922976649 0.745339152307697 -0.2288564634892188
Ni 7.116746213104522 7.791357484683153 5.967230674222363 -1.1683627554340654 -0.015303206015973644 -0.9937552830963982
Ni 0.9717804750962553 4.549822786016576 10.07498440178455 0.9362055097063878 1.3678417942024312 2.3635901964694583
Ni 8.00009829989503 3.9038942331904303 10.704887903959982 -0.3741397329414718 -0.40324667760975713 -0.5745178864853396
Ni 3.3098141459123607 5.405036470685798 1.000048037096131 -0.1685404402079807 0.36505114037664227 0.7523160978461624
Ni 4.468387482565889 2.1940019547775726 12.170300828755245 0.1385112408357421 0.6829451634515077 0.8667623273129008
Ni 8.751928727458962 6.24681752798171 11.654482402196805 -0.6982188017811265 -1.1023720503655532 0.8854588752811396
Ni 0.850910815571068 3.6142993339815193 4.284693535524203 -0.27524404961482274 -0.07947691248040506 -9.513081696757811e-05
P 2.16996899165431 7.3652221423939 6.040186631643649 0.27745931209858665 0.3605501671824952 -0.2347147220422087
Ni 0.7045569894296089 7.309923262946364 9.867447541155238 -1.2125528196877182 0.8824589121125513 -0.18617820789440195
P 2.0976117825273435 1.8995820115327822 3.8948419708424287 0.3985132766898298 -0.732044749191636 0.2780249547940696
Ni 4.496830332972423 5.278625852369121 4.066664279900617 -0.5011278036289628 0.20882242765647907 0.2245318679719359
P 0.8285089572002787 9.470094555239097 10.339166172310412 -0.6791844108574948 -3.5796834252102667 -0.23354024211813326
P 3.181789029113314 4.620547045249947 10.622804955975225 0.23793168631760955 -0.5507580650615804 -0.2900168370486231
P 4.156816952585534 8.261324154342317 9.979816635528113 2.0476203870004994 2.0031313034491887 0.4829853283919811
Ni 2.8835588694501326 0.46456225131075396 2.268624074632663 3.677241877782732 1.1465921965261932 0.3109317328244193
