# total energy = -381171.0479843605 ev
CRYSTAL
PRIMVEC
9.20723822729045 0.00000000000000 0.00000000000000
0.00000000000000 9.20723822729045 0.00000000000000
0.00000000000000 0.00000000000000 13.47572382753906
PRIMCOORD
 96 1
Ni 5.365407683349729 2.764206315879416 11.617947516899102 0.42166348955404803 0.6782194758410642 -0.4104066856933061
Ni 1.191830973046559 2.251593318665409 11.405327522992252 -0.7318138641277525 0.48812110695664973 -0.7147229700837369
Ni 4.8430810496371 0.9667139944765999 13.09864638710942 1.840222864716005 -0.5281282434772067 0.8539392074063035
Ni 4.456377037369686 1.7753581203197002 2.326152614402082 -0.899550063266883 -0.9842352594211049 0.23912493529476236
Ni 9.29037974995689 1.439570136334162 1.648647184909572 -0.6285403634483819 -0.8155148419918342 -0.027395618404133463
Ni 4.99932788506991 6.5804685188474945 2.362954866960037 0.18178033593702242 0.3050179384431457 -0.12273829427220152
Ni 1.297281474296528 8.888106297576517 2.8534981137596396 -0.8026179314245081 -1.3903916544784893 -0.06681551496265267
Ni 7.3301126611046525 5.3259086306681285 10.295062554095116 0.8666720815919396 -1.0877414449365719 0.4479748737550672
Ni 6.073499558764915 8.144143021404336 7.193718473082581 -0.3977982529006762 -0.8686677718657297 0.015317089973044587
Ni 8.201347593504751 7.262292143143658 12.406452650217618 -0.7146700053586144 -1.345708966859134 -0.3250303770093306
Ni 7.43618925456496 7.211136726663712 9.078271678504372 -0.40679479997233164 2.378051880420743 0.8739760714525208
Ni 2.7504414944903735 0.7079445596009882 4.366255667310765 -1.2386279195082153 -0.5628684751718694 -0.562418017898012
Ni 0.6106746896581524 5.201205793950275 5.256408712425287 -0.05146834308262104 -0.9162210961646607 0.6740771715379166
Ni 8.211807016312745 0.9982027497612321 9.164597824900042 1.098356758558573 -0.4213001926773583 -2.5326988504760832
Ni 5.957994753195993 6.7949511370801 5.198112161852135 -0.1297275811058411 -0.11858107757071837 -0.6482460694074256
Ni 9.34755670034214 5.866217000951194 2.9964349653797404 1.213379943574704 0.15868385912887512 -1.1424856305569873
Ni 4.514281359587537 7.72591342489874 9.798508822076272 1.3835106110879398 -1.2335965277318948 -0.7583605042680294
Ni 8.481330505624745 0.08057254312743202 6.977985511876978 -0.9228491430041397 0.044388039197071946 -0.2888881227608186
Ni 2.5529646455591473 0.9130035693441722 0.9931323235813353 0.17900020208872397 1.0696092541122353 1.6281402782510155
Ni 3.0115035317244274 6.47459448463171 11.489900611198973 -0.5743548785449141 -0.7205992263588558 0.5121560364186662
Ni 1.364245719087502 1.7624771938158406 7.0954938125189795 0.2921202565448711 -0.4450669560796528 -0.43531630445079217
Ni 5.182413820401757 8.774461354161833 3.662324542922809 0.19008191382418232 0.36408646247052784 0.14237200934272898
Ni 3.670594484442299 4.70338882882469 7.983612057949905 0.24768465193931538 -1.8438478630631019 2.3709767187415167
Ni 7.305474091180186 6.799122016069557 1.6599665637829426 0.5889798275469404 0.3164560050767582 -1.0762758674991333
P 3.610314694720519 2.1770146877281213 7.504307166325865 -0.362947206659762 1.4031083307142094 0.02945378648474282
Ni 3.8519034227653925 6.234414464060095 4.452473168293462 -0.24271728063171102 -0.9956255035359176 -0.5420813632231889
P 7.0511885813992 8.861663108928136 5.024706716960717 -0.17622032535074167 -0.462036751164772 1.999570325570808
Ni 8.796788907251083 4.0197237568510635 11.832979807263431 0.7991497703702494 1.077134615955003 -0.2808539396024324
P 8.601374479718617 8.567768059604902 1.2952411502698982 -0.5844809112353224 1.0312046861921078 0.8576655072179551
P 7.1304721111524065 3.844583668247474 8.613938677221952 -0.5039107656907386 -1.4583117153592304 -0.16814397610051043
P 4.309190124509998 8.74187693750911 1.6055922967627891 0.4630703346356089 0.5665310116251211 -0.5382560759398279
Ni 5.009382189388863 5.3828554000937 10.67868950729349 0.687948273093054 0.09866762647624297 -0.0515498470528338
Ni 7.988522278181863 7.038040644982107 6.202108106006669 0.6458662563213392 -0.36029639930047624 0.11682501411156009
Ni 0.6527895187655901 7.032203255844547 0.6194464256697516 0.5055102489673746 0.07775633024487254 0.9891890038819545
Ni 6.26654772603184 0.4701326407425931 10.180168188431274 -1.5062676744132188 -0.46768160815537513 0.2742009530622891
Ni 5.808782247891095 2.5391537879781683 4.25873261669981 -0.45811144796843684 0.2747424273880559 -0.1540224490974638
Ni 3.2545377961961104 3.9607513949802824 10.633653221445755 1.7510294962787842 -0.8195931258262659 1.535953631513426
Ni 3.6586342817771715 1.096784651174261 10.992660019196435 1.5080322225128096 0.5574316204270142 -0.4119886854684453
Ni 0.22434909488845675 7.2690870850735 8.005779405091216 1.8488334892031515 1.3256330220448653 -1.0679681189643866
Ni 4.511344250541983 4.168079988985941 2.4129363605456002 1.8150551072011256 0.05178433166114308 -0.09658014781959495
Ni 2.434200477601114 6.417675336921301 9.21875664254193 1.1596212617960093 -1.0583511646999129 -1.052052990396027
Ni 1.0691168998203662 2.97326587070189 13.526796782977351 -0.2940318717452871 0.8208575943609864 1.4473855553650299
Ni 8.34244852179042 4.8391127298921655 0.7289343009525603 2.1214583560275724 0.4159055040243482 0.18623580060521477
Ni 7.803180569445123 2.6534892742719003 13.399303232304302 0.6909937447875971 -1.0632735417021946 -0.31493648310843825
Ni 7.843149191284477 2.461812985524685 6.847500529451888 1.043607430731835 0.7175707239451771 0.06099556584676592
Ni 7.508677842388325 3.1797934349678516 2.278947103190296 -1.8984737779380978 0.3206101364544478 -1.4387775019810447
Ni 3.2104075026056886 8.705342615588227 12.81298813324748 -0.8901693933829314 -0.662433416651401 -1.7415724646309425
Ni 0.18006135752161176 2.9857877149086445 8.874559687737253 -2.452604101906021 -1.1792691179339239 0.3637943851514057
Ni 2.2581672868739546 2.137653743622331 9.513160852147985 0.9438195746082195 -0.7647273270263216 -2.7276368068409864
Ni 0.4404024679899387 6.842303964106084 10.164698186492899 -0.8339414241281379 -0.46695938527736996 2.1387089155779035
Ni 5.643899022850979 3.0398157897654343 0.5296390224398383 -1.6434280576480214 0.6178867403892777 -0.12280668561629174
Ni 6.538971495435847 8.515240764605243 13.679880932024119 0.0691323360212874 0.2338626584545585 -0.6018188882931377
Ni 2.4914602931318535 8.351333506834184 7.776180342874309 0.2216650879471021 0.8891532934135912 -0.40209636605539784
Ni 5.446873328600731 3.3286008217837075 6.73050415126422 0.7240540176766755 -0.05894331130342752 0.34036803580766545
Ni 3.1623549254622683 3.001716237318707 3.842859152497529 -1.456253804388937 -0.34289183067078366 0.6697680026396013
Ni 4.967839129785277 6.930435649949506 12.67351412398485 0.8621423120423861 0.04602943145523685 0.29231951703987075
P 4.391843503512964 6.544339315415654 7.639549528825683 -1.7614108395131083 3.70623106592623 -0.6376790925248566
Ni 7.401671317850899 0.9618894015616444 3.436470985281864 1.1308709291361942 -0.9273778841124286 0.6750166526330504
P 1.2055865871972142 2.8148461270096727 5.0129426284732395 0.2763984749342401 0.818851362564235 0.16130946967718027
Ni 7.434412257556207 4.720891788998984 5.919386961190285 -0.5319589300772064 -0.33239015980851144 -0.6458014645216749
P 6.255130750431564 7.6319535571561445 11.100209770798712 1.384740369729983 -0.9083746035370485 -0.03199943572473198
P 1.3049511038731652 7.740092572015211 12.01079183644702 -1.1210637132377854 -0.5634593146783329 0.8590891270383592
P 5.49293714225249 4.585425690606354 4.86178555442094 -1.1922596166563209 0.14600986320563242 0.2026507516281284
Ni 8.720847605032473 9.060327691611327 11.002443630706802 0.12550942925943545 -0.04865658466543878 0.26369388288337814
Ni 0.8598952976022751 8.059602158531968 5.642056654449676 1.1325832838416108 -0.25126311331919304 -0.7604173867970582
Ni 7.024331067023389 5.371815921267304 3.5697190599469892 0.15205195563465426 -1.1450960715966407 -0.7177363029887639
Ni 8.184286580773048 2.950201738541655 4.296856107966344 1.0790632004362837 1.1796763806746715 2.713591384491514
Ni 8.65501585056314 5.098360941163917 7.794601264715819 -0.5108951674283716 0.699291466020015 0.6850496113890203
Ni 0.162117370628565 0.9816205134256699 4.829524311835611 0.22189185924592753 -0.5326112189492246 0.17488643703066653
Ni 3.297093652022301 2.550147230612627 12.73197180122978 -1.323233154354121 0.836836486287746 0.6785097533879734
Ni 8.089488854337207 7.526677993435535 3.6658684089780884 -0.03482919186404324 2.299205402435485 0.8774740573034502
Ni 2.171425894027019 6.331928325820195 6.848915681992018 0.762572742577164 -0.7205079521966301 -1.7295875243549246
Ni 0.46723143992674876 3.6395660910770324 2.6701608208198193 1.8665373342408176 -0.2911550644181244 0.01946067982777294
Ni 7.479325166409551 2.656334310933582 10.465449866243171 -0.518429528132204 1.05473516521388 0.5634112350492168
Ni 6.168048689764297 1.0651485800754315 7.66515393805698 1.3011226956083268 1.773500937908423 -0.26796859899933206
Ni 6.2281903709102675 5.697761367416798 7.875550383893293 0.25521541309872176 -1.1951006856495416 -0.38473293507628575
Ni 5.095865779560954 2.8869295963439963 9.13389997139288 0.13593062459275945 -0.043996974406240355 0.46668427723911243
Ni 3.881449450750301 4.786300010502502 13.13117648105566 0.282630571886881 0.03387531259120618 0.2151080035548747
Ni 6.4512909642734035 1.1622297016313272 1.5296970307361153 0.6060524667585111 -0.7269398238649029 -1.287874058128537
Ni 4.343109590728883 1.3139005395856396 5.690488569814654 1.3322114465933315 0.0396240421495253 0.9993893414537239
Ni 3.4318600002974944 4.250199348162442 5.801420140076594 -0.8798001343334654 -0.31280555280836453 -0.7414439310183489
Ni 4.287718844590769 0.45197320447128303 8.518247848662542 -1.2451932314305585 -0.10536894975581854 0.9593390104000575
Ni 3.179148928280739 7.076747875162399 0.8601779598207658 -0.7111252254301496 -1.254504995749788 0.409404726791353
Ni 1.3266433575136896 4.436949764372441 9.996386185877347 -1.6380932756986692 1.7901984531687622 0.5077501940414868
Ni 1.4071790716875723 5.291224963663097 12.853576402230301 0.5109998113270361 -0.3904235577031599 -0.6070539114398319
Ni 2.527792055808216 8.520332367433431 10.356471151243182 -2.1995733551634444 0.8608423622840401 -0.3652707125866161
Ni 6.624497532815656 4.800212147705741 12.617428231348494 -1.0498842648794824 0.5583214792311352 -0.6659175185452596
Ni 2.610638786817316 5.308764752790941 2.510150066334273 -1.499759698091372 1.392730329913995 -0.08526677968930477
P 1.8275447474990267 6.729846754443365 4.177703394548367 -0.7589932527560219 0.6085407803980035 -0.5528051773985964
Ni 4.0310946962594025 8.10623682096374 5.762637410541528 -0.9581689013513565 0.5680536189172345 1.227342319292067
P 6.27472375371978 4.901556220634966 1.3632854041237046 -0.2873655154687051 0.6304512073178498 -0.04327218042507386
Ni 0.9383741147204306 0.5499391416362001 12.833417153781264 -0.6551507669470588 -1.0130416421298358 0.9393489404313758
P 1.0416517077109924 0.12953847831887402 8.930698982356256 -1.290415593603468 0.8532817763279628 0.07287971887886158
P 7.101690283953646 1.0836827509491054 12.128677633862901 -0.5627563750740373 -0.39233980088926623 0.2628189364775925
P 2.451942825973479 3.2937698389644785 1.7490815826861295 0.597794597625093 -1.1062423319542367 -0.9872241668460998
Ni 1.406681880814657 4.209586219635977 7.542834855357603 2.0141117137200926 -0.4742420349817122 -1.6577046221716933
