# total energy = -381169.06829740765 ev
CRYSTAL
PRIMVEC
9.18794692756498 0.00000000000000 0.00000000000000
0.00000000000000 9.18794692756498 0.00000000000000
0.00000000000000 0.00000000000000 13.44748906039690
PRIMCOORD
 96 1
Ni 6.023636234387848 7.428418157598112 4.362055794801759 0.6601513054854437 -0.7440530865064218 0.23865005254087288
Ni 6.736666838275068 2.6283407856503263 4.3070824720883 0.3508540229406538 0.6532628058957266 0.37613130945020384
Ni 5.987555167685121 1.6376871841849068 6.327500926544519 -0.5391382214344651 -0.30301556330113616 -0.36884506020143576
Ni 4.709741479963775 8.392509405145125 6.385728619980186 0.5166158719622328 1.6235066361337458 -0.8642439317664213
Ni 7.386952954127421 4.601112386094068 10.63208243954026 0.08033411827437778 -0.7427652209329337 -0.5119518908276602
Ni 0.8547574381651852 1.7743578913922051 1.3578471350672696 0.6907584888483395 -1.1918970911105797 -2.409717329844824
Ni 2.984024578417314 1.2036761457747451 13.146251961869622 -1.5306106220339575 0.5941099496846542 -0.4493738109851229
Ni 8.984295864339403 2.935218205530916 9.470447581494485 0.5270224120075375 0.05074380621177067 0.7810458616806871
Ni 8.329323895668514 9.036988738681176 1.4367973234969083 1.9991178114144217 -0.14784743063500344 -0.210189997427967
Ni 0.35623139439048673 4.61765069015949 3.1121385508600974 0.13309572624712562 0.009560647105241599 0.22976740533926235
Ni 2.7373649612282627 4.430777042166935 6.7801837102445415 0.8630252288679717 -0.9497143428260998 1.9039504847819533
Ni 2.7220578420210457 1.6988145936000432 9.05055014801482 -0.924955133603549 -0.5495108229180408 2.1986547000039165
Ni 1.451135114326958 7.613729854651154 5.823058763887753 1.378614202227587 1.0266620611267478 0.21825760492744994
Ni 0.3484106141568832 4.055780185430217 11.829553964906461 0.3545276151374991 0.7107495872582856 -0.40787363485880723
Ni 4.553482070385655 -0.04766890508456507 10.358035390818873 0.786376015644349 0.7573091801853796 -0.925416903731316
Ni -0.02838524254428421 3.96173236297819 0.8940065088911104 1.1916898601957797 -1.3060797825032862 -0.754560928016281
Ni 1.9276955339187665 6.303161136933571 7.83044595353509 -0.23813300369513826 -0.09733425237680011 -0.5628723318266112
Ni 3.2819069984756544 8.340854768780794 8.343360321846705 -1.1661482642812497 0.6147219695080509 0.09200075597902865
Ni 5.072885885453607 4.646317083872885 11.291977310054621 0.36088286793156554 0.23454785744704124 0.3419469502590111
Ni 1.7974655773502795 7.078339012319962 10.029110574029737 0.02700069695855995 0.45392209247743753 0.34138310733574107
Ni 6.511378385117221 0.6228343686930948 2.8828864174945723 2.355215599252518 0.6040022690977017 0.26593254240590974
Ni 2.3944707902718676 5.078747795450129 11.323686751716055 0.1811594145235719 1.521490147789928 -0.4648945323285413
Ni 7.704341385036256 5.124007620909164 4.767161552884246 1.9708557312449346 -0.6893214992914967 0.5069701213423526
Ni 4.574880798256969 3.3041510174436457 8.3486847369611 -1.0884703526827963 0.4833843636026127 -0.44235032847943817
P 2.6046910108367745 8.633775697619509 3.3595185030706647 0.08266148085597377 -1.85186199161683 0.12035102498694755
Ni 3.7051313874564804 8.271926792614801 0.9655806137075712 -0.004256718393824927 -1.3040894915461347 -1.4988855230165348
P 5.416524280092946 1.038798442189201 8.273096418230093 0.11174091472043336 -1.027875621818875 1.2709963085365918
Ni 2.492928827141341 8.868647179188596 11.309042083466124 -0.8150461298855318 0.08511842703689856 0.42661054914667823
P 1.0812375680104118 -0.03535797529719976 7.451831802181397 0.555387850524108 1.0074998863760003 0.5557303214651913
P 3.7240126179311694 5.2097311636482635 0.4246136065223213 1.2199912782436344 -0.07343636271327997 -0.3305520781585081
P 9.247668356581231 4.7391888491469265 6.806782815949759 0.4006565482850777 0.49032402814523945 -0.21500233121494583
Ni 7.399237238869348 1.8874247635194663 1.0247243454295276 -0.5139234127317343 -0.5832917760232277 -0.5140563387651726
Ni 7.237538564843045 3.9472337830808377 12.958322618800892 0.5577542938737556 1.2763066650059116 -0.875934480730472
Ni 3.118288043588423 0.9956426565251552 2.0771264615072074 0.032358361726047495 1.7769505870199203 -0.37641490212889367
Ni 5.6872930694307 7.816682409373978 8.65617499288678 1.5784580805345396 0.9707714206067153 -0.2925205773070833
Ni 8.45607162043656 2.1554279808996135 12.53065218241048 1.5778255891568633 -2.318974871752929 -1.290485270499139
Ni 1.6099303971951082 5.344555093568256 5.077744471670161 -2.101227630802994 0.09383086720923195 0.9348469387959641
Ni 6.0073919446169235 5.914777441850566 13.29063686912877 -0.16993706344519122 -0.007025282277897579 1.1143621328478936
Ni 1.2449851541514856 2.4665869839438064 7.056233731347185 0.638219795519675 -0.3873711440300812 1.2353613329418014
Ni 0.5502541837126542 -0.0696042090433351 3.3316018458082333 -0.1832126975081748 0.5435003550579027 0.25814004294468446
Ni 4.462787848480228 6.3409235978829495 2.1371963382568273 0.6321481354042985 -0.40996831260430683 0.22666202694106127
Ni 5.703812997602715 5.275700620975887 8.971115754793933 1.5630255480295534 -1.006795146999492 -0.4825466981926657
Ni 7.067782061558201 6.230806056647355 7.2811693673516364 0.6531399071646171 1.5795729108652732 1.5066026891551343
Ni 6.058357484978528 7.441841747731212 11.457529408928169 1.3355258556785452 0.24154280070763562 -0.1349950001523675
Ni 3.873803713030368 6.707063273997964 12.294352893923746 -0.7792394045995676 0.1636427457960472 1.0518964102135044
Ni 6.445261920642349 8.200858024867005 0.8512421297566131 -2.0635103187578787 -1.4571305505669356 0.2954174392389041
Ni 2.860207808647529 3.3418032230325876 1.4597387076196582 0.11839698658437031 -0.31159276344718595 0.3730112757639834
Ni -0.17609894289393233 7.491585291181317 8.147967609671118 0.015525606439424874 0.7460197233144894 0.9021216806488012
Ni 5.843065517833559 4.840063315999292 3.7277511934446252 -2.4511676265698106 0.3918073254245639 -0.6436036855394077
Ni 1.8471264292800573 5.570091621287083 1.2171309749266352 -0.7491091608730904 -0.2512515433549673 -0.7682659363071995
Ni 0.23090412618272652 5.431537385005668 9.348680642634141 -1.4155876941281427 -0.19626618825802328 -0.2019868927918844
Ni 4.405280490066078 6.374257468521476 7.258847250836669 -0.49755911244109796 -1.9456383514390427 -0.6444272098819676
Ni 0.7725060204851547 0.5546515350047155 9.9011436087342 -0.733028453261144 -0.17393487175067465 -0.6663196390796847
Ni 7.2592864346890735 0.27493460437289896 10.024255662991864 -0.6961115256301367 0.5198675461303112 -1.1714725047076406
Ni 5.185456608458907 1.1633318718018208 0.5082128959836838 -0.3744544359684132 -0.449482054428213 0.9698383672694846
Ni 2.820001353875149 0.41094837339093204 5.1951149780331125 -0.7550594649192545 -0.15656835544776906 0.715057213494704
P 7.664272749464421 8.771732717365229 4.660011718433725 0.5178325179781533 0.3472128266436407 0.01537699667670255
Ni 6.163917804649429 4.494743527113302 6.51881786556265 -3.5440746748677223 -0.2989992430528915 -0.7476361758719898
P 6.836613322510428 6.229262481601248 1.9542560502478326 -0.9736379435212328 -0.6024377528240592 -0.09660225930678201
Ni 4.67628816601811 1.3954285934665984 4.14447602892774 -0.22108453285328378 0.926450744312469 0.5042694345817379
P 3.4051541155498533 5.167990321776481 9.176835719063705 2.28997771318963 1.31961175555145 -1.5297328474146943
P 5.003388256592028 2.4964569986752974 2.285723171889692 0.058782360245531025 -0.37145267302761187 1.526432579396868
P 6.532097204932512 2.5087964110974417 11.364553819856381 -0.27494528742748137 -0.35856990352767276 0.8814137586774885
Ni 5.31893909816026 3.5261501856818134 0.5120369194014772 -0.8293933997461392 1.0398078544800866 0.012368034647049667
Ni 8.686891217509618 2.3799813983212186 2.941597396926817 -0.37747959594798214 -1.571497075835674 1.8137674987379537
Ni 8.454720992271218 7.046144447072608 3.069819787140696 -1.1409810209870028 0.1685298986850194 0.7796397253617798
Ni 1.7027837865757443 2.2444040567715784 3.474158351673481 0.21672651299490417 0.2563107030454295 0.15265796464976936
Ni 6.622028827261591 2.80447372394706 9.290412522232982 0.02377627648399131 -0.943608229928362 -1.0883651945634998
Ni 7.669123985323612 3.1187566288702766 6.759407006365021 2.340911266814704 -0.18659138417242058 0.10564251513217936
Ni 3.550011283269535 6.857653720460325 4.668134782113857 0.368083756555379 0.5270329535304988 -0.07617690157289461
Ni 4.406603554391311 6.6663606701036215 10.081030742053784 -2.196841300944262 1.5843304801549167 0.7698016562254355
Ni 0.21483348860448884 3.0358905375558147 5.164305955148573 -0.4907482601668517 1.4141990413107322 -1.4146569547837573
Ni 8.375144185876433 6.343964808241647 11.661635050962222 0.21069624764042424 -0.9031385519490897 0.753866730162734
Ni 3.415968328819298 3.562736589453206 12.542903390544275 -1.0077703664285675 -1.7810031598227392 0.32492367622813717
Ni 4.324582754173526 2.423495513906681 10.723094564401611 0.6133027205630212 -0.5686475437474916 -0.10341285447071222
Ni 4.732123318132312 8.631634906037705 2.85478048853006 -0.5920774926356578 -1.4689313998566056 1.364256133733702
Ni 6.719999902955804 0.36253800100743394 12.418257867981877 -0.6327142923204135 1.3927956359342917 -0.6274715558642355
Ni 3.0548820233909395 4.766513802641684 3.4822005614226277 0.6269344524138428 -0.9382508222711906 -1.01353349416459
Ni 1.3269324507956464 6.964068519174606 12.485724041827423 -0.10471511822190352 -0.19463662307440027 -0.2067614313623923
Ni 1.457575864965769 8.0364029668298 1.0690929400583709 -1.0631676122519498 0.7354810285666946 0.6525390403558246
Ni 8.591483578945546 8.546150249912886 11.670040184606135 0.9823933211163598 0.03970246079594453 -0.6866570650854562
Ni 8.543834887343726 6.996318212102177 5.811345969430753 -0.38894183095131085 0.6396300456036405 -1.4722676633186904
Ni 0.23626161790525263 0.7383286963392919 5.522681816299544 -0.5520934960435524 -0.47018020620751283 0.7279129864114495
Ni 7.184377105219419 8.83501010630887 7.164498982527453 -0.47657556821089536 -0.6344819257437976 -1.5097880288616514
Ni 1.5134477688667831 6.713283513915903 3.0718503233620615 1.1240634192960575 0.9640261314630816 1.4073213403542926
Ni 2.9967039448674697 2.857194162128941 5.133229563014978 0.8040960586319313 0.49453189557899996 0.6585294536113045
Ni 8.34984058065634 1.3890154066678961 7.907486886639843 0.9993309774119629 -1.2995427527157168 0.8487324663943835
Ni 7.225245092154416 3.760543894022344 2.1688644341580976 -1.575779248150796 2.9598871265031024 0.10804084016102683
P 0.5264996663066879 0.2524434296385968 13.1110060795222 1.108524186009878 0.5592133949177852 0.886441293799067
Ni 8.66450019139438 6.118115890334916 0.6370251523758962 -0.42205146902108603 1.168080448306956 0.10031544649231111
P 4.37008146624684 4.87355338173177 5.392967303541095 -0.9288035608153615 0.0834819198747401 -0.371752720766534
Ni 1.9291839812846543 3.9692848551680657 9.373155495061624 -1.7901876545354847 -3.145682240026473 -1.1561438447703702
P 7.570739452027762 6.613897494429425 9.684679259589927 -0.9667458443870898 0.7685194470789023 -0.7423965247396053
P 4.369998774726513 8.793526526944772 12.51564459026578 1.5127345130844851 0.7023503074509969 -0.8727460557001615
P 1.6484830215609452 2.4325088896223357 10.943054927266383 0.19984799207201068 -0.31277187135695167 0.5384280827413179
Ni 3.5916326818341777 1.541737456765356 7.133771732368571 0.8425679894548844 -0.6313981446121513 -2.1885127264739084
