# total energy = -340894.08039627626 ev
CRYSTAL
PRIMVEC
9.03718105008298 0.00000000000000 0.00000000000000
0.00000000000000 9.03718105008298 0.00000000000000
0.00000000000000 0.00000000000000 13.22682795906163
PRIMCOORD
 96 1
Ni 6.480562452997971 1.8560110358171222 11.337415509992734 0.06853069788154649 0.36027660180613436 0.0718178532732505
Ni 4.672547885160032 0.4743254788844673 5.834393171078715 0.27902331415159687 -1.3401150177111243 0.9680712480667328
Ni 2.771179238198583 1.4173643472888617 4.899429023845363 -0.8399511206573277 0.2954786314941427 -0.7714214512170456
Ni 3.3521705637330785 4.1538408106728975 4.9057776434566165 -0.04468088784714241 0.5909657476287178 -0.14450268253248663
Ni 4.932475283393371 4.446717770618174 2.8271817447736534 0.6237344574193063 0.9075544216285983 0.0019949189428417257
Ni 7.096618040584666 6.132197202073183 2.7944716683566595 0.6829888722052495 0.40291012020594485 -1.734353321174684
Ni 5.034197792068515 4.586251844351668 11.644991444739016 0.9140909371955354 0.9881772747879883 0.12312910195271698
Ni 5.626413296332091 7.895550021699274 12.453666410626429 0.34065702780299395 0.13916738636250225 -0.27120253255559745
Ni 2.0247261668100367 6.338705823762566 0.45069325072299793 -0.9999035620859811 0.7553674830779765 -0.35401905093219677
Ni 2.751017287518568 1.7266437906425776 0.19000040326393144 0.8931418457476941 0.6363778572149299 -0.23906939946647862
Ni 0.657972743946673 8.8097693200819 4.550874895838901 -0.43394847756898813 1.011615965426903 -0.35342923986699776
Ni 8.615578376015492 2.4209071420951824 1.3639374372820585 0.4352075467870698 -0.4534412961862771 -0.11777297984712622
Ni 6.852849121874351 0.9176986130450215 4.80555801797201 0.35799654752270604 -1.4478457828309002 0.2605586796885061
Ni 0.4308575422749638 7.320703979204855 2.2668530297433205 0.4150364711558336 -0.7427240832823532 0.7285791592405388
Ni 7.64891631663057 3.8187782900936855 3.7169898099976706 1.072048459681347 0.7969723031029564 1.3384857096378173
Ni 7.415314226479204 3.7763487255743358 12.625721683695243 0.865051001048749 0.3338968262610249 0.093896944560477
Ni 7.9620184875224504 8.808621598102356 6.734042726347796 -0.1326331847884103 0.6547167647334337 0.8064745861664369
Ni 6.777090434043529 0.7233368662588243 0.4073039375876837 0.7388712851951662 0.34121135764456717 0.06959924835537691
Ni 1.8754138632980686 6.4966486350734645 9.49638631274008 -0.10552193039391504 -0.1850150408242362 -1.3811086865146665
Ni -0.19315166825815874 4.835759372959703 1.5043264283325983 0.5347742880388144 0.2551835314195218 -0.5282717110336063
Ni 6.303090293672948 2.0466051818688964 6.91723451749056 1.0609477217824952 0.1533778735349294 0.15020718911643163
Ni 3.4739827256407056 4.508459790809058 0.5777795114279612 0.5226857323053965 -0.8973214310466804 -0.16374918946692443
Ni 6.038553933159551 5.856283030754704 4.755388107976446 -0.9265785281395849 -0.7241175239247594 0.8037746707367707
Ni 5.494280673789511 2.8722329954840706 9.127926889992336 -0.22562227282263725 0.17883179483165976 0.8640688396411377
P 0.06240083068150285 5.430315507087071 12.528768999120913 0.3162832269443198 1.3002366934589478 -0.23207805575031001
P 4.169619728596387 6.364100302207587 12.656764400228571 -1.667388939338993 -1.411209362554789 -0.08918154136267867
P 2.2410672413635417 8.275445996928218 1.4892614477034705 0.4322417792905266 0.10465752551109073 -0.3848874583762791
P 6.298842818630542 7.812905001991191 5.723473523359623 0.309377500963422 0.33797151055103086 0.007271851071064895
P 4.845763532261708 0.9405536436455402 12.479776633802 -0.5146080975035847 1.232959151258212 0.5319705000414323
P 4.089929867056105 6.153163461856972 7.923425206312678 0.16960847646117888 -0.7262024314782461 1.1480003897276294
P 4.6180446469031216 0.989390569452263 3.657640835320041 0.39884417766668734 -0.17165456035693016 -0.14843107105261533
P 0.3370597375672365 5.372811924757653 3.5922740018536072 -0.1961468890713396 0.8151338045033317 0.1216589451650937
Ni 1.8104274951492632 1.1781049818682492 2.4689722926495197 -1.2973465163953461 -1.6608573088680623 0.08805282707487416
Ni 1.7682328973343873 6.481990327586694 4.830172587701798 0.7109205656185111 -0.15398465388099286 -0.057988403589325936
Ni 5.965723291953708 5.737335655205465 9.058776188865787 -0.04846478036960685 -0.39174381917648016 1.3036737441649549
Ni 8.726835110583696 2.2801349745727317 10.276636633412858 -0.33533227315597086 0.5652714281864072 -0.7333727239744402
Ni 2.3483837650413424 5.009679920174799 7.054925006312031 0.3153337185468569 0.5556115364991399 0.07355823300312493
Ni 0.5320369163755355 -0.1374925745588571 9.10742514130893 0.32595854525055473 0.0864433164959092 0.18500269952906204
Ni 1.5423847084306466 1.2820596742358905 11.463016961869043 0.5114469261667837 -0.30370976115468346 -0.5729335727173552
Ni 4.163456371194428 6.814395916969168 1.7623424627968554 0.009139500407422969 0.36762070087603144 -1.0655104014525134
Ni 5.670243623897339 7.929972643904642 7.988064546713338 -0.8964840227470495 -0.05732068809834 -0.9727920505811699
Ni 5.278084194131067 2.7798820434450437 4.686754333599737 -0.06725311672070353 0.9306719814826682 0.9052501989754538
Ni 0.7877638329073641 7.416046238135448 6.990695953926106 -0.6134055646894726 -0.49823839789630964 0.493812243804156
Ni 5.08669477615646 4.17328882405855 7.274980362232406 0.2814537779699604 1.8921781747373734 -1.1238425615345031
Ni 8.127082597415086 7.041482199661864 9.157805617620424 0.05228569677759382 0.16538723929097965 0.08565887292140087
Ni 4.52453693570361 0.3344082286790625 10.298276163176771 -0.2126140334884274 0.06701477545765233 0.22565929670815973
Ni 8.256964961903282 6.9319786781962724 4.821139021632885 -0.062693265264163 0.7413878809694329 0.08054366318202258
Ni 7.122970460209463 6.029200450885319 6.993195638174466 0.20850181109226676 0.6832274705786169 -0.5655267387303228
Ni 2.4854868371016305 5.163086066653172 2.720321598733388 -1.2179837608953026 -0.35520947169587214 -0.12164943208339694
Ni 2.4200214983629365 5.2347960974222945 11.462594021800992 0.608047642811669 0.5791363590939574 0.7130083013854752
Ni 1.1588467492823635 3.1444509597975623 3.6319544559306163 -0.4985186481408898 1.0921370029011062 0.44432699258983477
Ni 3.704701955071801 2.5811905832698754 2.596982153246683 -0.15021824486002516 0.540479823064024 -0.13223286402619808
Ni 1.1695919574215554 3.2988240846366526 8.361113953661162 -0.5967802974279657 0.1595050694785898 -0.07912955644331533
Ni 3.5127251203360097 2.565836412850626 7.063708242468869 -0.4922747241137071 -0.15616006426575685 -0.5279927463406068
Ni 4.0418972503531565 7.009237538063347 5.883319564976757 0.011262203177380605 0.34856214158268356 0.2723155631141181
Ni 0.8532833947317054 7.277542403029261 11.426140745038117 0.19008911291303393 -0.08725681353614005 0.7511225917586936
P 0.38495498911987724 5.636815091595513 8.091313435249466 -0.3920904038826215 -1.6686755193609006 0.402852527495132
P 8.447025914279521 1.537884192321885 8.236226439079214 -0.09879155364861696 0.5878436570599682 -1.5116633915074933
P 2.0749728928436006 3.364443055451348 10.450265279683551 -0.7398609028019452 -0.8308838682487368 -1.1009067786739362
P 4.080242009087043 6.1890139586510635 3.8716909845049297 -1.024658400433158 -0.1982186839987038 -0.2654635731892912
P 6.884840742406512 4.013963324063633 10.424644871714996 0.10616059241917847 0.21350954871950326 -0.2539864257876271
P 6.285901575522617 7.793005129558473 10.193307499107519 -0.059201964281452885 0.02063207442805479 -0.08386835667988136
P 2.269480138242953 8.443049554665354 5.939043726378835 1.4243847235944822 0.7505104120959913 -0.7927600647938219
P 6.728696330102929 3.984185812862088 1.7695243104908973 0.6645350363754362 -0.5564512587916159 -1.3681428703826182
Ni 5.3150010782762305 2.909131805267352 0.3109486106735717 -0.43787275232405876 -0.4551186838887 0.4040126092415042
Ni 1.3200067970083609 1.1778338664400105 6.943793888558913 -0.499940468189081 -0.702712318776106 0.05526791933436933
Ni 6.578588754668127 0.7475303033567477 9.178889360756452 2.328897273072964 -0.3603889590142826 0.029491838811529853
Ni 2.5464968456362684 1.4017932845270218 9.01609358328008 0.9403439573547934 0.3787162965685607 0.9612421409600413
Ni 6.526796670693603 2.0200177955396255 2.764711327798903 -1.6288697002178723 -0.38956198103381295 -2.146755182921148
Ni 4.107434886539381 6.992139191722429 10.400532769245546 0.22109764547940633 -0.29791835128388694 0.4590758687642352
Ni 8.194147517180387 7.301183668371672 0.09517507108317966 0.2552637498381539 -1.0035889813573684 -0.16725951661302807
Ni 7.702633320145588 4.032697400154925 8.23516818519099 0.2047310311959248 -0.8015972034694776 0.07590025087274024
Ni 3.1149174524814316 8.558517615552198 12.62627656660504 -0.12198933192131892 -1.2624988125885417 -0.8541906612954773
Ni 0.134707315392752 4.73607926717729 10.291860668426551 -0.2925743133631542 0.48349929191392216 -0.07296430817286789
Ni 8.475791261215642 2.4294834268084657 5.890594495634494 0.5131716221673742 0.36906643218362245 -0.2699858865396769
Ni 3.9830380908825447 2.6514998509931 11.123299389386974 -0.48694714125320654 -1.3171270414563832 0.6092216085151121
Ni 0.9681803057830591 3.5070407335239393 12.387902844916672 -0.1509461241649852 -0.9937172307696113 1.2619329127827428
Ni 3.0226839837946415 8.076438235420104 8.106378415878593 0.5162014101326337 0.8971113719184033 -0.5271383687601116
Ni 5.523534028496462 8.075742372487625 3.36215393751892 0.9808002655976271 -0.2231954085486995 0.8257509178975457
Ni 3.076780548909194 8.313103929910566 3.517344023515102 -0.20276182328469594 -0.32449944420652505 0.9184433006269601
Ni 3.8173323411430786 4.55856192194756 9.551925211932863 -0.9767446074710145 0.19812843827774265 -1.2209472143990003
Ni 7.163086506407843 6.162092196626965 11.380785845048072 0.2198565739834536 -0.9934336380909213 -0.10122844522488374
Ni 0.47689926801654625 0.13621652460994718 0.3992111420547598 0.9341663677891717 0.0041878128291024655 0.5152130780774352
Ni 4.360367506724162 0.41253646535268973 1.4740771762859177 0.38732846371760393 -0.5877022463860976 0.04598906513560467
Ni 6.038418375445432 5.580829755664231 0.5392079194524481 -0.019635000622108118 1.007075397244072 -0.48985248782545965
Ni 8.120223377080647 8.763200726691439 11.279322703465944 -1.0370266921905238 0.3511191036765824 -0.5419036999947442
Ni 0.03740760307027542 4.932628915469373 5.960047942322578 0.16904540486885725 -0.9747951970541278 -0.19253114669562324
Ni 7.822258484265425 8.987774673082459 2.724355796305579 0.1702661646498358 -1.4246030102528755 -0.8199826479552006
P 8.596220734439253 1.6675135157437269 3.5778307792732402 0.4096135003680494 0.06261613216932442 0.9108351492623991
P 1.8667291324134903 3.1021298414495084 1.4808360839119072 -0.7169770562252361 1.925274185960394 -0.3543869757945768
P 4.757289530846494 1.0610825258595047 8.056990222034452 -1.5119120171831895 -0.644550108613077 0.5080957503063637
P 8.612270767790982 1.5674538483617808 12.338910479597759 -1.4120801951955164 1.0799813413751786 0.9593868329188574
P 6.556474772904795 7.767294349780507 1.2856411090429234 -1.1888030255662883 -0.37905002575889557 1.701425717208728
P 1.638784317531371 3.10536515222649 5.854087899504065 0.13644047434964243 0.4997203817584749 0.9602062434963591
P 6.838841491415353 4.069081090624552 5.836496123083753 0.1811450163458687 -0.3286155232574276 0.9353416190441957
P 2.382978093684595 8.688454203126044 10.338750081740427 0.15700621431613607 -1.713636914562939 -0.2488629885181327
