# total energy = -340850.45991867647 ev
CRYSTAL
PRIMVEC
9.50397949066062 0.00000000000000 0.00000000000000

0.00000000000000 9.50397949066062 0.00000000000000

0.00000000000000 0.00000000000000 13.91003466155018

PRIMCOORD
 96 1
Ni 6.641152618023095 9.001579917354286 8.062895644854091 0.5986672300380335 -0.3384633625857848 -0.28903056187595383
Ni 3.50020151720507 3.262240884255366 6.442543211238751 0.7382714468276382 0.10893044185483175 -0.9623744547922716
Ni 1.5443301034386225 4.578304413599173 6.9998907699275135 -0.3151627401866314 -2.3417749003665795 0.517927648795121
Ni 8.36169600109749 1.9124477324841085 5.975528124312789 -0.02216882278755537 0.8525253577779124 1.058837617418028
Ni 7.8515128899315405 3.5492325462564125 13.412945034288864 1.39695516662862 -2.068460463674302 -0.8531017991066728
Ni 4.30261298294956 2.483351767202884 10.119091063789366 0.6095635652355631 -0.6202686103578932 -1.1167509447950446
Ni 5.460444761435487 4.438225263146035 1.2041446694661926 -0.6853149492352649 -0.6067955155721227 0.5628643614068112
Ni 8.177841522129041 0.42550360627264505 14.141775742130969 -1.3314393443139974 2.199142695383929 -0.8267449063796988
Ni 2.7145550708919752 4.302936118244723 11.00207251379103 -0.530754368246144 0.4198189801461415 -0.23609489021918695
Ni 1.1774004718018238 6.3542179798976655 10.70229704927458 0.7848757769497386 -1.5467121555815104 -0.7523091558676268
Ni 0.30840507769315384 0.8699752543713551 10.719810031874484 -0.38437478040591866 0.059897704796896836 0.8220313029541134
Ni 8.866547379893252 5.346301970408809 12.452860651667539 3.6463233338270045 -3.0470354394858363 0.32848465410651817
Ni 6.409122468137559 0.5539099693869856 5.890649035854826 -1.6768855659755186 -0.13499782836584492 -0.5452353354711384
Ni 5.436760845095896 4.976701720597282 5.740378768431004 0.5848928019617604 -1.1545042522844182 1.0351485013312043
Ni 4.773639699525176 -0.1788686914436699 9.638902511197951 1.3665942949485754 1.340844439677981 2.166775334796817
Ni 1.540737599274752 3.548994946774675 2.0075654578091036 0.5258589878270556 0.15994627078106646 -0.7466871816951592
Ni 2.1912469643548476 8.581646593331495 1.7606074076849656 0.003440393140116655 -0.19921447225306982 -1.0366698230717373
Ni 9.2349881442339 4.034695807342397 3.243917212223773 -0.7096812938947713 0.9152168232698625 1.2534127911268738
Ni 7.790421311187204 6.970731611130765 12.538657824522936 0.7918604357976878 4.942962025522048 0.16503911192294157
Ni 1.9615738013281463 0.017928306493982003 8.407738979066503 -1.0107034809149626 -1.2592209131682186 1.5550906094531927
Ni 4.515131463394816 6.5873030714821175 11.818716188491592 -0.4732840419438172 -1.09148857068383 -1.7154569984908135
Ni 6.72729668612183 2.1463501662857367 0.7804154561231629 -2.44742332903603 -0.17599612515507757 1.027361401186618
Ni 6.294418942333982 4.891317970840107 12.691334499497797 0.20931942189755562 1.2640921252175907 -0.5720136320062471
Ni 3.672546677278156 7.32920270121771 13.860959765859244 -0.10644958441450698 -0.4312387919473089 1.0034989927467233
P 8.696312103217995 5.877574411573777 9.296367693550103 0.3811537023654597 0.7823602096167365 0.6527884373624694
P 6.779283452725987 6.118965981039769 4.0776566448343115 -0.38206490132581944 0.14638190183307048 0.4957469989330236
P 2.249991060219618 4.998370793331738 8.994047063385281 0.42339435620222565 0.10030387652808533 0.4234519489130385
P 8.307456791406462 9.072146963430313 6.217924264387569 -0.37939532491345623 -0.10315651548553202 0.24046525137274075
P 5.192223458491699 2.4346058575296263 7.637026135379571 -0.4286867149494165 -0.5634634284433908 0.39751517444261864
P 7.221408568343058 3.815629085180456 7.171137269997045 0.11758117555129427 -0.12131853110653945 -1.1859388166446159
P 3.023624476736067 8.428337903735214 10.78392102483274 -1.5637194887727843 1.03477954802756 2.8574140102378403
P 7.874617063535691 1.673897852819696 12.046353599158769 2.3143707973220145 0.7852197905527186 0.504635302561589
Ni 9.378393687431364 4.192756486573427 10.604426021155211 -0.06090120636074673 0.13613631284566233 -0.7265983813650841
Ni 2.539415740913656 9.15426134431878 4.058308443837466 1.3013121859113137 -1.022498930887994 0.2054789651055429
Ni 4.715418322520228 1.856687886109961 13.625588016862551 -1.3118130854426375 1.1043178612380142 -0.9601260250777273
Ni 7.61727781685548 4.805382990285302 1.4673136570303145 1.7824823154714269 0.670863035475993 0.9242766194792855
Ni 6.836487903949099 3.661151406134027 10.392422656386362 2.1320060496364315 -0.1675089136196728 0.7962667923954996
Ni 4.239012353678076 1.2049049878077525 2.1643592566035093 -1.6510323523578403 -1.4464301334302958 -0.5489585499589965
Ni 3.9879362293364644 4.86206472264859 13.40546160101206 0.7112445246168331 -0.5726934316820911 -0.058409807397460704
Ni 3.599014389670046 7.476989578858412 9.180288941946229 -0.8830317538968857 -2.370489494692453 -2.693923216638625
Ni 7.437652608661958 2.013037849072481 8.917264414867002 -1.1484534181046482 0.3095824178853765 -0.8514812327841141
Ni 6.646170719077391 6.600228483288635 10.577232285271396 -0.2149604222334169 -2.876918913039987 -0.9153212100582108
Ni 6.052713741552095 8.974179945120321 3.440604914399825 0.7048478770618699 1.8471442744261866 -0.4471372083451202
Ni 0.44272291591312246 2.560723662435872 9.10513337467889 0.12530888321285516 -0.016833526617571006 -0.9110117840495794
Ni 2.229728576417047 0.5386551322615135 6.184846614938006 1.6491454197477728 0.1681264925990137 -1.0759115421811793
Ni 7.959905773500171 7.4599869599452795 1.3326888402799408 -1.6950421822798873 -1.2390683494797436 0.6803874300266605
Ni 9.034549221440177 4.354599749553717 5.712128190052419 0.22030908813983993 0.46010276736685274 0.809254205794103
Ni 5.181712057419634 2.7837250320153855 3.2993909888219086 0.6051942325232739 0.7110187817592722 0.8328607894694495
Ni 4.958045409291255 4.737087395254685 10.085303467088371 -1.2390524086401435 2.0971208077234724 -0.7768117689946815
Ni 7.304606402868249 3.4464089945397083 4.546884258134211 -1.3889806330635757 -0.3409115670159612 -0.7847274242973324
Ni 4.866740680449184 5.146784933604227 3.6062184059563256 0.887876997804329 0.2333733775229658 -1.2726179033004146
Ni 9.022241568286177 0.515791409332881 8.114334982252325 0.5566361211089124 -0.9684607701956676 -0.06925446342144848
Ni 4.4096658054411915 7.694725743922623 2.2985915590100525 0.26766469460566805 0.06211810948698334 0.14636416122125762
Ni 8.465137311466712 6.844024559509811 5.352650628560834 -0.7629278119237377 -0.9858275436088895 -2.3193541094692183
Ni 5.944862584801826 1.260883425705099 11.280662658117839 -1.5276335416835045 2.5101227649477806 -2.0318482117679073
Ni 0.09595977788827262 0.469528889442743 4.587487158369362 0.027348310105965806 0.7395677970415585 -0.5552240712527341
P 0.6374347407990464 5.944919608677443 2.687168404228988 -0.5463771623850655 0.3067477766500588 1.28205410901265
P 5.258276114414714 3.3158338233560682 11.847217671922893 -1.1879401633453606 -0.7356990581147718 0.810441798344301
P 3.592589699683865 9.453617683349444 0.16266535718710184 -1.311214018406058 0.5150081611554808 0.40136000211000555
P -0.19327862481208355 8.3027713296266 13.984175055496584 2.469847719477817 -0.9361129499925812 -1.3610738793509787
P 5.345978835113646 6.46007330100134 8.583200493942057 1.043219965485429 -0.7585823904708484 0.3187918522987864
P 7.779244631566273 1.2410866368867335 3.3527909971434404 -0.5291402296814887 0.11531346256304012 0.8081419465665308
P 0.23509898479165786 4.187804913374018 0.35029956871103024 0.28841709666167104 -0.564287467006583 -0.350624423428351
P 4.375080824879486 0.7292137182066666 4.5882940462093424 1.067101400088717 0.11581482767949086 -0.6159980080069972
Ni 0.6065591633462266 7.965589153103331 3.552678689139533 0.14355651656913343 -2.5949264889577375 -0.5249601301618702
Ni 8.792178742109424 7.315212843733009 7.448142150581703 -0.04736846198163455 0.17089094271802827 2.9657780380662406
Ni 0.836851035423372 8.051343558052016 5.823268674027862 1.2042707821845842 1.1163719641890708 1.2502955856541307
Ni 0.9780735145826314 8.183886052944443 11.985984322838915 1.2819749190352823 1.0846615204596675 2.36317033532322
Ni 5.140198675970464 7.6027272245938775 5.061513330802432 -0.7515288260581766 -0.748342200800079 0.3503495725004095
Ni 2.9228062646452266 6.204387746714022 3.2620146895487516 -1.4948146953812709 1.0067964325510728 -0.7951607038155144
Ni 8.984890929757047 8.036137191220819 10.42832488847482 -1.718783748871201 -0.45609158932493066 -2.0659258701779066
Ni 6.737637015567045 6.40418039891742 7.002881672203625 -0.26431891806188673 -0.2715817702718871 -0.1903289968379819
Ni 1.613889727712082 2.828840421607695 4.543406752119502 -1.3363838328034663 -0.12466507898126918 1.640876237760445
Ni 2.5730123076313336 0.7881051257501142 11.914000233453805 0.8548030980684955 -2.2525398800581464 3.1984430766682723
Ni 1.6615806956864259 1.3791889596518163 2.837980398471171 -0.2673355934010235 -0.6192584239258239 -1.3673496850573612
Ni 4.163113575231861 9.431093252480732 7.585406222375217 0.5521683151455459 0.3038925665894508 -2.5045403857639963
Ni 2.6791147321960147 2.226620775195921 8.399574110476076 0.5574437046118722 -0.0612264509106494 -0.7291548292383506
Ni 5.623495029783003 9.440673263584387 0.7698983526635358 1.7175102814754164 -1.8208750563170124 0.1825771208067049
Ni 1.497684573183924 6.736734137536443 7.9971851321847796 -0.057132226236617734 1.3355371685324549 -0.21591944371257651
Ni 4.739415870175712 8.84040193292286 12.17603729708693 -1.9494093884457009 0.8274177640770072 0.18895962729428104
Ni 0.6348277992854229 1.7866910787901042 13.474539373536556 -1.233776762063501 -0.16644319135931981 -0.2328424447201603
Ni 3.6758445580846715 5.790289865962702 7.235178883906634 0.2619013097593296 0.03796516638986364 0.16874792823309645
Ni 2.374882851800098 3.25534099530571 13.116801040251291 -0.5561926058135904 -0.4537233462030702 0.8914233203946906
Ni 1.6272238106271886 5.919601007903499 5.187121722419833 -0.7082820995543996 0.1572764372583872 -0.3384492215183978
Ni 1.9376617894860881 5.83392263478897 1.0476065277141364 0.5746258728181136 -0.03911059284821651 -0.7496791744439476
Ni 8.679860715102492 2.368296594166335 1.7328985561247425 1.764947134801141 -0.05773849236204895 0.025433352471440067
Ni 6.835366434395298 9.30663864394665 12.418378314081947 2.994663867862655 -3.423296075425053 1.138496306891936
Ni 9.18323897711148 -0.1465437571522515 2.135218155367373 0.6365452360307295 1.140285537581875 0.7984920821815925
P 0.9017765194050242 1.8884501848286248 6.881502551361152 -0.9005509937275715 1.834716590185795 0.8815405140633399
P 2.263173079466412 2.165766795933322 10.607193579918489 -2.3737707365468856 2.536138986505884 -2.2175026859483555
P 2.954216916130919 7.766328723739025 6.338454679881276 0.32263153775985076 -0.03235219107846041 0.15649122235293048
P 2.1643697109807056 5.7079949094681135 12.773236941648554 -0.6251976722283943 0.8934169537859515 -1.2871343517490348
P 6.033886358619219 6.874294733483164 13.408813654500413 -3.0796264860479803 1.2660878154913808 2.1828568137397117
P 3.01351224279332 4.316279705139099 4.453798483577034 1.0723626484876563 0.7621202284207778 0.49662528777291887
P 3.557909679329465 3.3195023593540944 1.4010462111758089 1.4172378281370561 -0.6935064839071218 -0.7915539603008626
P 6.910143743287713 8.535191142662185 10.153824306427675 -0.4192463954721231 2.9336328207922637 0.2105988028306115
