# total energy = -381174.7390049046 ev
CRYSTAL
PRIMVEC
9.18838718943646 0.00000000000000 0.00000000000000

0.00000000000000 9.18838718943646 0.00000000000000

0.00000000000000 0.00000000000000 13.44813342815215

PRIMCOORD
 96 1
Ni 3.7019551716822128 3.887018473815154 9.390078504496849 0.5879045922048907 -0.12296557979165919 -0.22015765016364022
Ni 3.8579372290283627 2.2855469421803414 1.561166672153846 0.3116866087125729 -0.5947262431124145 -0.08203361746398775
Ni 2.850972711673158 2.222165448803 10.71423532873509 0.3305500212759791 -0.21742071084845135 1.3230634615454762
Ni 2.7644272947231463 2.589103682787361 4.063837955151031 -0.4374042973280725 -1.7355887362436817 -1.2269188586014033
Ni 3.2103764683351907 8.905375471125799 10.511249158961986 -1.2483258635222694 -0.5244736774437547 1.4592900201120995
Ni 1.440242905323968 0.4643608634394602 4.009385736239347 0.11457015663911237 0.1086404214182387 2.0151879775034067
Ni 4.897107042743031 2.9357723350972638 4.52414030806211 -0.6924939834822074 -1.1857948348675835 0.3996291354618279
Ni 4.369188268896244 8.252972430494983 8.530809957110627 -0.26013907565258426 -1.2723697918453505 -0.10181080009091499
Ni 8.709855784611383 4.339280069281393 2.509811578518138 -0.9717217003351266 0.5653668161136909 -0.7062344729967515
Ni 8.212424078759089 1.058309223790778 2.7058715421868866 2.1039134051652733 -0.35371463231790046 -1.084174810631236
Ni 1.6236155442528748 7.914628456787557 0.6095070560219257 1.350579407577558 -0.011152417072393696 -0.17833634325247996
Ni 5.022326380485335 0.7281557782359398 7.209194640710622 0.6296631641989155 1.4570968691155228 -1.0025415139294604
Ni 6.808254780712511 9.277789983749315 13.159119008347414 -0.3090316875882291 -1.3626322249770337 0.6304694621502949
Ni 0.40114108567293966 4.266710188925602 6.666145350026424 -0.2587900178238575 1.0795874483708696 0.014971019487535507
Ni 7.470241308961849 2.0804897099822948 12.158645167553786 1.670606674945342 1.2217103178172701 0.6730559293622538
Ni 1.1009433393707815 7.493478739630346 10.084459609877404 1.417494167122236 0.20291608947437312 -0.14019788450954562
Ni 0.9460914536229804 0.9135801839771343 11.335108419449357 -1.1822670242199833 -0.8010287325605171 -0.24545781949132564
Ni 2.454861349032221 4.182498622268117 5.539877897304338 1.5629324740951147 -0.441668214810749 1.3745135497956522
Ni 2.0688755888415353 6.3775123875498005 6.27425329468599 -0.3870289301993141 -0.448254352668699 -0.23430103154355778
Ni 8.367615934825093 5.262189222557746 8.77443636248941 -0.645345865041495 -0.946539287532228 -0.18200659301521557
Ni 3.5426285414759064 6.432458941680926 10.11415280123696 0.3944493910331013 0.4802846416313664 0.9131347439298532
Ni 4.555519568432211 8.720100836092353 1.0533429006289265 -1.0858331721702654 -0.7130478963741591 -1.8777033781599664
Ni 8.214160683898015 4.7615691464239305 0.10549738393176011 -1.2102514252480512 -0.40579361240132694 0.17688187019414053
Ni 8.21081611103786 2.950455377488825 7.967628910556646 -0.6195322464125008 -0.5258957546022621 1.3509740719128152
P 2.3193969598089477 7.405922600112705 8.297255861537618 -0.12980317153878287 0.3866072692808632 0.17572718776440704
Ni 8.093094497069972 6.143906837009713 5.544853408853168 -1.1072818289623447 -2.1977244748801636 0.8039986138221186
P 7.465573608376797 8.372467403149713 2.0634948694269557 -1.36232035016357 -0.1861905491895761 -0.6936013576137732
Ni 6.178142766891414 5.093554756342272 6.096307317106555 -0.6960778441787238 -0.33314066482129084 0.7637734477534845
P 5.871691684386183 6.5962327511848 8.942039891685905 0.3031919409780004 0.3193410399340371 -0.680792378774563
P 2.139497531157894 3.2031543961701296 7.764871531619304 0.2115583385304034 -0.029142683002227228 -0.12251383696622127
P 4.1018429613712915 6.127707710766707 5.571924234569075 0.879735342533801 -0.5596021457157717 -0.6787298398185795
Ni 6.382115769426004 5.570680126972193 1.3270162502659366 -1.1101352392507398 0.17535874868139475 1.101856287071399
Ni 2.0303486822408985 3.0276837700426893 13.340507874527674 1.3108049558930972 -0.20437776162156412 -1.7620800976659914
Ni 7.814704748396923 6.478143601737774 3.077108103599766 -0.15536867871271304 -0.10228311174164322 0.8084983014646849
Ni 5.20624113424597 7.4124096013194904 3.1227771433987512 1.2368371461563796 -0.05837484039446721 0.4715369773457234
Ni 6.567261767041751 2.6125983882912553 6.187446008707093 0.3866455787179664 -0.32562738716338113 -0.21228544650441503
Ni 2.353770715495325 7.002717802724406 12.100657257332795 -0.394212849542263 0.14492562900251812 -0.3615760373438483
Ni 5.857826408435703 0.8367073819993364 2.2788936311692463 1.6924872770685175 0.22696104623871877 0.6521472042340446
Ni 2.6531926819620426 0.8331882297865905 12.940465719937357 0.9906023392897134 -1.3541303581536097 0.2866240093169903
Ni 7.479190797878858 0.4794243050519295 10.41539039297062 0.31934978168478545 1.2606000529039323 1.6181960225541099
Ni 6.8498046666290575 6.578903453343446 12.589429827296597 0.5207527769487418 0.5381159508175377 -0.21949533398929294
Ni 6.095713747307747 4.319378023086072 8.621974376194704 0.06363274635929686 1.0343074934871477 -0.42227181256200824
Ni 1.0078190373442009 5.176636151401408 4.174556180563946 -0.712477882803302 1.1976339935943567 -0.319206828349018
Ni 1.31860703850326 5.238841531245507 0.24016238348790875 0.46771940337184614 1.2121617548968866 0.34258124140890034
Ni 0.46809410506880406 2.7777780210028333 3.9294100159789265 -0.17922414517407195 -1.1723770187997808 0.5641627685032606
Ni 2.7141484411770738 7.449089642137459 3.8050286591290576 -1.2247221080604005 -0.9479783339715996 0.39522997795286774
Ni 7.2577782368591715 8.426550248904864 4.425605883782619 -1.139462270349631 -1.5528843458304933 -0.774739202736369
Ni 1.883509069938305 8.663619821335827 6.593444994575539 -1.0472653391993965 1.2908028017395574 0.2040761712207453
Ni 0.6317209003810239 2.895269925296261 9.89988329225432 2.3912503813888883 -1.0989378278730235 -1.1678850444666982
Ni 6.813308393550658 -0.25453393956090087 8.335112934727528 0.5704601714761982 -0.4120866444988903 0.0937071971471741
Ni 0.44710874804872436 8.153600025323058 2.5282894247317986 -0.22777839993369156 0.5055899531653744 1.5473184217069418
Ni 6.2017569214260275 7.447297906676662 6.594225088630009 -0.43691115974173783 -0.12279614409333044 0.04161767554078639
Ni 8.02467776762844 3.8310979506643132 10.403153299192722 -2.6459034942262365 -0.20334700636420464 1.4700626852475716
Ni 3.873566675278705 0.24902182621252927 3.1462718489026456 -1.743992644036661 0.9183761948344505 1.0767101268230748
Ni 0.01983680864777356 6.973563050841787 7.841579861470189 1.3084444260807209 2.3739280880603566 -1.8721420820221049
Ni 1.667021484339068 1.0211973287848226 1.8400672951428958 0.8955723095660576 0.8568949476005179 -0.44589999350390946
P 0.11209005158879727 7.997176925401942 12.122430059116926 0.11445522832780287 -0.09515215712381678 0.046109392763552845
Ni 5.879235350095489 8.06418783163577 10.705749853360492 -0.7837640319427985 -0.8747155207217064 -0.2749774262169974
P 1.4044265728819738 6.2364247054957165 2.2948832621891433 0.04592787288036606 -0.8108557459532679 -0.3910226247397395
Ni 3.96228055155563 8.48018286369807 5.411353496765887 0.3971755317150128 -0.4595936889409182 0.7572734418514377
P 5.540680043487558 0.5965734825110608 4.812697006926812 0.31471151158182575 1.2558445404968177 -0.10866330423637416
P 4.681611802937468 8.701264642786532 12.326679632099566 -1.05246256712962 0.2438076854824124 0.3423814666932684
P 6.221851923747896 2.217709081118452 8.417643945406654 -0.5568063281381894 -1.168717824780639 0.19811763964446524
Ni 2.5242244823325324 1.1013200632368978 8.392522895407573 -0.3131585652724091 -0.2372531721933462 1.862143061827864
Ni 4.490530107333641 6.365227514159614 12.929922964718283 0.38801469115135107 0.841059523230158 -0.47679694019308205
Ni 5.714404876089093 5.05357608459904 3.8791807797225366 3.4123272351183753 1.716696527324869 0.2528962780472419
Ni 3.6163377818170246 4.647256424025046 0.8238932575191914 1.3299565891208838 -1.4173874663410428 -0.8287452246391791
Ni 5.8815967655489505 2.960829066387494 10.649173279379392 -0.8149476566344547 0.22506254366442532 -0.013944635105550177
Ni 8.206322989805399 1.0275740693478663 5.129830508133188 0.7697875151580484 2.3926719443267634 0.10856071722023883
Ni 4.446030749197013 3.7579859554767947 6.789908328432642 -0.6640061604551597 -0.6722270057030552 0.9917145985172855
Ni 6.860261051010533 2.7692971398217248 1.1730069396040592 0.48676227893591006 -0.2901461635376358 -0.9169093804809371
Ni 4.846717928553217 1.0396108562896345 9.875408185859825 1.3655403997627644 0.6314603653086543 -1.1322549539679145
Ni 2.0183762140079793 4.749440475612378 11.03247143637888 0.7246194032618424 -0.9225748062968305 1.6973775152812833
Ni 0.3671762132071029 7.457294871709213 4.953108423699283 1.954690691449298 3.0217026171480024 -0.7585435668131129
Ni 5.869376210867613 4.1863669331860445 12.948091162290773 0.02069172402139662 -0.23380352308184896 -0.39350065396658684
Ni 2.0029029703362715 3.7700778727404334 2.248299059047105 -1.600025008072038 -0.17743337182223637 -0.47853269193726616
Ni -0.17666879178943043 0.5547948057587511 8.750928793243748 0.9904748125729136 -0.2226287374119521 -0.8310178227234398
Ni 0.5558680093578339 1.7447919917246604 6.7245237666939985 1.4836432521454836 -0.24886118874591978 -0.12843765864982395
Ni 9.134304132693856 0.3637342434449759 0.30199655249807916 -0.39040118910565663 0.17901614292832396 -0.6312842447421063
Ni 3.6512077104002385 4.988467174469751 3.355161557309403 -1.977705921397549 0.01437298089222041 0.9064439621732389
Ni 9.036227290085892 5.708358917457272 11.29331228476179 -0.003912961901161003 1.0260447392577232 1.0768119425082616
Ni 8.094206291894363 7.332240924932522 9.967043969195897 -2.369332241159558 0.6193489267571011 -0.012163117725095183
Ni 5.169129239240014 1.73827742535694 12.731966517977183 -1.1192174040576661 0.12043458583968934 -0.05339769889484997
Ni 8.55448016080581 7.011970508411704 0.7290047851927485 -0.21297707325480092 0.26276879996594743 -0.6834398436997391
Ni 0.13229715223180233 2.69959403620321 0.954002654811425 -1.1472642828925532 -0.595239178193091 0.10298219469119684
Ni 3.539421794420428 6.656609642020189 1.7457558535186997 -0.4513916127461 1.2509293625833875 -1.119932942067452
Ni 6.955131146563018 2.674188146207799 3.5806730577601744 0.9389889859887958 1.1062140498194626 1.1134722740437728
Ni 1.710758206356485 5.230562794577925 8.767416434837877 -1.9302294730831402 -0.39887785911810014 -0.38735880273490714
P 5.380048662330312 3.6640163218481967 2.3605103973440174 -1.1124664584870774 0.15678407100300093 -0.9519375757296638
Ni 3.1710042301325365 1.6677749320713007 6.32727947593862 -0.650038642531474 0.6300508865556375 -2.0134285716101386
P 8.165802203230438 3.985701749963696 4.95957704813211 -0.6625234052620461 0.5293695720834753 0.16267343990424243
Ni 5.825198446275231 5.481479266185411 10.830520797818247 -0.2710783482729074 -0.47057075677771215 -0.40658371240279007
P 0.16981241742611178 3.7244024010705634 12.197726133889223 1.064716187685992 -1.7466650486625015 -0.851400757255166
P 8.447316003476159 8.706299878850722 6.564706476623043 0.017697160169446943 -0.5496308934356727 1.1180832904532227
P 4.1238399597976985 4.080498338420355 11.743474333803452 -0.8891062422257396 -0.09046992115679903 -0.507720626355132
Ni 3.745600009829845 5.762294749020769 7.9418756995334485 2.7503427330789343 0.42602536606716956 -2.118948702231841
