# total energy = -340895.18599997286 ev
CRYSTAL
PRIMVEC
9.02790005792351 0.00000000000000 0.00000000000000

0.00000000000000 9.02790005792351 0.00000000000000

0.00000000000000 0.00000000000000 13.21324428890065

PRIMCOORD
 96 1
Ni 6.368641939244726 1.7875332737190903 11.427791463873783 0.039845671242028154 0.3102321356542334 0.5995123516471481
Ni 4.587193470281606 0.33003926828975805 6.187194686443765 -0.23231228324830314 -0.3220283569582132 -1.8686312406553691
Ni 2.845377483334367 1.6631920038319026 4.84003787206266 -0.11725284567759806 -0.5253077433092759 0.41165649894000717
Ni 3.347978745017334 4.6236932709171885 4.935662294103761 0.0363955079098986 -0.743065782892488 -0.22608224317819126
Ni 5.084757163635446 4.461732740765723 2.88047434827399 -0.0757873794439598 1.0787155872888776 -1.4598222384664858
Ni 7.363823493353797 6.0138996275517655 2.4898903698723145 0.023174381233934283 0.9763507144667057 -0.031015731655224008
Ni 4.818479246310056 4.63741567926893 11.159536436397714 0.9967747866490125 0.46583375631335905 0.9058029861551303
Ni 5.726785316492284 7.600047530808829 12.362562823584383 -1.1800759301059354 0.5512766565692118 0.2990732908239365
Ni 1.836013097961753 6.589879662315619 0.3975679620206927 -0.00787451765207031 -0.9297502409993471 0.36589034844848595
Ni 2.6778647945405845 1.6883256780761435 0.6192308991924856 0.2133529685369809 -0.830404357509157 -0.7216806323484926
Ni 0.4973018842471305 0.003649077273535266 4.669771673698298 -0.041004724547135836 -0.14264223228498016 0.8133137205754574
Ni 8.923257839826123 2.205452831231447 1.3137057356536679 -0.4006241523852455 0.2948661947211244 0.4614122302068957
Ni 6.885931594604194 0.6811198636488596 4.79798049604462 -0.1985958648324644 -0.20216018514495504 -0.06204946103257701
Ni 0.8054503000557696 7.366486723922063 2.4645743320433993 -0.48150257319886747 1.0334202057861879 0.10960998442035963
Ni 7.3871786712524505 4.025513629484301 3.771086636792681 1.461932085720637 -1.1743999627670805 0.5423125053973885
Ni 7.673047132079996 3.661806612861552 12.63295836620532 -0.3412005590112898 0.27963857913809265 -0.23469209633438937
Ni 7.981521455086989 8.755961820637895 6.979341472718531 -0.3947630656187782 0.3482073293464261 -0.1769680021500436
Ni 6.919912611075216 0.7490150901291894 0.43347462961107325 -0.5546409450557545 -0.0730902922277709 -1.4927336444825259
Ni 1.830325520815966 6.624095404192658 9.139244936122429 -0.2648087132141117 -0.668517675172268 0.39887785911810014
Ni 0.1973246209379392 4.665546616389999 1.3065114019592583 -0.6354671724752023 0.7826085781821167 0.48911869498322863
Ni 6.196218072725057 2.144974927581242 6.659752901736651 1.2506295719547815 -0.2929592075063987 1.4333786995629765
Ni 3.2367279304656886 4.401480534621303 0.5081723789157693 0.2500125287415436 -0.32798560298291257 0.12473064211188195
Ni 5.9174094298784725 5.6938786201488005 4.7493815035189035 -0.06360960643084529 0.7476462031743188 0.3315005581147065
Ni 5.346512102944901 2.8392023995760836 9.5176060404008 0.024608285466983425 -0.149796069720942 -1.5493606489479512
P 0.33449182868388866 5.284851544364382 12.382580386767486 -0.2602290642632293 0.8712051935756029 0.2376735475602165
P 3.9404708093044345 6.12283929964417 12.650149293825969 0.3556856400013423 0.23852741092007956 -0.9976271073469786
P 2.651566521166492 8.43626581764326 1.5141449821714428 -1.8690922394521874 0.6480576075457033 -0.31505141141974774
P 6.185899182760557 7.666294262706903 5.766299533015136 0.3087781768165263 0.7773588997474031 0.22329208202756384
P 4.499704089139026 1.153530924167974 12.683063212489637 1.0509777550539772 -0.7840656223436173 -0.915481904005791
P 3.9578585451501267 6.122270541929591 8.180742837863548 -0.3787677186317864 0.31936186586964355 0.23793528586203538
P 4.8678889442765545 1.1246416434274673 3.8481596266482607 0.17912335793014958 -0.616779623368028 -0.10679256957622252
P 0.21941228164410292 5.615110190629763 3.637658785322581 -1.1506722801328377 -0.5010015624637437 -0.2055535270972202
Ni 1.6009446317363418 1.0313112108351674 2.7954333336741697 0.027844275905777854 0.1005941540749945 -0.8827263068413249
Ni 1.6794151405477433 6.759188903255453 4.831964220885711 0.599573801012703 -0.20827298291091229 -0.13519066110294137
Ni 5.883049241597732 5.553819775958731 9.04262925063592 0.05724921143045625 0.47129272254540117 1.3789404752187542
Ni 8.625102406783629 2.310221613416941 10.164090364811864 -0.4529193622445361 0.32138429561631104 0.7812844600540545
Ni 2.3419817664310356 5.251168448600996 7.0042088239059455 -1.0491211614612124 -0.19931603082794058 0.4586909746209907
Ni 0.3857341903973626 8.93029057410639 9.142045390774213 0.7201251149359146 0.24352872078941284 0.3868993465999853
Ni 1.4838527657349752 1.1316472940070401 11.553330736121678 0.07169778275561846 -0.5896758251727006 -0.7539099246958435
Ni 4.32928441647073 6.804951329528461 1.5707508194123965 -1.0068159729350983 0.41947496654316146 0.33364665792343184
Ni 5.6186581554207065 7.993591757696382 7.918961717643422 -0.5417941710000734 -0.5243245534604002 0.8524333122847383
Ni 5.097892758472145 3.0592484398164315 4.7623437626711596 0.7453725766487936 -0.4036169164649823 0.2130547205702718
Ni 0.9571650662346105 7.344521842659046 7.069640336413124 -1.1809976705892564 0.35675084804106305 -0.5112474085614679
Ni 5.2733229157688735 4.644069241739478 6.927452713348488 -1.598001806994422 -0.16214610664586265 0.23864465322423417
Ni 7.928933936239035 7.077774474521623 9.179518399054743 0.7555582589325439 0.2080575244659965 0.2560031991073397
Ni 4.488554632353237 0.362435888270167 10.354770451179485 0.3103825451891687 -0.4519981359818474 0.13520583061159294
Ni 8.041195875616598 7.17358757967756 4.710838689060951 0.1310342157324066 0.17356231890260432 -0.09165622815541634
Ni 7.25038792694615 6.227987253639384 7.094626855883593 0.10468220810143906 -0.5213346175941409 -1.3337492233940964
Ni 2.1750017237509063 5.386406394067494 2.799384845605457 0.8380536465242987 -0.8926751905239206 -1.2509856697426198
Ni 2.405059705347886 5.183721005972145 11.290400364202094 -0.18219248377377656 -0.589464994713475 0.6710620388606766
Ni 1.0769201628042426 3.3071365243704425 3.8297535436564654 -0.3148012430821546 0.4696932392687652 0.5971199401555717
Ni 3.692709115353663 2.6258821450081347 2.702914509312673 0.0435917685480217 -0.1027443676487779 -0.22015970704616922
Ni 0.9494552394369876 3.226553486904891 8.182672100143 1.168302591620091 1.2888346222695932 -0.3591908249411233
Ni 3.7938847932470567 2.6832454230785037 6.966299768044238 -0.6849439390490913 0.4444946285159506 0.022391737431638855
Ni 3.9820533177703012 6.86115903636921 5.998482682326589 0.2903510804595903 0.5959891689852381 -0.044255627384265715
Ni 0.8380726175419636 7.21282283408326 11.43170235025403 -0.19066246891800068 0.716310626285831 -0.44377240563794546
P 0.11966662314736433 5.5140247917386835 7.98046970471003 1.2925082144664386 0.8012850715456974 0.4573285470558253
P 8.485287315899807 1.7136128266243185 8.064082505493243 -1.8379240413794995 -1.6966655768159231 -0.22825353979789725
P 1.7189122040601552 3.073647940685528 10.301019235991703 1.1112930070042666 -0.02034719619778431 0.561250222842156
P 3.9309463745602984 6.283915095572958 3.7274168777933125 0.731732617267856 -0.1981317807118523 0.18638543880920158
P 6.9658736511533155 3.9672475613907916 10.371234632831506 -0.10879828715234166 0.44855491462825337 0.6217415953589938
P 6.133004715304736 7.722429746345801 10.272782672437925 -0.21006529892464468 -0.4005012536541361 -1.1999431013435078
P 2.360028538993621 8.641921384914744 5.7916164736340745 0.38037440099727393 0.05831467658049312 -0.12627176134675672
P 6.82667245748523 3.8387173457962303 1.594349750617298 0.742529964993676 1.0181213706455887 -0.7119436075663867
Ni 5.131079319722803 2.9253556514844137 0.5095067025699714 0.3204453287418094 0.10755978675955025 0.007270051298851996
Ni 1.2228290863442646 1.06908394540338 7.049239087470187 1.7447454630422854 -0.4222355600074341 -0.4907523739319096
Ni 6.936650338104246 0.6035999927318253 9.30884938939983 -0.8698957307355599 0.6691913042005249 -1.2203697446289756
Ni 2.745348348770362 1.5507404785494798 9.020880136188435 -0.2096125276579422 0.14263117654138663 0.5813215396707344
Ni 6.600695086792847 1.8898735507423354 2.472647080430325 -0.6796947748350101 0.8193889802352599 1.1984611174813424
Ni 3.8401437540327934 6.93776076983271 10.35560282358082 1.4162700649071478 0.41642255287008284 0.2403323253393022
Ni 8.228272024211844 6.973908482359269 0.2184345600490414 0.0414271567965351 0.46210977049455254 0.4835882520833026
Ni 7.668009563750871 3.921900418528427 8.06675205559167 -0.7071724114299885 -0.6896233468026317 0.7519895677446792
Ni 3.0714812446299895 8.279839390333649 12.587108369300065 0.9865438529496237 1.0483734846619106 -1.029137519250434
Ni 0.35536072285881226 4.77484740449166 10.163945015618138 -1.3455135630188764 0.24297310539625894 -0.4661389462586037
Ni 8.634726148430312 2.2589160564018473 5.909940648017028 -0.4896588837574148 1.1818661892371387 -1.0871783733442502
Ni 3.7004460258519796 2.5478540033080725 11.233451466752348 -0.8960975859419082 0.38993890475725745 0.6772504270595755
Ni 1.1477079285187155 3.215999871534375 12.565861206105447 -0.009897975840002309 0.902561339289381 -0.02000961035270747
Ni 2.937877349105377 8.483653265957923 7.926942381447987 1.095599764638726 -0.7536821249557536 0.4184889484808083
Ni 5.690393850659477 7.955800967327707 3.451458343049783 0.5286643184863347 -0.44211198721638695 0.49760436385673656
Ni 3.30314619246816 8.362715514457976 3.5610218430481786 -0.46578156291918493 0.422267441686634 1.1389213102444966
Ni 3.296275960392058 4.082380373041943 9.075821228626715 0.1346404450264262 0.6721244186869199 -0.008000501706973319
Ni 7.374061132216214 6.033472115253458 11.33561569972108 -0.1657201971503662 -1.2342729849736291 -0.10848692655950994
Ni 0.6097913267105252 9.070782757507567 0.49571568217647205 0.38189418007591003 -0.80556518697829 -0.25427464645200726
Ni 4.7707126261856745 0.33799014002355937 1.6008642834242823 -0.9607914265758679 0.37435262028322625 -0.09206194823426725
Ni 6.032740855334714 5.6080864842497276 0.49142472119648367 0.046093709034269 -1.2919957936063942 -1.0192171748129286
Ni 7.834502099818504 8.6565104716887 11.275165782561592 0.9161205660310544 -0.009073165945861793 1.1448610727676993
Ni 0.07762459455971865 4.808756197760829 5.716154963969801 0.1161128185358839 0.12793577931274094 0.5110203801523263
Ni 7.91069757777159 8.985532295622379 2.367112732305207 1.2382062585897644 -1.4904690168180654 1.117903313231933
P 8.627070489034077 1.6760387058611967 3.62160537313109 -1.0086774516238692 -0.15408312713207012 0.08094758348866057
P 1.8516494211625525 3.3158303922932886 1.8031452215892647 -0.18458078150029503 -0.3752100831875151 -0.5905901094568538
P 4.870922318754308 1.1426884159900526 8.157223352180683 -0.18844797776518513 -0.22796171958909128 1.1017105055221543
P 8.493231868103447 1.521137993690692 12.354528895168453 -0.10118396514019348 -0.14562985415839436 0.21243919847345996
P 6.351669486809678 7.8006655297511855 1.2572028164753521 1.0878789989557005 -0.8621824212517022 0.7342582119031871
P 1.851730672264635 3.3129685479199327 6.0602678259303016 -0.19954048813392086 -0.795703720803178 -0.3130973730171705
P 7.021729269885038 4.05312997629218 5.970219937862143 -0.2403230693679216 -0.1521378304802412 -1.159106784053436
P 2.2846094604604352 8.613519610786733 10.273627683899587 0.36171847645898353 -0.7421399286441089 -0.520321088727962
