# total energy = -381171.2810723126 ev
CRYSTAL
PRIMVEC
9.21791348816289 0.00000000000000 0.00000000000000
0.00000000000000 9.21791348816289 0.00000000000000
0.00000000000000 0.00000000000000 13.49134815090251
PRIMCOORD
 96 1
Ni 5.888486091698186 8.038426142006223 8.230005725008654 -1.8185078416364167 1.2900324992324363 -1.0306153893475412
Ni 2.425408176718761 6.363245507527993 6.836794611317989 0.6571999361666035 -3.975169227927683 -0.3683015289931399
Ni 2.1383162614108366 1.3909094006949225 11.430666235481127 -0.574416585020785 2.175781137839853 -1.9718666890079526
Ni 4.549132481092114 3.9098240917461156 12.650445994227097 0.13772165505491119 -0.15724018470381307 0.3955719346733187
Ni 3.6048494242886524 8.4196790435036 6.861335462373513 1.340606612635562 -0.6720120614787717 0.7845140227349457
Ni 0.49814249695235063 1.3543972454040352 7.762733098506607 -1.9652540687874414 0.7952033841279917 0.13829758216303922
Ni 5.128395382034971 7.3844520523149075 1.7966699687592969 0.38860964442287266 -2.4824569236013954 -1.7802981633359145
Ni 7.172974681276397 6.885891983881952 9.522678899964998 -0.05621022864298061 -1.2438014932893546 0.02368860186619146
Ni 6.836345698931555 7.568837975638215 3.9638797799705086 0.9861743854253467 -0.47759243951118396 -0.5278546781008457
Ni 5.43902063045515 3.3889658906071114 1.4145810025093633 1.7753109945339682 0.7657064031101394 -0.6610301085459712
Ni 4.766426355535963 1.4079164510639424 6.922113774898246 1.0388436907946044 -1.4784627363858085 -0.01796686889106583
Ni 8.845353070056966 3.141197594201213 6.366391581398426 -2.085289876526815 -0.38990213798205103 0.10123615853436758
Ni 0.5091265626540981 7.711475968814481 2.9378089422406513 0.5766609009702715 -0.6353188198227963 0.7925998850668736
Ni 4.285490937675131 2.518472231204194 3.3573088103456885 1.4523701530638147 1.1572895283390392 -2.126068086885442
Ni 0.6707663626762712 4.921222776591221 5.346108671542122 2.616165857952488 0.5122460250293114 -1.0933017126331688
Ni 8.25186692861579 8.619274524067494 8.253440426446682 0.3945964581339269 -0.9188096828274434 0.25437723346814256
Ni 4.290505482607784 7.175832234454932 9.993189779472267 0.45561490679882827 0.2804381922212525 -0.4236998032577864
Ni 3.8718278523850858 3.525759726637601 10.366266391713642 0.18375262917204482 0.897076662025726 -0.5654022973373166
Ni 2.009818547511576 3.488187511296612 3.5723876201805007 0.10203062941120492 1.3614932262765842 -0.18263934150320804
Ni 0.06028607594494647 0.17383325597238414 5.403298450349424 0.5214030089382311 1.2414916142092554 0.8184309871973648
Ni 6.336181713553229 5.605975479389396 13.214505790468802 0.22931077741781797 0.6915478175188541 0.7766233071329592
Ni 8.979879299371587 2.7121498113144784 3.910439848366522 -1.9339298047528632 0.17936504162731046 -0.9909826054472676
Ni 6.837857436742135 1.1267147824691903 11.954278749167699 0.5590321321449148 -0.12466970696695948 0.9183851936955152
Ni 4.137856835393167 3.57161884619634 7.522209160303968 -0.18573417837844786 -0.0802217610662296 0.550157455363104
P 4.9962934639653644 2.0685090026332826 9.032349506477567 -0.5294099384031077 0.2611508047465502 0.5431496565867032
Ni 8.417024284421606 5.618935865741071 11.190830875415378 -0.7947357004629539 0.004598675114275951 1.4580204093710567
P 0.23746727809295554 2.670558585696583 9.89320583733804 1.0661837733704542 -0.2432474421035682 0.2173628610273224
Ni 7.779319812020978 1.3738654786719862 9.354577342593943 1.3304237585652894 1.721686010119661 -0.2394445234177102
P 9.22178500280475 7.307924934611058 4.904280251616555 -0.2636344904003524 -1.6046830756693395 1.7173498446381519
P 5.857375633706078 -0.03290518574649859 5.221462201894448 -0.1796488914163164 -0.8068381401534427 0.06599173350977668
P 3.5993647657685623 4.984135036086375 5.092390211985436 -0.5040262082226803 1.0109816742770137 -0.5519055484024624
Ni 5.193722734861661 5.093136862977246 8.856017274160987 0.9767556632146083 0.13228300053784317 -0.8586219575939535
Ni 7.898968328980261 4.172147473535581 9.45224113590547 1.15114099223914 1.1991365462818122 -1.8542837136844454
Ni 6.692721389013021 2.857073847033573 7.746867225826305 -0.9412911517594112 1.4866316453498463 0.07428508386682045
Ni 4.4624933123016435 1.7411163695945426 11.60363853833456 1.3619431693298092 -1.5829300002629643 -0.44946559936798075
Ni 3.1138756986490317 6.0093605911501955 0.5964902594440287 0.020724634141861084 -0.29465073627620864 0.6833981918285262
Ni 8.37122969025722 4.243042446103674 0.5874096928757243 -0.6126620016552288 -0.10934258969158586 0.5038202628594614
Ni 5.391612901431914 0.0318008797116972 2.743911053998215 0.6263161021035536 1.5791131976200352 2.5496750733191056
Ni 9.006878567951999 5.064081999690987 2.8827097862104183 0.8209126159686377 -0.3883134533386925 0.5461107960975563
Ni 8.273787126869195 8.688519490122818 10.674637860288168 0.4841562087716306 -0.5850653229838826 0.8106896526890489
Ni 2.448443742503141 1.0120900283560408 6.758585224404197 -0.8746563853489969 0.6273522566775519 -0.9004250096726685
Ni 2.406649722788704 6.064354662966766 3.072694670180958 -1.5512285553946252 -1.3952078449202099 0.03103398648766913
Ni 6.556213308300384 3.1159589470953177 10.80400666701121 -1.4285285705595268 -0.2942496441830481 0.3589792231509495
Ni 1.1530964508464991 5.585345789023073 12.547102122629724 -0.38665432046871473 1.4407359112589961 1.090774832446257
Ni 4.666716185432068 7.1375318039490905 4.298491882846114 0.3978615020384438 -0.5636644887106035 -0.4150521548851175
Ni 2.8016926228508785 5.037156474418408 8.870062608929159 0.2846234339471937 1.457815235338786 -1.1377823115440469
Ni 7.01807686317287 1.9607608119755744 2.365896405506063 -0.23499137274236304 0.6329575186794711 0.9023425384103556
Ni 0.2629926023080518 6.4172071730349 9.346833373480115 1.8567152059440732 1.3774098975068405 0.8471792629746506
Ni 3.8319695945012695 0.716335117960417 4.463707311506847 -0.4620686328439719 -3.3029288524881895 1.41172332607673
Ni 2.2070911138787266 3.664941002259189 12.733107633351317 0.6183652226875931 -0.6900352375290696 -1.0747419473531103
Ni 1.8120666496435105 3.386596886842972 6.980571938600279 0.26810126792245437 1.1873205274834906 0.9178223792135095
Ni 8.024064632805718 0.32145814034086745 3.5357178385691195 -0.39139903424255174 0.12391225997564463 -0.16680520268442886
Ni 3.5352173058672025 0.21103859835690317 9.649754289814425 1.081455354817544 0.06358415250954856 -0.9890452792152385
Ni 3.9226093377416875 8.410663924120996 13.384955150402995 -0.3128209794273322 -0.40416661832086526 -0.011971056318947125
Ni 3.1903106372180896 1.6005892786049998 13.412100062016375 -0.640879087519393 -0.7468095662056364 -0.4111759597591629
Ni 2.414807576217746 8.408986263867792 11.351027150186718 -0.22217030971829482 -2.056501748650529 1.0966320625579822
P 5.292538767358079 7.29445756301803 12.123770367891407 -0.6470019125876793 -0.43206514450334615 -0.16407289135493033
Ni 1.447092583350302 7.988400525554911 0.747288871423381 1.823459272104421 -0.7689171967379532 -1.8274637652781238
P -0.03564290604980421 7.355397189028648 12.395391859007285 1.1296892501232672 0.9917392811076339 -0.7525328418426588
Ni 0.5953924059486626 0.4245411449867814 12.638694998123885 -1.4325608316473715 -0.6532211540245136 0.8265808699980086
P 1.2735008367110716 2.1385835809017317 5.205164930863321 0.95969613662916 -0.5407371904904688 0.8186204775003515
P 1.2995322243761729 4.539997528834283 1.1885955574460287 -0.05437497520645474 1.4132323065220886 0.47756724270020334
P 7.424881820834431 8.024212119421383 1.8532522870683237 -0.38978001058189 -0.05946627368643307 0.02823662624819008
Ni 6.207831486269634 2.1199449598469036 4.943176159333149 0.1575237773825029 -0.37853709067821906 -0.33295117451830397
Ni 4.290256598943848 4.95567011926278 2.682039496934856 1.0834821554395857 0.7161666445087989 1.1950796026036192
Ni 2.378922239043441 2.1134555487575866 9.094652461891751 -0.6739319042093038 1.3363984880914854 -0.33565031861702194
Ni 7.2408185244828935 0.8609208562548267 6.741788342462502 0.41028532962409336 -0.6430272442106474 -0.1948402544447741
Ni 7.2583878675741405 8.078339707370914 12.887030196208752 -0.9417377523785265 0.5524660488916228 1.2877074506436854
Ni 3.499073867115481 2.7417393135825288 5.427933324122435 -0.4112929449530014 1.6607148697529268 0.46451735149478063
Ni 3.042870111119189 8.122640999551678 2.4764588251489537 0.09261782073773726 1.8607495239144471 0.18002555802944478
Ni 8.017049800648088 1.7204682434012613 0.3691451721425206 -0.22394179979642076 0.3246948480467828 -0.6035914068125282
Ni 0.9980511461273052 7.9780488087178325 7.02598398935528 -1.0881008851585194 1.1841089625247283 0.19502588809301893
Ni 5.861007491616859 5.477993968644968 10.915822722887263 0.26443153238035105 0.04675576809830012 1.0956100490513712
Ni 6.69379988489008 5.676934977351843 2.132523724580543 0.5041910159353188 -0.9769204709272467 1.0258112830906787
Ni 9.095803779285296 3.148387566714945 12.114488850809256 0.04536840083247025 -0.4388664836958958 -1.4762459312401481
Ni 9.337193279563627 0.270384447126977 1.6386187024545544 -2.0453817274779675 1.0222441345647104 -1.7436360320281907
Ni 2.6305989307644957 7.444681898987631 4.929644262345766 -2.7286269386683975 1.4021215413209078 -0.6345204922912169
Ni 5.650608616455409 4.305982359339266 5.677280649107311 0.39347417160402554 -0.06469024108953375 -0.2556021070141791
Ni 3.5152144336174613 5.786259431214485 11.734882268659256 -0.6587238290102978 0.08205418628927803 -0.31326475183297015
Ni 7.7830991565474275 5.53092322784221 5.082999923524233 -1.3705314252194527 -0.3409300789587225 -0.3869517971044756
Ni 3.167477865530251 3.3616716487953675 1.3836318580031388 -0.09646701928049838 0.7704932829758214 0.35719899132207517
Ni 1.4530381375443497 4.563991757620493 10.464415969065517 -1.2674407299748494 -1.707308144131434 0.7211162752045903
Ni 1.1972410384981174 9.036099353680884 9.304389490865399 -0.04287365943507455 -0.5760217247243756 0.6160509727321196
Ni 4.8527152436142265 6.410459660368167 6.610841428951832 0.8122194590700141 -0.7125771273853276 0.4140203711864934
Ni 9.000029658236995 5.752217676736008 7.366883631015008 -0.8676192759965574 -0.5334080038189072 -1.230781426880603
Ni 1.5087143349583767 1.1500268856579443 3.083178203180788 1.491584361369431 -0.1843604379593728 1.0065969149457568
Ni 1.0578661866934675 2.404907537141146 0.9217572416344781 -0.9559942622975407 -0.7461734752835343 -0.05773463570730702
Ni 7.226115952483659 7.556218652085268 6.360698598033706 0.2751293784138294 -0.11174502848549141 -0.3635763556033287
P 6.872719585520255 3.737135700627841 3.6631167771816666 0.32195893717285845 1.5464558165963302 -0.5462185253200141
Ni 5.9357186803653175 0.40874440665757317 10.042702879934136 -1.29364309940183 -1.5674488739082295 -0.16232274143304304
P 6.59575815712591 3.448808584913711 12.971135360583805 1.3582523507417834 -1.2642337930017775 0.06487458918619796
Ni 8.869006236044449 6.578520658919912 0.9881059392746573 -1.3330658241738267 -0.319970703098236 -0.6078476109857209
P 2.4796463796300414 7.343284850717053 8.69215226982495 0.11767990591268766 0.45341404249276757 1.1902682972579048
P 6.867603643539331 5.257943938070854 7.458408293949424 -0.06248680568031174 0.0546426270455446 -0.5651313030641171
P 3.522413624044672 1.086994793287561 1.8494342273052624 -0.09044112480139263 -1.0388840571142366 2.1596122413894743
Ni 5.454534378840548 0.9770158675678998 0.7402961622581027 0.6240391331439188 0.6910101998478293 -2.1490599197949245
