# total energy = -340862.8171491882 ev
CRYSTAL
PRIMVEC
9.26785879848558 0.00000000000000 0.00000000000000
0.00000000000000 9.26785879848558 0.00000000000000
0.00000000000000 0.00000000000000 13.56444816111023
PRIMCOORD
 96 1
Ni 8.098977922562984 1.1802618196572014 1.5163699873186707 -0.11079654852929306 -2.5264965783201134 0.4240523015011987
Ni 4.536626156136787 3.74441885278007 4.565630847073569 -0.7858653945565175 -0.48861964385962303 -2.2746269417651725
Ni 6.543516106776987 7.817772550501431 11.107085782050856 -0.2780249547940696 -0.4074239489158983 -0.26258522320023164
Ni 6.913248066206939 7.3273638014856415 8.70398096542656 0.2922207866784774 0.7106117761288407 -0.3520326166297873
Ni 3.8588954448209476 4.603336203862681 11.450103138456372 1.0137427819619187 0.21566747560277053 -1.303528476836342
Ni 3.488208895933401 7.0334614628521965 10.106490673315324 1.0946284018643924 -1.9636137049705407 -1.1033128170122675
Ni 0.7237224606684025 6.421810584863062 2.0224460516554696 1.9430628774023826 -1.3634040701460521 0.9711725126998758
Ni 5.801670348202501 4.3766999844838255 6.262502579392834 -1.2922742440787616 -1.7000997993084528 -1.4745806277225832
Ni 1.9927008587996407 3.6157068296045756 1.710450072264139 -1.094449967304999 0.7653469628881916 0.5377210293719642
Ni 4.7877573263547 6.354646412055399 6.953244437694278 -0.33474323342172024 -0.039915348137699 1.7478387572556284
Ni 9.02138010650505 2.64244263650445 2.889051091622302 0.09412628696246371 1.6740421829894523 2.82476228564109
Ni 4.11355766924608 2.3359730813224764 10.172549190566762 0.0900181783313611 -0.965164615942899 0.3031808852344069
Ni 0.685629707380966 1.2362304190204514 8.974754435609777 -0.050579512719764505 2.234523131765752 3.0212763282438613
Ni 8.959248381032088 6.9170015490256365 10.427587690059644 0.057267980483533626 0.08806413992878383 0.2718782184663834
Ni 1.2166010940574834 1.0583894762846677 2.433828695370631 2.254199527148756 1.6323617725315307 0.7851768531299251
Ni 6.895805955923509 0.10583987441434793 12.844636927051875 -1.1569920517032783 0.6618610890876988 0.5830603767387119
Ni 0.8134983554046049 2.4962050923162207 13.456027378208404 0.3879619835365447 -1.3163554533976813 -1.8754433784811961
Ni 3.109635399197183 1.1934221791696729 0.7474713488731263 -1.3460226414448109 1.6801066440159773 0.8643611740705758
Ni 5.298221721838791 6.958947878006937 0.2626075597843165 1.2236224472383184 3.74999227017258 0.6569752217503072
Ni 9.018812909614239 8.990731297415092 12.364021524442302 0.9091387353965826 0.40155334906773427 -1.285302440746619
Ni 0.18471027968694118 1.756333387668606 6.7618362764441935 -0.3189528033566829 -0.06572588144289972 -0.7168261324696688
Ni 1.3314669361684481 2.849857316708048 4.982195150650296 1.0533835362819923 0.7268038125076708 -1.5334077251631204
Ni 7.565937023013836 4.297450523785838 3.69137426287188 1.3329802064385559 -0.7409595351827626 1.0883857633887901
Ni 8.762074684815309 4.713113991486077 11.856277245519415 -0.3579237853032416 -0.13216884355748204 0.5442891695077852
P 5.660483787066594 8.367347310170473 6.816134807649593 0.07673483095889366 1.2649555016591505 -0.8275036389225943
P 2.261867282264926 5.623644048290487 0.47833921648544364 0.701848942334546 -0.04972076426389502 1.1976432495657374
P 4.066467678624343 8.87982283101668 13.13813147989761 1.6944533996559525 0.8820696470939324 -0.5566152951733059
P 0.04925032851072113 1.1163877367276576 4.639556849670174 -1.1006558390053947 -0.840745591534165 0.04924459595842487
P 5.941429659081423 5.242809194004238 3.092382353233509 -2.382395759211736 2.0695398127814095 1.2745146061024955
P 2.3054076829618206 7.028827533446397 6.938324111793484 -2.6082010945794565 -2.4959487874402435 -3.344889513190691
P 6.351495340059455 1.8802724635561268 3.504415600637245 -0.6938450981934632 0.006027694251318652 -1.0664192864200277
P 0.9415032409527743 0.3101007022643583 0.6326296031950717 -1.1126186677942258 -0.31477578916085786 -1.4464406749532572
Ni 5.726730441851908 5.132104620499682 1.0833079682714153 0.8354324068513677 -1.5028761322331665 -2.6630126431026975
Ni 0.2544258940254364 8.561916738061193 3.302549587504152 -1.4994845900531142 -0.6780536396871613 0.7427407954529015
Ni 4.805551615272972 1.8251194357682976 7.778451805921458 -0.7061573399019129 0.2045124874272155 -0.35583502109501297
Ni 2.628967169792384 3.2354836539998924 8.525445860065787 0.3223885685111093 -1.8824812591645836 -0.7950899984785791
Ni 8.21895035487914 8.34734727085504 6.148587619595938 0.38854125307878246 0.04107825809754861 -0.35609110296987706
Ni 4.338006673945397 0.5283995558562986 3.0472534415363057 -0.23137383059443378 0.9121600387214098 1.1577926932277027
Ni 2.5928503240035807 1.4612632988248997 11.97643132786828 -0.36016295904640555 1.1882134716114052 -0.7016170288293981
Ni 3.204389987686976 8.115344961224269 1.3238237330065221 -0.7499416840767149 -1.8432351691797673 1.188916411215701
Ni 8.962890649545047 6.396333240989974 7.823268390776709 2.7821346807785505 0.6951753869691124 -0.3009674225228559
Ni 3.5569300690214116 3.6852806457032536 13.448743767968367 0.4568210112917875 -0.5297976607598295 0.7501561140803662
Ni 3.0292459918653685 5.513078492668104 8.327445470843012 0.12183275173879664 0.7744370981149179 0.7523024709994075
Ni 2.829208527275804 1.3097338072552474 6.591982374432247 0.014719822708677876 -0.41560777027827134 0.7416388206379745
Ni 1.1983619479162555 9.090305172486918 7.459755164609341 1.1312367971160453 -3.623769102675572 -2.215152440548624
Ni 4.873596234667735 4.015494455160545 8.529256803609117 0.9515274847754387 1.0224395384049683 0.3420533939298883
Ni 7.593240135072809 5.035487192388756 9.735746663703143 -0.49332424842414396 -0.7790185468380132 1.4628461128944743
Ni 3.7816941809203235 5.372253378025849 2.0487880867556787 -2.0986932944169148 0.36175138657944794 1.1095924793733922
Ni 3.8420742810778945 6.864443521705056 12.262274336479157 -1.221534454361038 -0.4413964492066011 0.37366305041536935
Ni 6.883526042998139 9.022649803162242 4.065441726653899 -0.47627192092754744 1.6630933972874324 1.44427477765019
Ni 7.3763258995873215 2.603434218766427 0.07904927494765712 0.2886083867368707 0.29894653543808514 -0.18874185485652012
Ni 4.177858073680958 9.062649881793105 11.004904858295328 -0.5801470597466589 0.5996085109053803 -0.3888058195940788
Ni 0.4556357427546682 3.942713959913054 8.414664363333094 -1.947198239726995 -0.18066164895154693 0.36564377965531863
Ni 3.794177986739548 8.346967288643764 5.332307052976092 1.304000274266438 -0.07326255613957705 0.7169392610087653
Ni 7.898690225785507 5.635303014675478 1.1008297821406254 1.137454753001299 -0.18234237908807951 -0.18837778664888202
Ni 1.6941553229015844 8.33888571576005 9.93679895883258 -1.0051684100293463 0.7978590765832839 0.5886998344126764
P 7.8331201246934405 2.8062057017054136 7.850885683249396 1.0539077842165785 1.7899398001907367 -0.7966442303395764
P 5.781345933828663 3.6559849439997874 13.004507491551966 -2.1706301897665323 1.0332366290204722 -1.195615163392115
P 7.8898208849028055 7.182609114707268 12.891678724807791 -1.396602925495524 -1.7856100624671312 -2.5158511827911254
P 1.3205493984883838 5.577805218608315 9.64535352957009 -1.001940647120668 2.385183092148886 -0.06067649194445034
P 1.3488163678637626 4.984124718854871 3.8270056694361148 0.30300193645438134 -0.3572614691288944 0.6317989795949958
P 6.003116527331429 0.9392974905556135 10.98811149812871 0.2900428051905521 0.3098732096529179 -0.006349082146479388
P 7.830488052790946 6.232736997247619 5.793687941408071 1.4726006211780767 -1.370468176081685 -0.31125877714653494
P 2.957827871863182 0.5583884933988724 8.929937850754524 -0.22396776793834977 3.518439490798121 1.4779873394112868
Ni 7.545658947934057 2.7810063935966745 11.346159467954877 0.20899726267144653 -0.5385406970597822 0.14231930172792262
Ni 1.9917184657656113 8.616912212249225 12.743731260668822 0.6354036662271186 -2.1500091710820715 -1.583275813638157
Ni 1.4956285192983108 5.7600298585619845 12.188186146353349 0.6467643426555765 1.518082921880592 -1.489380925960209
Ni 4.938841960701396 7.433656874195876 2.8502706632110444 0.9533087450455776 -0.5409621620170811 0.23283550274162484
Ni 7.98081272271509 0.4016727080382488 10.168141396915964 0.18876396634370718 0.1725102234890061 0.21917394609413224
Ni 6.298566598386412 5.599325186768849 12.032072771815479 0.3175538661266273 -0.5785282931963133 0.28699964748885415
Ni 8.648089289291446 3.862834284815877 6.041618919978338 -0.3330344782607296 2.1777014947910174 0.2872068784036537
Ni 3.2940750574068254 6.119798869769468 5.054249045766958 -1.2517672851036505 -0.9553867106205286 -1.089049622225034
Ni 7.726715837677466 6.884184060973762 3.634499266916856 0.7377785663516198 -1.2281668720758914 -1.520898536952516
Ni 2.110671433612491 0.38730660009438833 4.634551279126029 -0.7441369044694798 1.3629950076330914 -0.4253640783340868
Ni 5.333143013840898 0.7739496214978662 0.9283697582308564 1.660722840172727 0.16618376705034607 -0.010814317006684601
Ni 7.265083790271692 0.7860061790258759 7.45584783533437 -0.4226271390188979 -0.2179475298861988 -0.13985309957561723
Ni 5.179287289709534 1.147527742334632 5.587955377578779 -1.4414023411984016 -1.510410750047315 -0.577651804128631
Ni 3.4948817542777526 8.19553974352104 7.919617050982098 2.905986519829905 0.5638007571781516 0.3847146802438407
Ni 5.244282783555282 3.2008867370561918 2.057224618631878 -0.5620434081674126 -2.358115289397816 0.8656063593315866
Ni 8.708942050248409 7.975261275286942 1.0179686368637573 -0.6460570321759067 1.3413836000109027 1.204178479581094
Ni 5.95149455375082 6.903600225184064 5.1095244092911 -0.7555592873738084 0.1663732573533328 -0.609902950852853
Ni 6.922191549960132 2.4146572026329562 5.420923538574963 2.0375002678473617 0.5093969856162904 0.38624397240417346
Ni 6.47504516587689 2.3925811629437264 9.313106351889532 -0.33615296928505334 0.12639337452628555 0.6017584673688475
Ni 0.6431773533085531 6.850977322851802 4.894460038424408 0.7517419705102473 -1.0535642848342306 0.8954252424652321
Ni 1.7227003280413111 4.631102708862233 6.558872022041926 0.46916616312070164 0.751845328857331 -1.248428964759037
Ni 1.7278532575405605 3.889080860970327 10.686872722460002 0.7506605645206105 -1.3455102205847667 0.9757853288815389
Ni 5.6096403136261594 9.21529151642015 8.863783874557326 -1.3524678828495222 0.22121411645261255 1.438603952517658
Ni 7.089040812145359 5.273865788881908 7.607471859063901 0.16858954827836126 -1.0560613402244716 0.125316596522339
P 8.967969436173803 3.69725471928784 1.1216500269608838 -0.9716121713404557 2.1694076302133416 0.2803348338741688
P 0.6514433565826186 2.1560005310600245 11.14866046989381 -1.561019316232802 -1.1334957683535511 -0.1376740896464274
P 8.712389693726324 8.49810753014333 8.495549601111328 0.8453447808690732 0.44809134472827344 0.4348789598030575
P 6.788243186556085 8.71463251555873 2.0303811923699606 -0.6692964623198215 -1.1314013477183675 -1.0036015797628588
P 2.393600627413002 7.957253825616004 3.4042698986767435 1.0649259897039531 -1.0335112228380976 0.14133302655525337
P 3.5237140630406385 3.266605123889244 6.402324911711673 0.5955767640381678 1.2067876350691666 0.40400438171138814
P 5.43947315798638 5.988167471068319 9.251970921238817 -1.2401196735623934 -0.8795319682737434 1.2373061153729983
P 2.915547899964665 2.3327571343148508 3.154818991261374 1.4618091869895278 -0.4935170811612404 0.7628910451485312
