# total energy = -340866.73761598504 ev
CRYSTAL
PRIMVEC
9.28878503996583 0.00000000000000 0.00000000000000
0.00000000000000 9.28878503996583 0.00000000000000
0.00000000000000 0.00000000000000 13.59507583076597
PRIMCOORD
 96 1
Ni 3.5718072550634483 8.267408889605678 9.273963009881031 -0.36116131840393284 0.9253238297968774 1.345377037441012
Ni 4.886987763243385 2.242935077610286 12.819762595474941 0.6832372407706296 2.09566787732703 1.270253002612664
Ni 5.8406673319556655 6.326201419188155 13.14416784267018 -0.30312380674422634 0.41345575693227504 -1.2733987473304973
Ni 0.4235435219484215 2.9062936672624478 6.923088533612285 -0.296464906666812 -0.17843095984881527 -2.1159058016404595
Ni 5.348389586722933 2.2815206910166443 6.834122407448727 0.5464527528180072 1.1288814095099913 -0.3790723943563988
Ni 1.2820009677159248 8.588289971724755 -0.021596425414006526 -0.7719454420413157 0.006122310847653973 2.3206854266861323
Ni 8.225600067761185 1.1714272695962114 7.273406704668795 0.6422618267995326 -1.5114494757244745 1.5493642484923766
Ni 7.0586221262395155 0.0025516292736462768 2.7998516207660247 -0.4204049345565985 -0.1580192289616827 2.4175877337318363
Ni 3.9825201781196684 0.7321708387315173 11.727887268318806 -2.0487915244904653 -2.15584557525819 -1.5049348145344081
Ni 8.103749784500566 5.2387354783305256 5.25214476853597 -0.909031263284441 0.07322167559931261 -0.5711011474943068
Ni 7.041317119552937 3.81897253843605 12.53986734883834 -1.036281329384067 -0.5559948879804876 1.182870462131937
Ni 6.125359307230456 3.205373970694784 3.207717531181646 -0.29500760539499515 -0.1737885759807975 -0.9805166729189372
Ni 6.899728167903173 2.5085200218843826 8.742435503105552 -0.38450153579177004 0.1902778318850723 0.8223673461372933
Ni 0.8250373257687704 4.424554884615042 4.733043798499786 0.7881040540790493 -1.1934667495905447 -0.04694114463622884
Ni 5.457616410999623 3.4916357506555813 10.856537917677281 -0.3886127297466662 0.6425834718050094 -0.8038122088429253
Ni 1.4665877057060916 0.7522160370297652 10.810749780285539 0.33811960609312086 0.925300946978742 1.719915034262167
Ni 1.0359874936987366 6.402044349728095 11.6258703990556 -2.0807444232479777 2.506150924784226 0.1299615514935181
Ni 2.093645723092474 4.168723164721464 0.714455267742445 0.5157882338546149 0.0890892387591885 -0.8531377945509308
Ni 6.04784439536814 -0.024519606092624963 10.124660604555691 0.6265636993379854 2.2475293142174326 -0.8504849303091159
Ni 4.254625849551026 2.723880504991368 1.5740784560430485 -1.8433727231988961 -0.3750265064217993 0.9004995716643458
Ni 7.932399565312533 9.060215988750137 0.7158476566325782 3.1448000945318353 1.1950942578916386 -0.3195331013401852
Ni 7.380199867242916 2.001491685874255 5.316776135430877 1.322322983835026 1.7007816558668256 -0.6964465403720522
Ni 8.727408106531454 2.8522515154092476 10.542464586175806 -0.05139918040758245 0.8964853082986303 0.3171789992857118
Ni 4.4102222891682406 0.39944655557895237 5.735490417993173 0.1707186788062221 -0.751863583689776 0.36128781667946813
P 3.93346610387822 4.517219805015097 2.9765196694377223 -0.15524192332686168 0.3991930763656738 -0.8349025024898267
P 7.641298328301973 8.36837798390686 8.624988103993854 0.050935867617918726 0.9320238675248722 -0.7753665519077227
P 6.622829483347674 8.443217725653376 12.86633935072374 -1.4251447416889584 -1.0988393546219462 -0.7493711562852255
P 6.2004312686050795 6.085111001286847 10.916818417619963 -0.49261899482700316 -0.9846674618625171 -0.5492858513914282
P 4.514154505924077 5.505899516075754 7.361258176617436 1.5529812764196738 -0.17381891499810065 0.1251291631018813
P 0.38566757172555993 8.902743214537814 2.2898462291235577 -0.43716029963806646 -0.03744374666875487 0.750619683980346
P 3.764475236111759 4.121368938157763 12.309022460929143 -0.7640398140409939 -0.3201967030661131 -0.9309278062472162
P 9.239108701459106 0.17207195779219217 5.621101815822908 -1.78372801495307 0.7071916947036981 -0.8753251292812474
Ni 2.1833939649634977 8.159724003659623 3.8060778469264913 0.2573095766235891 -0.2699558046326899 -1.2943360117037968
Ni 5.843630454410319 5.69810305786785 3.2152897488149783 -0.40827729805512913 0.6391849876464217 -1.2926084874897288
Ni 9.176372246729558 3.8617288163632213 1.6165226307900427 0.0020229439672997417 -0.14578232057585863 1.3339256010709608
Ni 5.7821294081023025 4.838165908630045 5.39172548484186 0.2445134533001854 0.9751518090625979 2.755681371683028
Ni 4.041188144964772 6.5428158882869205 4.394621774551973 -0.9401626945819228 0.1392846286666569 0.35110316283698245
Ni 2.03398385623907 0.2945009323660546 5.681382315765591 0.02530813974748545 0.696394346977878 0.28885341286814126
Ni 7.3075151236452385 6.642391664819459 7.013359734085808 0.008816055629733203 0.6570677814641136 -0.013675954825195803
Ni 4.3948307722172695 3.7823747250462927 8.60894544320567 -0.049093929313173516 -0.05737905214010119 0.4032657037731507
Ni 2.872891195955451 4.264490539353037 6.69398436403538 0.47332106582933964 0.05525352115666614 -2.72101390220783
Ni 0.28813532792036917 5.562078088507543 7.083374880838761 0.2293398308835405 -0.47054478863578314 0.24285791997463338
Ni 2.7077830403709497 6.758733698501365 1.3258421757456142 -0.8068880195547716 -0.7438031752791449 2.016204077472747
Ni 2.91199698132877 2.055468816231585 7.315523914179413 -0.23069685913206722 -1.4421834423388 0.8927721211131011
Ni 8.169978822436853 1.8960453971431572 2.0403894024607903 -1.629410660323007 -0.18320498419869094 0.37179951484406937
Ni 6.857854324562811 9.010743919178095 5.586868927125799 0.4520804112830085 -1.5314243761845046 -1.4941081562325493
Ni 6.688073910060785 4.735218303097385 1.254330605709136 0.6529640437083851 0.6603572508486627 -0.8151392038199704
Ni 7.128325169812292 1.1099262232881952 12.152570524201979 0.11568061609447172 0.6920517537384663 -0.37072685060518085
Ni 0.1370615977801784 7.962569539396272 7.10716624617764 -0.21553557801059653 0.022443159494864574 0.26908188666816885
Ni 4.394199134828817 3.342346396137769 4.756250899254346 -2.104944417532949 -1.288809939679245 0.2781784496527983
Ni 2.1076810774152968 2.253802956205721 12.678142061955754 0.7941212068074066 0.1465243409482057 0.5302519746884287
Ni 3.042513701110364 2.587065988895496 10.435389973412418 0.9798916377404286 0.12474812561337871 -0.9200183584235638
Ni 2.5809725458539527 6.385268803793602 7.508696276259974 -0.8177131351947338 2.1187579263772736 0.8845304499295992
Ni 0.6712698479425315 1.411458765993348 3.8628100309516897 -0.31409418971280095 0.0679290597418056 -0.21249344875016307
Ni 1.5229334762701188 4.292542670428435 11.287801348942512 2.443610383047843 -1.0806202605107582 -1.520623943134891
Ni 6.034514988714764 0.192376313195408 7.689932549455803 -0.416126876006535 0.010247388759621062 1.3232354683469663
P 1.202405367985765 5.723238510414217 9.63919432545461 0.00932153451124201 0.19323691451339625 -1.2600207833616943
P 4.8356114927208615 1.5726470542553934 9.008994840939188 -0.3558846433860258 0.643436306723608 0.453233036830213
P 3.1544156955028533 8.71015883255562 7.303180047627725 -0.6607791688774297 -0.07631034182696536 -0.26358615366092025
P 8.092240979731555 3.4662866560513557 3.7088456308808153 3.0198503944306117 0.987120294278384 -0.17508698307724688
P 4.418322109796634 7.919655352121988 2.571223036987483 -0.47430656967106055 -0.4302244917501816 -0.5861678120194421
P 0.5832428179550408 1.922871408582147 8.940122214756526 0.8897276778598225 0.017477587959473125 -1.0875907782913203
P 1.8535027612738455 6.290160932905855 5.090540342700357 -0.2281182997716136 0.585011844038128 0.5374379509139067
P 7.599777458796336 3.7064389066551087 6.891397985403698 -0.3023823005925115 0.24440083898172105 0.34049453408320074
Ni 1.0235869655577907 1.4069258388526875 1.2021239177964984 0.45044261856926937 0.9810347502059362 -0.24513746003742945
Ni 5.51014449087756 0.5557554450152008 0.981001601276907 -0.1998348794458881 0.031854168396119334 -0.038561405212965846
Ni 8.432507756405053 0.7257411416684744 10.012039658194581 -0.9279543254411889 -2.109076694533768 -0.9803778333482277
Ni 4.333691988529101 5.042054742108515 0.6561012618345432 0.19349839570489902 -0.7325283736962739 1.4048186285370967
Ni 1.2574692862026382 8.921200030579806 8.957795986212538 -0.06955888203574473 -0.4563672115838205 -1.7500735601234183
Ni 8.182871656189388 5.041961854257272 10.939672544539802 0.005251735317242569 -1.0374907763111358 0.3413352848169412
Ni 8.105644696665925 5.883971648205171 2.7207009538433184 0.7839023572928757 -0.18729818043145807 0.7895842381690015
Ni 3.3999182863382047 1.4135766090016895 3.784950505161262 -0.16548982630711498 -0.833343899753455 -0.815600459727105
Ni 2.0646832910748945 3.3598000233863363 2.9091425376600717 0.21835710661979169 -0.15267416259968547 0.4851910777940483
Ni 5.545692671548272 7.176106680491711 8.998186410568549 1.9818073451604319 -1.503556960350275 1.2662030009130065
Ni 2.96577904719849 6.184073718001181 12.689712172706589 1.222220167574153 -0.36954568581288616 -0.8845114237662057
Ni 1.5644264794203842 3.957598367631161 8.456395725109227 0.6037006786968828 0.16447526899967158 3.4017931683562703
Ni 4.9366920524435365 7.948822137412302 11.436640197381795 -0.41177296991321344 -2.3054860932378745 1.0950662607327593
Ni 8.434755642405136 6.731127429111934 9.654842212875012 1.3355808772861966 2.078467711398659 -0.9314834216403699
Ni 3.858161922875488 5.985005764002223 10.245167729487337 -0.36506142478928744 -1.163979795875021 0.16771871563763374
Ni 1.14008690858681 5.937019900050069 2.781321423321551 0.3225387209357284 -0.4006627189326648 0.890392565137331
Ni 5.092046983647519 7.5151844926693 6.833333789591674 -1.3489153896115735 -0.30461221836429475 -2.4283066628112375
Ni 8.130232110889958 6.139552570900392 12.919496281354593 0.9514704062852583 0.6074264642879024 1.4507552431682111
Ni 8.904972522967647 8.408310471156243 11.792749925963307 -0.7386663682732116 0.43365434336733705 0.3658111584711184
Ni 6.750057973195265 7.327263080819508 1.4901292027251272 -1.6604837275787272 -0.5430763801466066 0.28448845103122616
Ni 0.03624205291949646 3.6300200714374604 12.715569363857112 -0.7198404938159603 0.3452269065618635 2.2052570358117825
Ni 9.187797452432452 7.540635763909893 4.522973278521091 -0.43081018905032253 -0.17808308959109329 0.008143197932424686
Ni 7.2676662354619745 4.998128077255682 8.698455892177511 -0.9925090693941228 -1.2547654485000261 -0.29839426247904094
Ni 3.9295276589855153 8.063380724350342 0.16871220421273142 1.339378653765732 2.4127316911911154 -0.8763818526805358
P 3.128667183138283 0.8854069980486462 0.661107917016543 0.9076001872648692 0.08844312053475735 -0.5935538200708681
P 0.5002465939908732 5.604379215963624 0.6749807175996908 -0.11067519246008035 1.4103670691591519 -0.7003433043232971
P 5.666158925825369 1.3975720322325138 4.2986407578625405 -1.2602167014225845 -1.600443069446063 -0.7404941655105698
P 2.236098531758798 8.276363278465505 11.841691605904753 2.146159201208362 -0.8738865970625079 -2.149873931055788
P 0.025572025447208588 1.5140905528317816 12.390239882542007 -0.23823867603506713 -0.8020206641601414 0.3001030176400315
P 2.2148643689646392 2.6501739950300167 5.242071081068663 -0.0763260255562492 -0.2360216137790903 -0.4311914836491412
P 6.488550805590738 6.927009329813254 4.8379708441424345 0.7972931767774849 0.5716351656209059 0.6563926097739599
P 6.223170214589375 2.7657171931912328 0.8662451632157196 1.6801796633457577 -1.4417561249933946 -0.5971114555151393
