# total energy = -381171.8753912496 ev
CRYSTAL
PRIMVEC
9.23036391066008 0.00000000000000 0.00000000000000

0.00000000000000 9.23036391066008 0.00000000000000

0.00000000000000 0.00000000000000 13.50957060273516

PRIMCOORD
 96 1
Ni 5.5097703945747245 3.4932589319437315 7.886833719048854 3.0092957588432174 -0.3017269263966997 0.18826722921294672
Ni 3.2665150412540083 0.9023049985948784 3.129032462207921 1.5663327580259154 -0.0399747406207247 -2.672610828314094
Ni 4.793355695780389 8.116415946656431 10.690069408834116 0.48474961938125555 -0.302041372313325 0.07120541650023221
Ni 5.8555859803549195 6.555902924402141 3.212534949776599 -0.8510937675377084 -0.5873937140067432 -2.3101847842651244
Ni 2.342241776433136 1.1867663551296184 13.323300255194859 -0.08335850692299838 -1.0928237445554856 -0.6986142374473324
Ni 5.730182255587544 8.741413120785959 8.480619340482342 -0.9056124674108791 -0.30321688067866487 0.189155545355171
Ni 0.3053893607423853 6.511957161586192 5.894226129966371 -0.2726107257570337 -0.3573949093829651 0.7258671596260144
Ni 0.1825553693016135 8.614209475046286 0.9925548822186834 -0.666819975754871 -0.3581461857266929 1.2859673280241273
Ni 5.968593326323342 7.9339778029771155 12.726042170839431 0.7482591541679694 0.042130353511146794 1.7246821166335071
Ni 1.3296062374183815 1.0927458678279487 8.459477191830812 0.7073408186870528 -0.0279193521180874 -0.6206208514909891
Ni 6.6719378297496075 6.320067125211323 11.22433210523191 0.43473703490855453 0.15264639468554356 0.34023022467822056
Ni 2.796117233098923 7.0768369752409725 11.04006173430644 -1.3703581328663816 0.4646986142676513 0.3491036159084504
Ni 0.39322458115412295 9.159991665666787 12.476615583753173 0.07825152471373621 0.8040847457780215 -2.4889792981009458
Ni 2.837441572550089 6.465537661228829 6.31673773293077 -0.3248529708912018 0.829324751291733 -0.4331028417392412
Ni 3.750767625713807 5.001260413626728 11.448793326914203 -0.7187490605239945 -0.19418925112433655 1.9636036776682118
Ni 5.129710158501069 0.9396787422709497 -0.1686129045392758 -0.8713859421278413 1.0126701177230302 -0.4654714878779338
Ni 1.0465940480254403 8.5817462849972 10.073410945506506 0.9738354042440196 -0.34343613321002786 -0.3525332104152897
Ni 7.531589316483006 7.425172450382383 7.509267527317325 1.2502071397053824 1.5939160669608228 -0.7186431310737494
Ni 2.6344289476028164 5.11757222989301 0.4082313068811066 -1.369138658636984 -1.363604616192632 -0.3423917511059135
Ni 1.3550451204935239 2.5640012705841886 4.3480146336324825 -0.25569569516925 0.7698481931926547 -0.29714882010771404
Ni 5.498897025829255 1.7122509754009774 2.5420551572317 -0.22424441863850414 1.0661680896411703 -1.072407642792979
Ni 2.8930175939562695 0.9190073421814062 5.1251392822678286 -1.2894925675685665 -0.1303875832873432 4.397270062129466
Ni 5.393273971029234 4.128714108440508 10.19120146607926 0.8407998418108681 -1.0350315161373658 -0.5165626501267941
Ni 2.614205220165357 5.147423226941272 9.377776565096449 0.4406950522642023 0.137331361595028 0.4852995783474546
P 2.018071394140318 2.649612896317841 6.901769277184117 -0.4049608320873864 0.6553423141325746 -0.28764010928633044
Ni 4.057215709202462 3.5135934237487167 6.184248780787314 -1.763092083870273 0.10388182368733076 -1.2105974957335603
P 3.5847318387923033 -0.5936250131005744 12.728352530938745 -0.4868098443443939 1.386276346758535 -0.5799861086887624
Ni 1.426488137547807 1.401353856483361 2.0010782940890346 -1.2850877536326515 -0.13473891827750345 0.30413013652155363
P 8.635882369625543 5.174025135875438 8.547964998974557 0.062447467801944066 0.6364043395774911 0.45465588531966855
P 4.507029805725629 4.020285022996495 -0.13391965855733426 1.2327745460512316 1.243023734583066 1.9182663871839933
P 6.802141343776443 1.9509851088753922 9.86343216487824 1.013011817333165 1.3846097576893894 -0.6556148510676708
Ni 4.247647348071571 8.444961521466528 6.346715185965291 -0.23348162096605599 -0.23442830115004143 0.3448368702122965
Ni 4.663687542863262 5.693731548307523 7.4411123659057745 0.15118857919309445 -0.22675972886119014 0.6995709449336469
Ni 6.580391079989351 6.001001134188662 8.935986423964145 -0.444041343028616 -0.7861155628941107 0.451003633279062
Ni 1.6999469002416288 8.671936171255263 6.747679427300295 -0.12354844887832271 0.16091300556970997 -0.9485997696056825
Ni 0.6258740587057751 6.339626266443626 1.8210631209493513 0.9755045644163263 -0.5745011743147912 -0.8087821512536909
Ni 0.7127963961218191 7.189244347551962 8.235136887916404 -0.6329567473485228 -0.7695532876600553 -0.06732922137427759
Ni 2.046159391672125 8.281888681376344 2.297113603993848 0.555178048506147 0.3657458524508217 -0.9153993715943138
Ni 4.864724869922989 1.1354178404173476 10.532777545692396 -1.382309134580671 1.966323904812852 -0.7565039106752649
Ni 4.182360983778943 6.737704172968181 13.266290758265614 -4.2479858990479356 0.24477801981548167 -2.044786259985814
Ni 6.446200048731578 9.102006519266917 3.4429949849968198 0.4693669662775981 -1.0296404270287816 0.00266134888224703
Ni 8.03875166429277 3.0893105139402977 7.9870745486235055 -0.47751067843065503 -0.38765139427466144 0.741741921874742
Ni 8.045305222704727 4.2142980430822785 10.564794909162186 0.0746236981531618 -0.7261129570882333 -0.7559758060859367
Ni 7.9061390252722425 0.41010691683788053 8.4973844505438 0.37426237456226513 0.5115777953176931 0.16823782136589738
Ni 8.66728406781917 6.807328808322245 13.046948696435816 -0.3904600673680501 -0.3387832078190488 -0.6770989890833758
Ni 7.544456443843946 2.0682568829935657 4.193343270819148 0.3290505539123172 -0.3353047623521451 0.09139706095675872
Ni 3.823078296980377 6.300351067791691 2.0462812324764035 -1.1627371817171717 0.11366178589223007 0.3956452111134154
Ni 6.761832344360932 0.1930447549063276 11.239828040248803 1.9864011351787016 0.20993083022930945 -1.029213366793692
Ni 7.26541331095402 2.8989157965270302 1.0186472750622295 -0.886925432524337 -0.2331131818830437 0.6614353144041899
Ni 1.3387904495590806 4.94976421309109 7.56926397002419 -0.3775531294983949 -0.5363416325259344 -1.5439309932919476
Ni 1.8631028136074559 4.777488700132287 5.271623312248199 -0.10712861275940261 -1.2270137323080545 -0.7009441711320896
Ni 1.9430285351414398 4.548474139908281 2.8304311111220883 0.39634583672486573 -0.46626827274761634 -0.45048478466111447
Ni 4.635848765158389 1.3487961640922645 7.093781154363265 0.32802596930254474 0.4912915342648313 0.8998549961018115
Ni 9.100723498676407 1.35773115640603 10.450018102422536 -1.4939070959653367 0.16247829317430082 -0.1667031298889258
Ni 7.740666290552331 5.125353426711713 1.8189152152557424 0.6045568560495911 0.6637032845027602 0.23275477010236045
Ni 3.7813385911509885 2.677848579673016 12.044727777077695 -0.478252441692686 -0.6882539772589308 -0.7829405076002387
P 8.921414448379702 3.363581548662644 2.5995658629240013 -0.39379478816823793 -0.27350366988494834 1.4568947804070458
Ni 3.237734766425165 2.614915958190316 1.4260838476063369 1.6791789899953855 1.9558093784347739 -0.363480967676045
P 8.826037097575838 8.48327676226657 5.869098310156698 -0.8556248226388425 0.14036217800155182 -0.13970320426131425
Ni 7.474767195942159 4.6652474743725865 12.82598670573095 0.8322635222050828 -0.4132241005374432 0.3727261404233968
P 3.6407601480325478 0.5268165617908595 8.794190495839315 -0.7037641570793879 -0.6432851258577243 0.5636274648250809
P 4.515235599286514 6.178390268781584 9.771986026085155 0.6646162832353328 -0.16996097470459115 -0.4968302046948734
P 6.815820743165906 2.26999571771429 6.2805048622402175 -0.26498226267749847 0.34453759380432275 -0.1874295638029998
Ni 8.405197113524686 2.129131133313074 12.710398549999175 2.371706140708374 1.02241151338051 -1.3086493430026753
Ni 3.5163071507531045 2.90516475292829 8.708958238064438 -1.4382221436982068 -0.5491215578994221 0.4482142434593829
Ni 1.8090405718907978 7.312792769163276 13.33220386427116 0.4099577710813455 -0.034166361469063745 0.017215335437021962
Ni 1.1387223107152074 3.043684824883538 11.357226270353234 0.36608420962684696 1.159632574649919 1.9688011627087516
Ni 8.922568243874764 3.8584767427689006 5.76079198855336 -0.026010308020832627 -0.44531018243871057 0.6961709181131622
Ni 5.094127105433336 1.3310830956520618 4.895652127409045 0.6296613644267027 1.239727323219981 -1.5666196931387149
Ni 4.01928814368876 7.921350665079149 3.9203561797237074 0.4622542664922168 0.4185393421027695 0.3328102780650656
Ni 2.2945392554852635 1.2380779483860471 10.810912410768609 1.1989388284487095 -1.2421331044479962 -0.7652682871314563
Ni 6.527944151965781 -0.07570559913124246 5.989778857685485 1.7107747625237957 0.10451688616816837 0.7855085254377311
Ni 8.420381062239711 1.0700945546688774 2.1855378874756997 -1.2457007671945965 0.5290384139963017 0.38038211430675783
Ni 6.984164121077535 4.308549289482961 4.476288078555178 -0.8414991818707378 0.9240997275817893 -0.42632952757114956
Ni 4.004334954072748 5.118652182476389 4.239181258246999 0.5637048550302356 0.9924383640571877 -0.1415268877336143
Ni 0.5128297912815113 6.218699268197095 10.50558212435557 -0.571881220193441 -0.9601735904862109 0.822920647537602
Ni 0.7030463626703413 0.328603726103047 4.2926933702716115 0.2921050870362195 -0.2936140674815782 0.108285094961349
Ni 4.325708536085534 8.677825143462062 1.4229086024039241 0.3181886714971488 -0.3605295983572049 0.493428378102176
Ni 7.076892357424735 5.4098886261581365 6.696139844054041 0.029224701193072248 -1.8001882173916222 -0.5768403639709292
Ni 5.790567296617145 5.894695032455565 0.5560555857085405 3.8129647572400587 -1.6853069572699944 1.3976809890510509
Ni 1.8449005358773467 7.1120046619304835 4.132577938794373 -0.7669778136233952 -1.3228318051506445 0.734923870511644
Ni 7.37008563826611 0.39795421964748406 13.4781340724139 0.24018114447341865 -0.6640658100485015 1.8415804071851638
Ni 0.678183454306334 3.3162205511813103 0.7265893289879968 0.5454322819732929 0.3093952415752349 -0.7111339671808979
Ni 9.095342196487435 5.361336911725899 3.892188801061841 -0.12751771793871586 -0.26021929407121636 -0.742083878595193
Ni 9.006287644996513 1.3769856956276365 6.38408246838659 0.1278473333639927 0.059023786832375774 0.09016550254250279
Ni 5.590905293787535 4.328653022188933 2.24118405964798 -1.4299344497681181 -1.3710194205994646 0.5244795909810257
Ni 6.338675538955695 2.653212738262437 11.990446775735172 -0.9310208801816546 0.16073688500316188 -0.056507962389057524
Ni 1.016355375690837 3.2915108668590474 9.187453844522071 -0.614042169832207 0.21954392783904125 -0.845816321188853
P 3.6214686873550996 3.0856091379921367 3.7306546626438735 0.04375966158445367 -0.7965683827963185 -0.33935913492717684
Ni 8.82315722402016 7.9310148561457945 3.157186918360243 -1.1195814722653041 -0.6464699513436093 0.26899498338131733
P 0.6278567408844908 4.71387303171651 12.514941900989966 -1.1193400456784595 2.070286204029131 0.14966442923908418
Ni 3.118533846239246 7.450999008743867 8.496628483735435 0.44394826909417734 1.2456714566185578 0.6063764257568331
P 5.086308987158791 6.650827987371939 5.529008319141203 0.9949840132971768 -0.37109091881281897 -0.6887453150730526
P 8.441878579903719 8.093293884935376 10.884620559138797 -0.649204833776269 -0.992429108085807 0.9439003072474841
P 7.018261085547629 8.102616552535482 1.5889148521607543 0.22402381798726578 -0.37791514082350397 -0.21303800839972345
Ni 7.254336874201419 6.935538563733613 4.69892630335527 1.632216762313234 0.736463447084622 2.849569574492757
