# total energy = -340852.6773591093 ev
CRYSTAL
PRIMVEC
9.48326103923038 0.00000000000000 0.00000000000000
0.00000000000000 9.48326103923038 0.00000000000000
0.00000000000000 0.00000000000000 13.87971111362497
PRIMCOORD
 96 1
Ni 6.277804932184252 5.8380661231644755 4.850626321142054 -1.2190654239952554 0.2935233075399848 0.15213731625960897
Ni 1.4982888430765913 6.884534482804832 10.40281575046515 -0.29978085841392244 -0.28157153449474737 1.05508252125097
Ni 1.9425416842959238 6.900542227243594 12.900664003024316 -1.035837814088745 0.5731258912338194 -0.20146932972551754
Ni 3.830289086976228 3.0869152297098443 8.750185887533528 -0.07305249701129998 0.33244003920984033 -0.5346459899910663
Ni 2.890355680549764 2.431119287071401 5.847577833870683 -1.1391434535576317 -1.638736822819939 -0.3980833882412628
Ni 1.499208719386165 4.693891726229948 9.860702294798594 1.0563138225549098 -0.5609010670328535 -0.42166683198815763
Ni 0.8163978113551267 2.7873864334430847 8.057338844467216 -0.9139767802151744 0.630401842137153 0.01168386409583149
Ni 8.557059278827733 8.682446954757417 11.419434598022896 -0.9579385305081051 0.24546219036669986 1.1017938092645798
Ni 7.256970589050976 1.6586128522482182 8.909483807873238 0.15727283771396142 0.22219319253643025 0.1495988661084714
Ni 2.429554549019034 8.844402084807875 9.967755982384997 1.2748161965033142 1.2585866220183293 0.9349384700685058
Ni 5.340640637947432 6.696898682173706 0.3886695522948832 2.647047892243325 0.7181237682351697 -3.1212816996949213
Ni 9.03137405717436 6.082354924552215 11.849192274920755 2.554517231902756 1.7564175000635749 0.01710117845666087
Ni 4.8478335008001014 8.113375433263805 9.49151515374482 -0.9281597565837757 0.49381378646605273 -1.019226173673993
Ni 2.156986663557606 6.040040614311839 3.361540982791658 0.13269566259522952 0.39973943578744703 0.6291563997658262
Ni 2.5645298017423137 1.4784119281810675 12.808224968847021 -1.0582411214846097 -0.30553781550235765 0.16726054505429258
Ni 5.619287293660783 7.149060563003185 11.434591693956826 -0.4934332631981824 1.7638479881996911 1.9186258274059407
Ni 0.2628655612106595 4.064468732219583 5.847466879717879 -0.15316909995823297 -0.5717637207789701 0.6876477111334997
Ni 3.2387422370940713 3.7322132025060424 2.203126521254497 -0.4937888467653883 -2.559788507604024 -2.378491539061323
Ni 3.180344316327546 8.062450322104949 5.487732653152587 0.5736660800080057 0.1559551473438024 -0.11716002885347564
Ni 9.44272946625029 7.84713288283831 0.06328274846818785 -1.1730005113163926 0.32837615355311184 -1.6919154637254474
Ni 9.052825193383175 2.011437574904694 4.130754829422224 -0.5514448067159601 0.9370393184615927 -0.0375051960343096
Ni 5.893467333479196 5.8084783490833525 9.63451798683979 0.6303020833344952 -2.041103411817588 -1.3034055781052327
Ni 0.5327439938742007 6.2184207522816894 8.111469297818196 0.339637328289228 1.26096746354568 0.27335377457064536
Ni 0.20523293960065547 9.476783856226353 4.978374380715582 1.288150451718375 -0.8979639497266859 0.9123814107035965
P 6.695277044555799 0.6357189309374344 13.28027419615904 -1.7794214171579161 1.4609974897215097 0.1439324118513134
P 3.1669349853818063 1.7572387658519637 1.0171631867347508 -0.5672902583886488 0.04028404433102739 0.3256741812409165
P 7.685139819744159 3.6355787736962184 3.220648175252154 -3.0400255838269064 -2.326334397441794 0.9449104936795533
P 0.44801769580593703 8.235965547221078 6.9966512833982595 0.9138276562318197 -0.347957161008833 0.015706097881347143
P 5.222602489233411 7.376032929944728 6.384916467662289 -1.702439760295539 -1.8843476229493612 -0.858698833578476
P 9.082346584637834 0.19154290413158173 1.2095832925017507 0.3588229000787433 -0.9498195009453964 2.204130378406507
P 6.09299514330831 3.4504655204707273 10.553035345122856 0.9342553279585524 0.7428032732597207 -3.87590716240055
P 5.944591593117445 0.32814453610323085 10.414516197792487 0.6956237873604407 0.11166892383191736 -0.677765161912465
Ni 0.1628256934032296 3.7818201403965417 2.681476427124047 1.0510649154511447 1.1482397594319451 -1.8035833591161006
Ni 6.897555000052711 5.46545931822171 12.17912725068633 -1.4724982912722575 -2.908282000732301 0.2997052679809806
Ni 4.019669807617267 1.0628459512551318 11.045098994613788 0.3781084877812327 1.9939352387722176 -1.6731037303355831
Ni 4.043226227751084 5.648675919262515 7.867645176215706 -0.0014164207315523994 1.409621963463011 1.4256185960015835
Ni 8.248236886856004 2.223511738935517 1.5245470442474964 1.0413590010172904 0.3990439523823192 -0.15331796683127144
Ni 4.515947818262575 7.324889703784632 2.2343975741495306 -1.7395248380732946 -1.2236769546253377 2.212643815194157
Ni 8.726003572178763 1.051541904234395 13.182324439059135 1.9708940406820379 -0.6330166540521808 0.5117228055359896
Ni 8.216752460590193 5.001092480583768 7.868532809438139 -0.860446669507518 -0.29667496579508906 -1.7593130764438154
Ni 6.623849123280471 7.270702350868113 7.8284480138408625 0.790183048095265 -0.7507361549535523 1.330601421793734
Ni 3.57507556900469 0.7885284041533298 7.431794504174538 1.970493977030142 0.6205758571856668 -0.9798273601613965
Ni 6.416601939059677 3.6256403162484565 7.857095996764474 -1.4707250014219186 -0.23724700154575917 1.0811583924024153
Ni 3.0148803797354162 5.574080588838759 1.227949523932171 1.2351595013436405 2.9041620650266564 -1.5210371194129093
Ni 2.8067133192050493 8.113233184349955 7.91698753112644 -0.29377013344346825 -1.761451720053373 -1.4477696781773262
Ni 4.16687846693178 4.545924406041559 10.778164166140881 0.36874350162656494 -3.720585791986005 0.12707960196003276
Ni 5.757126491182941 0.3308188156836401 7.85917852086326 -0.1543914024011083 -0.4564440875683429 0.8965637269450494
Ni 7.158192943272455 1.1860145441287324 5.283547613883971 0.8850189595302436 -0.10735692672012478 -0.2950155758147951
Ni 3.9045619865285874 4.413319968549139 6.0556898914876935 0.9846983151004526 0.27274159490794314 -1.4670717209400475
Ni 5.879716605140211 3.158845763814114 12.519610457577047 -0.3698197654098792 -1.5585806248843224 0.8784112244057388
Ni 4.549224580842916 0.10544817151206604 0.3636982296312887 0.814452462165591 0.7452486494764198 0.57253145218293
Ni 1.5681804760823226 0.6268539786262054 8.11096952996753 -2.1559299074418807 -1.2497703092782797 -0.4061329980186167
Ni -0.08733893645267064 1.2067734022901362 9.74243275451804 1.2058887774039815 -0.01017462654015667 1.1395795126537858
Ni 1.8927450811869557 6.080941918674623 6.1135548529903225 0.08071001355655777 0.5722668856676337 -1.0332417712267947
Ni 8.140032879719588 8.633209864042932 3.423625047079123 -0.49613394995879717 0.4911411247298961 0.5259104098902814
Ni 8.38772617177884 6.737430139360476 5.783023380112662 0.6591565456723423 0.14737100521921717 0.09155132714643588
P 5.053013334139585 2.2877228986481093 5.845676440055534 -0.2887397701084124 -0.43522734428141174 0.3999178703468403
P 8.248483451640013 2.2284525178766277 6.824265514658112 0.7335619571671108 0.9328301654762515 0.8998297992908308
P 3.639533293501292 6.376373946222458 10.431713143151049 -0.7146964877211756 3.498317266126949 -0.7279991183673526
P 5.761251709684636 8.647264056731466 3.0236675693070727 2.5048694869686408 1.4315599011866829 1.5364395700109086
P 7.505488924810567 7.185040054946705 10.159115859580757 0.2464448659949433 -0.19897870209317992 -0.7637816752836007
P 7.455037976697882 7.257454235358072 13.089580992206198 -0.2244673332825876 1.3602408419267218 0.6746649257205865
P 1.0770518761184407 4.962011962318284 1.0568515820254274 -1.590123946908242 -0.030818270932437247 -0.8287745352152177
P 3.497170580518655 7.665452570067103 0.3035184041372495 -2.0184059702200723 0.8752917049401506 -0.603586778826838
Ni 1.7582534747707714 9.226700782414394 0.6958797899096267 1.5087109937473888 -0.04500536106609669 -0.7381130668729029
Ni 7.945265666874038 8.998002461984784 7.287319868984251 0.5266645144474865 1.6428742420270805 -0.9264893108598883
Ni 8.244936712054649 3.464320564679869 13.344454061110584 -0.7434131389295777 -0.513257239902645 -1.0060919502848802
Ni 5.53432675904771 9.27105399375331 5.633566239633202 -1.4646057758980582 0.08642146211903826 -1.5749703790962555
Ni 7.185125404295016 7.697411159379086 1.5004937012412904 0.4522524180844985 -0.1465978744986185 -0.539276289674226
Ni 1.9056423160428302 3.4338034310282484 3.8660409806575857 0.46614923067124875 -0.41257489698921845 2.5872669155299506
Ni 8.261864332802984 5.013885399569484 10.10960659927777 -0.910273106111342 -1.0029477482289437 -0.9553154910629612
Ni 8.554356549464552 5.584559592159157 0.1192709726340679 0.7034432834048594 -0.07400071985718223 2.616849257172758
Ni 4.688078487283881 3.2855990293167743 3.6605102666639344 2.2015777871879827 -0.8652358633660453 2.803029779060005
Ni 0.8329498949708937 2.7246736289563955 0.38807495183498375 1.1678853015770145 -1.8151908614480419 2.3982733496739406
Ni 6.70609744526944 1.0010909561217098 2.5450388555663737 -0.4054547410046695 -0.4603058845165943 1.4489626700441625
Ni 7.7336087663238455 1.867993770176785 11.358711381677944 -1.3961804932461246 0.5232068949161893 -0.9632859108629473
Ni 6.78318687331606 3.5259996937259035 5.590234375495741 0.9019311619045498 0.9457196198444099 -1.4792397237611492
Ni 5.663185308475373 4.889683131255229 2.0440097311984236 0.624811235423253 -0.2992044170851621 0.2891115516255343
Ni 3.769719499458236 5.516156831118405 12.836761997617828 -1.4399221571084493 0.6234439227620812 -1.59343475644903
Ni 8.017566048154322 5.615247424507399 3.045444929691654 0.35868380339771777 2.372201335177237 0.13631577584632007
Ni 1.238684575297502 1.1925295443831336 2.441940636111135 0.11349440707643034 0.7548519768941387 1.1910658534585359
Ni 9.265610601983255 8.171071592721997 9.212186651571074 0.06814631795893425 0.5843767815572903 -0.5479339653492241
Ni 2.586796498390544 8.530563047807648 2.914184270272085 -1.2700568274414576 -0.3559386365524128 0.4644235062293937
Ni 4.287524512399746 0.7501752520006733 2.8567498488153804 -0.7842291445046752 1.0180568359562403 0.3139358097580658
Ni 0.22566462526020062 7.286131616390544 2.22226658677627 0.6855949423695289 -0.5854844127991723 0.893257545389952
Ni 5.961737328867018 2.406842139107402 0.8729189947849039 -1.0079778544536833 0.3363627713030143 -0.175177228798208
Ni 3.873807771353881 8.726667400443404 12.169758737220066 -0.9077428834903206 -2.071529332407613 0.28288125444510637
Ni 1.0152968809850185 4.100467190684951 12.692176408274737 0.4950245189447023 2.1503030481734062 -2.3229035173833736
P 5.349241955604989 4.734337834068406 -0.11965978633192882 1.6395994279305506 -2.9805060883050345 1.426979223794536
P 1.0806270654865764 9.400140141443133 11.48948554981214 -0.02579253558307171 0.3474465399210016 1.2350492010180212
P 1.8494445118105423 4.6099648670575295 7.633161118296709 1.5451224424968875 -0.7689945869431078 -0.46369074182842723
P 2.6057061206718775 0.4909835060717533 4.574141848919246 -0.6862161208932956 0.5257090925127527 -0.0860116282751293
P 0.0846779334375542 3.436250112346495 10.72786495020297 -0.897214216044855 -1.7901251767286657 1.2212290073054775
P 0.38944243806014334 5.7446370365467745 4.487976940168897 -1.1123093640839232 0.0539905952838425 -0.5418029127508217
P 2.400431454723159 1.8148495759618437 9.729399909030962 -0.08591238369310365 -0.05054865948182908 -0.322991749312747
P 4.207457340423168 5.476867681112605 3.638927313128284 0.6307512550567718 -0.3110258352001224 0.7798310154369795
