# total energy = -340894.5194787581 ev
CRYSTAL
PRIMVEC
9.01154625531811 0.00000000000000 0.00000000000000

0.00000000000000 9.01154625531811 0.00000000000000

0.00000000000000 0.00000000000000 13.18930884571949

PRIMCOORD
 96 1
Ni 6.082009552101493 2.0804235349108033 11.50662952625303 2.1728518800081997 0.15808530631292775 -1.411185451295389
Ni 4.646127833994496 0.3829420430673762 5.890608820626682 -0.49039576192343937 -0.6800033072143644 0.8096516983428379
Ni 2.760894385655619 1.469332576895316 4.816590238315574 0.21735643326941922 0.9247754134925751 -0.4868216714189358
Ni 3.5783857934792036 4.637053207162643 5.18122172104567 0.2142896214186374 -0.8670402635646358 -1.5490071222632742
Ni 5.153973509375886 4.597141069885309 2.8420721944209566 -0.9990928932592278 -0.4052539378477731 -0.2538267602813113
Ni 7.102720333991721 6.167087557979865 2.745961352762805 1.0211419026394672 -0.1737782915681523 -1.2162099568243312
Ni 4.900830170415037 4.446287789681521 11.477850252916182 1.1315975228895736 -0.057355140880701226 -0.10965780693915952
Ni 5.406116566729648 7.9097493368979475 12.384998433145713 1.1571607160706587 0.1576944986324123 0.4587048585780616
Ni 1.851539277808294 6.468028136976609 0.2210775547942332 -0.3951767561174291 -0.3978350196758826 0.9276082549556799
Ni 2.691307227368065 1.5419476146421573 0.35832610398704967 0.10190747356977932 0.4930769083000282 -0.4699776032784035
Ni 0.7204325515252039 8.957260456621274 4.919202910419784 -1.2333245050174308 0.6043269994269721 -0.7942325355742903
Ni 8.541116273435447 2.4976310805257826 1.5679981918472414 0.973460280292788 0.18234469308092466 -0.4367921176653703
Ni 6.736824531356453 0.7633437313145943 4.866010457787832 1.2212971415392515 -0.4405017053064736 -0.8980302841882468
Ni 0.6818721461493372 7.596237651217554 2.716799989875144 -0.6994896980737502 -0.31090859289596773 -0.10506890201689646
Ni 7.39554151003365 3.93308925597032 3.871906265491491 1.7177853895136739 0.08856524793491843 0.14582834332244562
Ni 7.432191467655442 3.8842827227813284 12.602357824056309 0.5493575851696281 -0.3928514504183621 0.45006029552918614
Ni 7.757544324792691 8.87845448676571 6.951332669109553 1.6420486608019915 -0.49230969111670053 0.05901453086099514
Ni 6.757217659976594 0.9554762003254006 0.5120072073287077 1.1363476359800495 -1.0925614920330344 -0.6312773027635709
Ni 1.7543407425467612 6.446968153951744 9.164986504847409 0.3306940030530111 0.033709733547619365 0.45741853566647034
Ni 9.096795235036772 5.172492236425992 1.363853332005393 -1.132885645573378 -1.1240112259018835 -0.8304094997154795
Ni 6.393908171046134 1.9197476695563505 7.023913462981558 -0.5574712154156979 0.40703982610360223 -0.12525051917109398
Ni 3.218680922952657 4.193198519996732 0.30311416389430373 0.614690087828851 -0.31708695379253776 0.6908844729032424
Ni 5.9194502736309955 5.69079130517873 4.8496292694512455 0.33854666632821045 -0.5964671370629212 1.0464682972193977
Ni 5.220244418731839 2.8644280377620293 9.261071213022133 -0.24254604516116943 -0.2662495594256963 -0.3278786450914031
P 0.22498496114407562 5.363681196569574 12.138476778192853 0.0065848523063693045 0.4785437476808597 0.6436293965710206
P 4.061494775063736 6.0692041452215895 12.644366046935518 -0.8756997390118467 0.40764223557429147 -0.009673518534022051
P 2.046810468294308 8.413674989765079 1.39098439357705 3.9154430157116433 -0.6575771170003643 -0.24191586777633822
P 6.308532784149438 7.658029822206644 5.9676214928262965 -0.28486383209277394 -0.05681469499619893 -1.7801870916793467
P 4.72489775766602 1.0942089511460287 12.646990209133568 -2.1867108973784792 -1.3538079418171847 -0.052702986820670525
P 3.9710458877635313 6.227753285717733 8.348462937065277 0.5086428810590853 -0.3224171077561996 -0.707533394313833
P 4.801504910295195 1.087423257000661 3.698242960027738 -0.42177970341693816 -0.3706150076176649 -0.22215668287154
P 0.1230418469083917 5.609948725924957 3.5197783028499714 -0.03295357210788518 -0.6471325246282725 0.6695620572763824
Ni 1.6610351951614555 1.1397442931334683 2.533455580533079 -1.1689032013185674 0.7842782525750558 0.8392029296373933
Ni 1.8224139611046712 6.586935486575713 4.66726081054204 0.5596908487748361 -0.40231619537568775 0.7102752187250283
Ni 6.090561509264778 5.519752161913026 9.156149782830216 -0.108197163233233 0.3859827483229869 1.0445867639259687
Ni 8.54898335310199 2.1905266040583466 10.056821364942513 0.2558880136857141 -0.0738752500229115 1.1059487119732179
Ni 2.424078841993924 5.246134590417949 7.073782457445103 -0.8180507210398106 0.705587840551688 -0.7170279640678296
Ni 0.8123061642495549 -0.217743282770613 8.924413371415609 -0.4548420331885457 0.37586442894206235 0.12464065350123694
Ni 1.4623035710076844 0.9049124156645014 11.359871993710689 -0.6447869072142315 1.1251311984389398 0.3185288284453869
Ni 4.018104181026624 6.956697242449178 1.5253699746025582 -0.12519909710786825 0.4056015509951789 -0.18891514720959077
Ni 5.7231878130839045 7.84068484827896 8.087789550258652 -0.8589441168200626 -0.8650556290344391 -0.18597123408991842
Ni 5.403034617994301 2.861021673370331 4.829700235450608 -1.2817489190674054 0.5116898954155252 0.47835142916439544
Ni 0.8336229763356994 7.265180485456112 6.807265984205734 -0.48500107327042924 0.24253396097631133 0.6171629748493758
Ni 5.175745404535524 4.599646279676029 7.252694988459555 -0.09964773100132515 0.11731943724947537 -1.03964690342219
Ni 8.233804531409787 7.109433935769011 8.988487265854378 -0.5773473855143347 -0.3937047995575929 0.44950005215034206
Ni 4.6651421960751405 0.32271517762018537 10.315885289631789 -0.3565752416951472 -0.6548777157913303 0.7294337939313502
Ni 8.18605234910394 7.1186797819750485 4.724515668115205 -0.6425783295986869 0.6121920039973456 0.8946004325710916
Ni 7.345518418133338 5.965616423839119 7.022265251216368 -0.4326534129066484 0.04591167493044997 -0.7869838244316769
Ni 2.104889882327367 5.326148107438822 2.609372448737905 1.3696073707432863 0.10785263540962071 -1.2513204273742191
Ni 2.399215986552929 5.066804824823243 11.472706462453798 -0.9588433017105615 -0.06493655277238494 -1.5504358842900008
Ni 1.1996710740985332 3.476465208108544 3.6863459169856205 -1.239421619054104 -1.0481978783159946 0.5306877766742667
Ni 3.5198017328695963 2.8472700541594005 2.6009052001071122 0.5939600543703513 -0.3851062592553045 0.33199935212799603
Ni 1.3286623436825844 3.2773100412923126 7.923160319669707 -1.2844053828536461 0.3813318798145368 0.9104443415818837
Ni 3.7991957053569463 2.757812436920273 7.029545679237673 -0.7593097555551761 -0.9507836646308786 -0.18607047867194407
Ni 4.165947604863144 6.897617546809032 5.989989952331783 -0.36696301268737447 0.2648331386941439 0.4469330627541142
Ni 0.8056871837053684 7.453837201170943 11.393188580463463 1.2925436956900642 -1.635657926784299 -0.16807249943262667
P 0.23937369665789807 5.356120509467364 7.808954293623909 0.8218965771484619 0.5424554587331561 1.3962486274798986
P 8.766909570256601 1.5275471641185219 8.038091775169294 -0.938671454748377 -0.14043956820670653 -0.48740274073338635
P 1.7648031474641208 3.0880225173567952 10.252168252415009 -1.1598776007811895 0.30385014338728955 -0.22204972498003048
P 3.834692185089486 6.206531094864691 3.582163433566505 0.40768003079076237 0.21389341442148324 1.1818237660349775
P 6.921876628667372 3.748217389579597 10.317455100946693 -0.7650206898970244 1.3286741228640342 0.28207958447941744
P 6.4421559883825195 7.836034890537912 10.207047441544018 -0.8214376352341723 -1.7087248219733024 0.6428441816655638
P 2.515627137907322 8.417991520303767 5.842480856852227 0.6517520256781549 0.15027120958514764 0.27113542676308783
P 6.890065871252833 4.149880018327699 1.6547442348920254 0.9416099685514105 -0.9313723499838025 -0.6975767973217535
Ni 5.291408597571104 2.8415657455352075 0.5399601218964574 -0.83622122130125 1.707050776704989 0.4196695990524708
Ni 1.6154277608059378 1.1040856055727521 7.014298143389118 0.7334058912052207 -0.4448908355131047 -0.6974999213372309
Ni 6.831959422581745 0.6557035176915248 9.116687321698771 0.24043594079670205 1.2852520471246573 0.006250866005718267
Ni 2.706428601572483 1.422103064258037 9.222518016883075 0.5651636989639492 0.1707850132677833 -0.818363624294539
Ni 6.412210620992006 2.1916981050396185 2.6163365714942666 -0.6117621155487787 -0.8728977507866773 0.4611576909939284
Ni 4.231966190930823 6.735031233700505 10.528405480335131 -0.1382232772816781 0.6542087147487635 -0.6676722964528372
Ni 8.159261022816851 7.0632587740148765 -0.06928346918702397 -0.38086368192886666 0.03515546485521042 0.9847471660605168
Ni 7.588685975661355 3.703105590254617 8.164880622908553 0.9500678695107767 -0.22185972045641145 -0.05240036797858717
Ni 3.0060084371217495 8.299192309256782 12.491976298137063 0.7032777043612726 0.30767080268496044 -0.22329413891009284
Ni 0.051774035290013246 4.556318766460986 10.065460734102093 0.23678857385210186 0.9287331125887426 -0.02945378648474282
Ni 8.704964202985344 2.235440149371111 5.879740896138881 -0.26145959423622067 0.3688571443862938 -0.43427346500857467
Ni 3.5083030001611117 2.6127986385308253 11.201284103566703 0.9750726190852305 -0.7275897987440759 1.3581363939892093
Ni 0.8512829030510736 3.10788396476236 12.382597757288705 0.10971385698807556 0.4205982815143272 0.23974405693600007
Ni 3.224304127662762 8.310411684038963 8.04903900126198 -0.21208310068562183 -0.5284226347891738 -0.26968198214601297
Ni 5.596350302996193 7.700681469470953 3.6131982968696006 -0.7192915632910256 1.4164407861570574 -0.024205136491293796
Ni 3.142281035881706 8.419063894278931 3.5588451571115876 0.4056766272074884 -0.3407629572532389 -0.3595937168064969
Ni 3.2391100977568374 4.342024202348318 9.073122804823669 0.7747541151347044 -0.8267626469915117 1.304883705312656
Ni 7.035331992930555 5.96731059448896 11.4023416077456 0.01332422791273189 0.10181337119407625 -1.1663320981572816
Ni 0.3704718656990369 8.964713005171365 0.42485294124968065 -1.4060396454283912 0.9008839515869581 -0.48454958755530736
Ni 4.6047648378095865 0.4129865374639968 1.5582639198474726 -0.22477895098573547 -0.37597138683357184 0.603992756016005
Ni 5.958118817558979 5.700217382304966 0.5191803979524959 -0.031850054631061275 0.1986567999773869 -0.6726756632046996
Ni 8.168029257084372 8.80704699618418 10.93524253880205 -0.5012571301179755 0.48246622266371747 0.12943884622082868
Ni 9.133832689136986 4.737189506423365 5.648941685509293 0.14892883662464027 0.07709709939431883 0.01253669901443002
Ni 7.661679498340607 8.890872397167193 2.669924630996049 0.11830751219435755 0.10407517064505947 0.0874856417174945
P 8.701107261293158 1.5109028386384507 3.668738257237103 -0.4689437626972504 0.7099941971494999 0.2006362923012609
P 1.6791303795491022 3.282536737977988 1.4893760575302781 -0.45888817823346134 -0.2634933368367978 -0.2740425731075538
P 4.732458444768229 0.8953592757395291 8.174166119917036 0.3150082168866381 1.7009348936152382 -0.680348349258609
P 8.394588535316357 1.4056389696981613 12.27102941075997 -0.2892133673107212 1.4234575837945227 0.8473227305310504
P 6.495441259938373 7.773125287843608 1.2408421243534344 -0.7852228758765123 0.060827158589701696 0.2657546220671488
P 1.8594333921128647 3.2245564509510363 5.7826144532454276 0.9697581488508524 -0.15194731173598994 0.34389636067589807
P 6.951740892143796 3.9121374114975715 6.008666381437061 -0.39297306359789097 0.12761747674137375 0.21740836955327716
P 2.489863127865349 8.412972089176316 10.267045413722562 0.4943709445211034 -0.6914105206100415 -0.1526628497457758
