# total energy = -340893.4477945957 ev
CRYSTAL
PRIMVEC
9.06897881364432 0.00000000000000 0.00000000000000
0.00000000000000 9.06897881364432 0.00000000000000
0.00000000000000 0.00000000000000 13.27336720019767
PRIMCOORD
 96 1
Ni 6.482242953335728 1.812471663226346 11.339875415912184 -0.7687917269036825 0.9645552644936741 0.8499848507442459
Ni 4.743801362997173 0.2789518080299261 6.0713311573640665 -0.4903201714904975 -0.5948815377433561 -0.09651818423340797
Ni 2.749832229636885 1.5545499098355844 4.881904677090347 0.08454738502477696 -1.0379116658986385 -0.3104077420001493
Ni 3.674659467524709 4.463025783356597 5.046069515189113 -0.888265234381683 -0.7928577667139506 0.06791543289505078
Ni 5.269040331681397 4.2705729869886175 3.143358793497081 0.8045110346821628 0.6352956798943447 -0.8926304533289143
Ni 7.502303536243115 6.35429780225145 2.560657869058313 -0.4483026894081311 -1.322051475341194 0.011333422734948223
Ni 4.747918679313608 4.721310295894181 11.284047690114077 0.8442618322175396 -0.08447436569499644 0.18888455108197147
Ni 5.7439101928293255 7.873614729951903 12.686339423947476 -1.7128884664326887 0.04326652399811903 -1.0121607821867793
Ni 1.9206010959154476 6.46336133974362 0.26976221194304645 -0.7151070928960329 0.26550985304619434 1.404225475037788
Ni 2.7850470738146744 1.6315636767059905 0.5166978045722902 -0.10952565223666944 -0.6977997119658369 -0.8965719544751656
Ni 0.5111838655405889 0.35336549871548223 4.67641975837277 0.21109733973358483 -0.6107493580135481 0.6225982869323341
Ni 8.679502312575316 2.672201772216881 1.398627866450492 -0.8352827686473809 -1.1120681946073943 0.1652255169021348
Ni 6.999646324448588 0.5186993281648831 4.677720249914129 -0.9570245033342679 0.10333572137587364 0.5889898548492695
Ni 0.7433288608560145 7.631346033746531 2.6828260807294435 0.13703645606242848 -1.6442968334062198 -0.6170966403878146
Ni 7.695699506392834 3.925561831424456 3.9726388997033397 -0.005490590800926027 -0.48718162586151575 -1.0920220745897968
Ni 7.747809857833878 3.869524612219058 12.771420954243213 -0.28089893390775494 0.08156439113705308 -1.4221121255102218
Ni 7.894799864126335 8.847722797935557 6.825218123188349 -0.3891865999722652 -0.24422394708422454 0.10333469293460915
Ni 7.080849959464794 0.6052645433711241 0.4544710074242343 -0.44454939301328594 1.0887585733471763 -0.0036237127955163393
Ni 1.6129994773673515 6.673262851073759 9.049263617829308 0.7434545336904744 0.09463767938124347 0.9906679024203261
Ni 0.11567119535154038 5.043794108440668 1.274686669449267 0.0036088003971808816 -0.13299391056193868 -0.14471274166076367
Ni 6.465565101560566 1.8386084597549035 6.915278522774224 0.7429562538978172 -0.10778887205122083 2.045208435124897
Ni 3.4433733044893855 4.303139689394603 0.3901039313099259 0.11869729143360849 -0.2919677901274068 0.06791697555694755
Ni 6.2267063413353245 5.678024062787698 4.774788249318747 -0.2726428645465498 0.6234986872594165 0.8430212749422191
Ni 5.199989128083744 3.0942901775021423 9.247807140272437 0.20870724223485349 -0.0737189269507053 0.4086112843557801
P 0.21374313069498962 5.555910264988591 12.263940859591681 -0.04079697941170393 -0.01837001786675546 0.5162425477832141
P 3.893385095101305 6.282217559777829 12.705970135177772 0.929796006635618 -1.087072186783689 -0.47551010306085856
P 2.229816992666904 8.483902580608653 1.3000426269142888 1.223066060514216 -0.04361413714552489 1.3230274661012182
P 6.267063296419321 7.586717589708699 5.8912774686344775 0.37419835409354907 0.9986869160700607 -0.4072722538293824
P 4.682939447139036 0.8487620861863582 12.846747891080895 1.2691867661316787 1.6204441951583384 -0.9935254264737793
P 4.09010938042312 6.223541267779298 8.292947072619182 -1.1534896949769746 0.556851322443512 -1.1201329738934
P 4.506429915273904 0.9243828579329662 3.807345880657956 1.265913751807362 0.016221861175501093 0.06649618395002097
P 0.3331407693822636 5.5029564985311845 3.4338735493319725 -0.3310608994741266 0.19409489163831734 0.9338614349542433
Ni 1.19850180722935 1.1044837053516419 2.3942901760404682 0.6148695508295088 0.35173616843529104 0.6212001210332269
Ni 1.7177552499910045 6.5248308771726835 4.763240718777521 0.013478236992092918 -0.5753807487062671 1.1342141345768144
Ni 6.026445154331991 5.871102618683947 9.180948815717324 0.019387403387676288 -1.6308401936806816 0.6599625865134053
Ni 8.376126838087703 2.379663727240587 10.085330041192368 1.300251091636651 -0.13898946602374126 -0.6154153960306499
Ni 2.2999111288116714 5.297489717770949 6.987286213418479 0.1335554394923635 -0.43072534264600015 0.14973179214190988
Ni 0.6069858355227967 9.257432047335502 9.13968224207267 -0.9192570547775072 -1.2902515572217779 0.6999648379379558
Ni 1.5116989856171825 1.1975042195755883 11.46072953257395 -0.035881544387957556 0.22896907780768308 -0.2358526923013938
Ni 4.205947444982198 6.924183352930848 1.6679846950469643 -0.3135293183482665 -0.5857284104891783 -0.6181333091824451
Ni 5.607412994858709 7.940489378668622 8.06167269925613 -0.06203017775886737 0.5630890758231076 -0.3271852185688043
Ni 5.215506150589075 2.5009431790020025 5.188333676696339 -0.6932779128360834 1.0187623466636972 -1.7930060978208862
Ni 0.6044746353289183 7.450964047989068 6.948222494692905 1.1587116054975466 0.08897559599945966 -0.3175880617986724
Ni 5.008488574476174 4.659360102595578 7.084752340986736 0.35685369216751445 0.058353757348544665 0.20579418235311656
Ni 8.11851342997174 7.15998586734411 9.247169591071895 0.8824596834434996 0.3149387971012834 -0.2662333614757802
Ni 4.7890374286059325 0.28286869991774155 10.600097967103563 -0.7620860327487327 -0.05768989851230064 -0.3219265412730262
Ni 8.249814103164125 7.219170022148193 4.744923195658722 0.009790760838176687 0.312762615385571 0.322267983772845
Ni 7.494404455821056 6.102969196354187 7.049870328326156 -1.8161678806493304 0.37921251947868884 -0.6574642455715838
Ni 2.3500444429025342 5.005060500538702 2.6664066948463923 0.8781507716555005 1.1182851220513839 -0.34131343044007023
Ni 2.2794424439522145 5.506411779404668 11.349166584560175 -0.07064363045949125 -0.6370594566629868 -0.2548832265702836
Ni 1.2684236327793772 3.299194681584803 3.925585410768999 -0.9328347934619419 -0.319608691773127 0.41664932416890826
Ni 3.73738052401031 2.714880385840542 2.655748831112749 -1.0534002484525407 -0.805618923034361 -0.0656970850874933
Ni 1.013204435032443 3.2203671189802847 8.26340124700836 0.19196833221361778 0.3215228780767044 -0.08079460285056408
Ni 3.7616309729753907 2.634674338478099 7.299714342415048 -0.039368217384977366 0.10990231884979783 -0.5380352181782734
Ni 4.11468631262034 6.87413165964802 5.8130711310688925 -0.3506311082965703 0.6150667544419793 1.063838413066729
Ni 0.7547720981425285 7.486986031268537 11.498412952745866 0.1690042672182767 0.5983656396372146 -0.8426209541800069
P 0.22252280894596 5.482079709631552 7.878022253585796 0.8701255873581788 -0.5349941173591044 0.931643601367318
P 8.486051928553575 1.4661999196269768 7.971400085569364 0.011852014242579588 1.7816953007937573 -0.1278535040115798
P 1.8819400398428452 3.2823807951295825 10.472421257787932 0.22750226345416946 -1.1754137487435756 -0.19551851145872134
P 4.17609236719871 6.122667018026646 3.82363195255455 -0.7902894917661422 -0.5999342696759152 -1.7100710515885518
P 6.856057185157592 3.919340512056451 10.457780298622179 -0.5377500828376868 1.2120316570769254 0.18670091316709134
P 6.269502851681702 7.695790196179539 10.4264687428642 0.1698077369561785 0.26333521399237875 -0.382373947925806
P 2.3052074123552795 8.529156784174752 5.839139910257421 0.1615115583856573 -0.23529887668045285 -0.5058887153527157
P 6.85069741876329 4.067636451277468 1.544090656734826 0.22836101191003896 -0.005996326792750964 1.101564209752277
Ni 5.5599187535609795 2.8788384512256187 0.2218235906904597 -0.8605279163674148 -0.49562101487812066 0.030068280140290154
Ni 1.6631599983942258 1.1436526242297957 7.19301055317296 -0.6723401342421518 -0.6307941924795653 -1.7255354657727378
Ni 7.080686717848723 0.3776513166973782 9.33004917334642 -0.6783382608071156 0.7678702435306776 -0.48547827001716387
Ni 2.80354779030262 1.3984093040645316 9.215871638781922 0.6644671592519783 0.5666112300437531 1.2667041089191409
Ni 6.283768355130495 1.9731830342473617 2.6002920265422667 0.3714596150061474 0.2768718150262328 0.14506009769785339
Ni 4.042578863210708 7.019652491395846 10.406864331672047 -0.2892431921073922 0.010728442161097654 -0.08553751685218818
Ni 7.971024629852402 7.090399594004895 0.031677035598403354 0.8808979953833345 0.21110659570496543 1.4758834056944066
Ni 7.560100137310601 3.934304326862877 8.272930929795386 -0.17807460495066105 -0.4643689988423744 -0.6827541304866241
Ni 3.1304572644403406 8.342707651686684 12.554428408490562 0.02723466734623697 0.5679451183638283 -0.7425834439394308
Ni 0.17544483376920952 4.740092150720914 9.99914572309029 -0.2563603253364424 0.49835229776635454 1.0059939912544351
Ni 8.703045381204094 2.4937605478949183 6.033143501978067 0.21021802245242505 -0.0968835379926267 -0.5600418043563515
Ni 3.824025546228852 2.492082786840864 11.555235545504136 -0.3417613166107662 0.07086063156630378 -0.18697576409503283
Ni 1.2145266925402318 3.5673643808732987 12.555954717600816 -0.32432872295661563 -0.4913655820358763 0.4214660288312613
Ni 3.1344385460767166 8.26572109175229 7.879893183885534 0.01367981147993773 -0.1471432054791272 0.39549814401258987
Ni 5.533772888053751 7.836459124338614 3.5727123575953286 0.2810244037420257 0.811745604757389 0.39808056002778536
Ni 2.8570184885442482 7.978959986189143 3.5081639019076087 2.101123501124962 1.9783648951377866 -0.1644151051856975
Ni 3.1738795343149873 4.53934123886937 9.329690041791066 0.5251527057886505 -0.27645118254904644 -0.9057896164186917
Ni 7.302350694514581 6.047993047653245 11.330292226151004 -0.04261037847135887 -1.6830374445095273 -0.04235506792744318
Ni 0.5556681128175589 -0.041165001083544525 0.21240001495387953 -1.1205734038649282 0.4828626867711878 -0.4368952189021379
Ni 4.536475441609473 0.33126621149105867 1.7268786425335891 0.14134048275442113 -0.4963460659696032 -0.31095538697350317
Ni 5.829911317562258 5.4609671272864855 0.24736092772889312 0.046371902396320136 0.5125005642422786 0.07317025353608689
Ni 7.8615529883200574 -0.21396259997881723 11.608740705864713 0.3997628328262147 -0.09967189937104123 -0.7871874558020507
Ni 9.165019154682485 4.915277611700145 5.68828833284704 0.06533713064491328 -0.3737808069401563 0.02268458608170932
Ni 8.061959278982119 8.935202166191791 2.5916248036268117 -1.552265738409888 0.3457275003473658 -0.46899672742237297
P 8.34003230297887 1.8224294018066223 3.526680942557161 0.5768295653376517 0.2254330396299666 0.3926501330408334
P 1.7553915114738337 3.1736346718908823 1.5893929258878805 0.3746722084061741 0.6462092414830548 0.012729788861842593
P 4.9276476986067905 1.090998134068517 8.417955688409933 -0.22949409707321766 -0.8907288654308273 -0.41542110818876204
P 8.573839642084607 1.8360328698124642 12.195914450583802 0.1902876020770852 -0.9989000605221313 1.8468249434135549
P 6.39113599361127 7.795957065595887 1.4507654248275486 0.02972632341983913 0.30133123362017783 0.693381014072851
P 1.971441790342614 3.0843415079005365 6.146033241571346 -0.9029516327492643 1.757956562415921 -0.09890288241550063
P 6.747964028383173 3.925725073040526 6.0346571145181835 1.1824742551347827 -0.14863470242298918 0.040288672316717705
P 2.292374807536435 8.50294743581683 10.186818260801017 1.2289001506974901 0.04507709484429656 0.8704163791257202
