# total energy = -340858.00056784635 ev
CRYSTAL
PRIMVEC
9.30363096728502 0.00000000000000 0.00000000000000
0.00000000000000 9.30363096728502 0.00000000000000
0.00000000000000 0.00000000000000 13.61680434605352
PRIMCOORD
 96 1
Ni 7.635257093296419 7.082677253774992 2.433254816727666 0.25318784114573173 -0.5668452004314303 0.47784440762098995
Ni 4.3248392312478225 -0.040978771612554796 1.4806095551221747 -1.3198333846439527 1.5539166437497496 -1.1465423171248639
Ni 7.304652577732659 2.3694021387702384 3.343865344640499 1.0934580357053747 -2.1091160324121354 0.2765270300923044
Ni 4.0280906276620145 5.457937713167784 9.996899073731727 0.7693154606176364 -0.7934524628751561 1.945426492538553
Ni 7.494902521133906 4.649210314268238 3.451546496282163 1.1331183304094743 -1.080957589245519 -3.156332263541151
Ni 2.5984296147694805 7.1763741181690435 2.02039318103149 0.9055253070137115 0.35538327826957505 -2.422595214248757
Ni 0.2657740260237863 3.870635982343285 4.845948609692959 0.29129236132693703 0.620522378239912 0.7456114321324773
Ni 5.194449589197578 3.0077614529926047 11.585231646833542 0.5129456221994972 0.46197375913732047 -1.2537285225950794
Ni 0.9943348306006008 7.561339747689156 3.411758589394306 -1.521158218371806 -1.872074719119279 1.7966295535060868
Ni 0.7655632044445557 1.6135379692905123 10.139862383931781 0.26834577983309266 -1.4366895091037644 0.8699512665638437
Ni 9.02904330635741 7.973927856643878 5.219456818053182 -2.7471782193080236 -0.48640978069249785 0.9839539807352602
Ni 8.663866499254748 0.15435467558224902 3.1843164520598193 -0.20507427346795648 -0.5240810699910265 0.8051527820312199
Ni 3.034648945604938 3.723340901707139 0.23517438477743186 -0.7947853227539667 -0.12164608964928729 0.9969845886669731
Ni 6.541764167103344 8.724637814737019 4.363586061864634 0.9245866945205367 0.4440372292635578 -0.3299010748380705
Ni 2.13118267567723 6.03803769218654 9.076662079173225 -2.015738193579922 0.968879860010957 0.2467767954130653
Ni 4.508520811401905 7.820334218049757 3.1313471612504564 2.223500812513319 0.4335612694328984 1.1709911941958477
Ni 2.248045580418932 0.05598459750682207 8.911707777178094 0.5074360052351777 0.554360180590542 0.028948307603234014
Ni 8.67494712337284 1.511039870290486 0.9670807749401962 0.10935595942802458 -0.1356686291806244 0.7525369556077168
Ni 6.955050048357694 9.235388530803412 7.469660840785629 1.1597950683697122 -1.4241312128227797 -1.4790540901129046
Ni 3.783944751837499 4.175022866702354 8.182691094698857 1.0689957888979527 -0.33429637569228876 -1.0191914637813155
Ni 7.3782349926361 5.9262359625248076 11.11727577108487 -1.5959312976186386 0.16308430218941591 -1.747701460346816
Ni 8.532043356409021 4.91229838211999 1.0969203837288473 0.3970248650697614 0.14871157840751165 0.8594233704493264
Ni 2.9474274081514342 1.19734935526971 13.460945928170961 0.9765376336665311 0.7189755747125037 1.7548290725305327
Ni 8.521055768597545 9.023628593312297 11.294172213397369 -1.219692516056293 -0.054617430234564 -0.40911702034760505
P 5.872581924498744 0.9955536062172845 5.700252634478075 0.05547772135233026 0.17404542918660992 0.20765746081410044
P 3.057266071743548 8.110123705900607 13.401903227265635 0.13140419747731563 -0.06973705948482184 0.7111391093872204
P 8.396973246462359 2.698173839093642 12.680267114990327 0.2409743297986753 0.6807946927674081 2.335610680537397
P 5.6003390840758716 5.942768514210661 2.5698311844784594 0.5607509146082342 -1.3108363233516651 1.6080957008953145
P 0.7550538232490915 2.606067895542742 6.730759050728327 -2.2880285598830596 -0.7223563182592785 -0.7016255134698303
P 5.17548878990902 5.578577891958139 12.42997712147682 0.49539192958645006 0.035918825383796205 0.10671029427506137
P 1.7893021597514815 3.777367084959672 12.231457180780382 -1.0492995960206057 0.7377785663516198 0.17246162963925782
P 4.765356839448989 2.3186415298799647 -0.13446165250138706 0.165427862720928 -0.534627220937989 0.9817595441871028
Ni 5.05776064751578 4.310232531108943 1.0192425106081229 0.7965928082763507 1.3234259870912175 -0.5719179869686473
Ni 5.457500442526683 7.2494448333860895 1.0163937388995081 0.023893261677829816 -0.0433138322962867 -2.0682915421966057
Ni 1.4580091755187559 5.813736460563446 0.2552879039049763 0.37197743518283033 -0.7016532813839723 1.3141941840803044
Ni 7.93551316564169 2.650846269917538 10.717322922931812 0.15703218245806502 1.1396466184462954 -0.838264219873208
Ni 6.206907892327185 5.6988180146300405 4.738130694680569 -1.7115941731012974 1.9428474189574672 0.3126978235859066
Ni 3.110678215372408 6.163534366182307 12.077301602894295 0.25272427124575186 0.2921374829360517 0.4525964316874786
Ni 0.8511054365636211 8.41322668922836 7.336856164905092 -1.7784384844193566 -0.28883387248411546 0.8823779223629707
Ni 3.5586480317336013 5.103525206740716 2.5278913478185503 0.784726652966384 0.9682486541848614 -0.3486693565845092
Ni 0.851458974528766 3.8884803459524395 10.224136531191657 -0.22651830227434533 1.8142331255204627 -0.13509604450660606
Ni 6.584523653624549 2.538393286109485 1.0695798043032887 -0.2577078405032723 -0.30491869386112 0.15182081346045465
Ni 0.6244001467775411 1.8363413163770723 3.9351882933264735 0.9851960806724774 0.11189826623390406 -0.636496127960349
Ni 7.449872948731245 3.5133951721950587 5.499337008886247 -1.6283991883393572 -1.0108757448267687 1.3908757932037594
Ni 2.0879487039922773 2.8409008370748894 8.39962105974868 -0.2661058347589805 -2.9075448654559604 0.6035140166073735
Ni 5.2674086608466855 3.5690774017053752 3.30339548162514 -0.021679027635330406 0.051260855057505265 -1.293182614825644
Ni 2.7476133324299528 3.0572846790048716 3.085350011258977 0.6582258063279568 0.8432678437353864 1.8232733813458601
Ni 6.750128279402935 9.254972673346305 1.958177942070523 -0.29942938861177465 0.5901481368234288 0.8717132435602729
Ni 3.994988309767661 1.0440720401180865 4.36151693440547 -1.0159158783538373 -0.7008277001588833 1.2121293589970543
Ni 7.340043588769793 7.102875435941558 13.103396237484764 0.5747215178557135 -0.08999992349891597 0.9707202556538057
Ni 5.95530050471198 2.269899808843282 7.417440492244534 -0.15081808322755316 0.24953070400911867 -0.9848667223575168
Ni 4.069789500287786 6.56049237562536 7.5801209869059445 -0.2753399517627387 0.40237353097618445 0.43201552221233336
Ni 1.7087141109597752 -0.07580226117932422 5.33918989285402 -1.0427103728388623 2.332521500089112 -2.2405950489914446
Ni 2.99056834352977 0.33991000695159873 11.579035428812846 -2.1908123211413626 1.472257378906045 -0.5110972561368489
Ni 0.7601298841381188 1.0581019151559408 12.711450093879172 0.09901858205775849 0.5989428522969233 -0.7156848197763739
Ni 6.663939444952882 1.408244055109285 9.398140663420916 -0.10752764797003417 -1.121360675652914 -0.33840474143370747
P 7.657613717776501 3.6637697545802292 8.249999141084041 1.2409799646801596 -0.911296919390166 -1.354120587961597
P 6.3183374767624505 0.5346322056119285 11.258645369352575 0.7838172537782372 0.37192189935454656 1.7051389043942569
P 9.237314382350384 8.95622378916823 9.31761122750238 0.5715449198999446 0.1661482858267203 -1.3008871825587531
P 0.49771074733094406 3.529341595149224 2.1704235290821776 0.5282200318600645 -0.7533967325048508 0.915073869934095
P 0.07328748981146481 5.972623865004078 10.238937677211366 0.5420798205612922 0.049162320657263725 0.21528283856984212
P 2.5186044636920344 7.946342591731916 10.503049144435906 -2.5423422871031187 -4.426470337842506 -0.6075282799730892
P 8.826307890608152 6.014518113873745 4.230278059565299 1.2895226494755534 0.6448064475982573 -0.15284771206307224
P 4.370268859768938 8.875924152927036 10.398540530849884 3.6914731908907648 -0.3988446918873196 -3.4032756664390678
Ni 0.5272655908539888 8.552297360359558 1.4688041781755345 0.8386334302871685 0.2332713047274628 -0.9893031608623155
Ni 8.114142874346465 7.140034136804415 8.649135130465002 1.7357278329247074 -1.3536557325100365 -1.0485596325307878
Ni 4.766529096912364 3.4479162195979645 5.41514380321313 0.5663636328093213 -0.8038055239747061 1.4033268744829186
Ni 1.9665642347489858 1.6679642086614985 1.6898044816398556 -2.230818943441287 -1.1441439920960166 0.12629978637121472
Ni 4.923341791715436 8.948269184952471 8.229315309396934 -2.093107572799021 -0.3584408341489762 0.3519966211855292
Ni 0.9933207348584747 7.199484336732723 12.073652718948772 -0.805256911709252 1.200311797536836 -0.906760207862077
Ni 8.600341309096612 5.675931083202241 6.408979959210263 0.3331756318242842 -1.3925608942156664 -0.07844050079609072
Ni 3.273426626537649 6.731595447124815 4.505418980939291 -0.8960266234946569 -1.6809275972553759 1.3014919060222878
Ni 1.6028015795069026 5.203669487183331 3.5222587411264668 -1.2522835626184368 0.23674563642930838 -0.2352438550728013
Ni 1.4737509185983642 6.610304014188141 6.010702694939379 1.096635662102408 -0.8502429895016389 -0.10164882059175398
Ni 5.017894590130365 7.73408025818507 5.708913384261058 -0.07008698662507284 0.5359073732019932 1.1834157931124458
Ni 8.744482458938439 1.3567577630273981 8.063544148629704 0.3913833505132679 1.3985621061044236 -0.6725329669792482
Ni 6.186700406529957 0.3602040165139803 13.494960932233226 0.07625043512330738 0.3814761187018849 -1.9799926605491966
Ni 8.365564189348435 0.8491135292389496 5.5435646083258705 -0.3378385845175924 1.5368288350295276 0.35381439112055835
Ni 6.545383279430748 8.109956240548696 9.763316540160513 -1.485678023187325 0.7092105249059398 1.9083424432020617
Ni 6.870191633092265 4.426286019983076 13.18667675698997 -0.3097495395908601 -0.3791538983266115 -1.435927177016443
Ni 2.4655737689203043 2.8672115045861966 5.640679626625034 0.49871585175336053 0.4890230499456288 -0.7692177586975074
Ni 4.218266142017969 1.6659360171772464 9.640969145143735 1.0469393233185451 -0.6614553690088479 -0.9730098230189308
Ni 6.057472976638846 5.116764273172325 6.915130029914442 -0.36936699414317675 -1.024542443680584 2.4749549587973956
Ni 5.2577235813278484 7.887022642632873 12.08231253836869 -0.33292803458985243 -0.7661542892808354 0.4791525849094523
Ni 5.904716664804279 3.7010121881190425 9.29553836375748 -1.2855160994193215 1.534146660211674 1.2455472723358678
Ni 9.035676795019208 5.01460110487612 12.43265935819659 1.4302075009238464 -1.3441665620726786 -1.0681848629608828
Ni 3.6384452719190628 1.1962236159596433 6.999282299612648 0.24576969430478962 0.4992634967267144 -0.3633922646169806
Ni 1.1703688263507595 4.644474766261429 7.417454447690527 0.2628096805062119 0.5995938556173609 -0.774947462092433
P 2.9296760808488975 8.448915416446669 6.651576780529605 3.022109365668118 -1.6875034507006808 2.510402500971728
P 8.871830555435885 8.571379106846718 13.30891436916494 -0.4719190432754905 0.13489935511476767 0.20752736299413937
P 3.4764876693600666 4.9324686533945705 6.198001526694734 -0.9380893569926617 0.9482315876329862 -0.916767455586434
P 2.0625777031778023 9.297183245658468 3.2158529689138073 1.0629166725834083 1.989259687673419 -1.1523183003766928
P 2.9056354992190463 2.9472320319075385 10.459489545677792 -0.5434692447096511 1.0629948341195112 0.47076384662512477
P 5.247033709697546 1.4218366595060388 2.7997778591870777 2.0459584259170445 0.6977482899026112 -1.0629477829316598
P 5.872581924498744 6.055761108597093 9.312723099952718 0.9104008899384579 0.032384329867976486 -1.22756857637026
P 7.069289329252795 6.965600365528069 6.599179663005937 -1.4653987041129988 3.047052922987333 -0.18170500261439673
