# total energy = -340861.21135984716 ev
CRYSTAL
PRIMVEC
9.39381458595295 0.00000000000000 0.00000000000000
0.00000000000000 9.39381458595295 0.00000000000000
0.00000000000000 0.00000000000000 13.74879718787474
PRIMCOORD
 96 1
Ni 3.6185349703825467 0.8304855455838701 13.576813587334518 -0.7562717400598008 -1.1106831413344098 0.20138988263783383
Ni 7.753147328857835 0.32359155067252343 12.75004329543645 0.08366112576508172 0.21511828796751986 -1.1207114721046894
Ni 2.9863030644011537 5.394999254889051 12.186233117068934 -0.5605506256719701 -0.9377232319024946 0.41022130915537736
Ni 4.312982110652378 5.793672747747473 2.1601555824129957 0.11091250528186707 0.8805413833748641 1.7565558254136522
Ni 8.10848715483228 2.6712345217416003 12.381988001980075 1.7964873715012675 -0.7958973248712229 0.12351502453722599
Ni 3.8866908027844436 8.63035113273654 11.622848478504114 -1.210481024760354 -2.1695662672783924 -0.07345230355287995
Ni 0.6561288310163257 2.11618219675278 5.543803854284018 0.2978628154556031 0.03206088509028672 -0.5946547664445306
Ni 5.005588063254909 4.324414383055976 13.478000990632621 -0.9154111986688558 0.14106228939236998 -0.12871070980555252
Ni 6.6203472227363225 5.715948325506413 2.871092624882725 1.4629844382445514 -0.06719449556862621 0.06237187736900225
Ni 8.695788445442755 8.054388176383373 2.994707710349797 -3.874637037438876 0.017003476536532006 -2.923091812051624
Ni 8.52312073874552 4.91007175610636 12.274925757270914 -1.7740359844762865 1.7720202395978386 1.075699169060057
Ni 1.1288453101626676 8.95244624873865 3.5623956553962017 2.3975629538704775 0.3322538913409633 0.2899952397820683
Ni 5.172553724472288 7.088788576844967 9.761137205001578 0.01765319430538895 0.49473347006684476 -0.6114872646208372
Ni 6.256214786269051 2.380674441449333 13.7001675247549 -0.14883010626324691 -0.7519335176957631 0.3273914210423394
Ni 1.9111809801022304 5.120530779056408 8.409575822560829 -1.9972218799432897 -0.812599211006936 -0.8571967951116527
Ni 2.4870781797529933 6.215962290583416 4.888315681425396 1.575909345970757 0.9557057845228445 1.4826155822119176
Ni 6.848166015120922 6.3543707553283735 7.679047040300677 1.1531551944556913 -1.4220257364440028 0.31829614360929054
Ni 4.315574803490006 8.4088168023388 4.621699495241207 -0.02788129979130037 -1.2117169540499841 -1.1985346510317552
Ni 5.122315603835935 5.984385972347181 4.788252767996369 0.24685829938327808 -0.10357149153576357 0.8587754524526824
Ni 6.590794281913216 4.106355764070997 11.347075201819491 -1.3658749002840476 0.683205616201746 -0.6274062498439388
Ni 0.7974954079879819 5.992370714781905 13.488683636628819 1.6233816805201076 -0.4099014639221134 0.6351815229139836
Ni 8.085228069810665 6.359837955442502 5.385871285213968 -2.5612473515377374 0.3961820574534919 0.11811185124378369
Ni 5.210795943827298 6.399169857294486 12.025729460934903 0.7238843248680308 -0.19068458040518774 -0.00923771654818409
Ni 0.4530758915198485 2.783819390071199 10.48113458168106 -1.021227520374738 1.2434050291818843 -0.44579175006081934
P 1.131917087546379 4.5055553105486466 4.753427079021957 0.2689157934039498 -1.4089964140638702 0.1857174662078995
P 6.3999495439087 7.873669970549012 4.18718202390258 1.4519690609706541 -0.866828404664146 -0.06538701004624223
P 5.2572201757242425 0.6587309176685826 12.353871375413755 2.64162697833807 1.0916104409736749 -1.5991708876018587
P -0.02823404924918169 0.817162298295437 11.270618005171896 0.26523937299362704 -0.6405813537733162 0.7443531342453439
P 8.98442279373606 6.268379776213718 1.7733887495969414 0.2838808993542143 0.26992932227012867 -0.23983147444348374
P 6.742908322202011 4.710021079765339 6.014507238955346 -0.8329461500944042 2.816862314067723 1.467782116743511
P 3.535916370719733 5.207132356121955 6.643349856618566 -0.14494465516591165 -0.30657731251046555 -1.2986865753630086
P 1.7693155915737695 7.075449360071664 11.678585738224333 0.2684319117889957 -0.5764690966744395 -1.1562911689815119
Ni 7.6955350637376485 0.8122812722141638 7.061106883895976 1.2635853607845013 0.36841465753223646 0.7948480576711021
Ni 7.981680051154246 3.243402376984616 6.9583488850498645 -1.3830593824831343 -0.4750066810618787 1.6781351221119034
Ni 4.6454198165611125 7.3074483999662085 7.266913150460238 -0.3388901657105583 0.1398312451987463 -0.3343403415563468
Ni 5.899014984998045 7.912907934254705 2.0597488553685444 -0.8175251875536437 0.05915568442454974 0.96302674366429
Ni 8.518104441733588 7.673722626168911 -0.04748291480564236 -0.4640059590760009 -0.258648864260303 0.6469188659555697
Ni 6.756369658565491 2.87253457542829 2.333088194682771 0.5118547031281636 -0.8137970879697791 0.9718823942827068
Ni 0.09282310049439015 4.9081178426635095 6.677460676299703 0.9555342919419866 -0.8760298686577558 -0.763168210069318
Ni 0.4131070890360123 2.2585360636419534 7.898354097249863 0.6485312047480122 -0.06770871620088338 1.8660277415942508
Ni 4.035394888362879 5.503338119006303 8.69994990532344 0.8648041751452654 0.7433329205109457 0.5993922811295161
Ni 3.6325599356237728 7.313563773289744 13.927668806205038 -0.02811321329644836 -0.14860924850169244 0.31789248041296864
Ni 0.4704704180685276 3.4235287724973453 0.6152713736685779 0.3278349363376612 -0.33392382284421845 -0.4027458267139386
Ni 2.46069095445989 8.164295807543683 6.670559040691714 -0.20645392742430252 0.5301177631034095 0.01927401773826358
Ni 3.3123623701767384 3.306434873145785 1.9500610394705555 -0.11204353356251671 -0.26356635616657836 0.01211786630945655
Ni 6.016672513227351 6.137974841532743 0.5122926201786826 1.9811627695978977 0.04604562940515296 0.3761040557566942
Ni 6.622244773291397 1.6618127769585063 10.71929126706497 -0.6146150116165415 -0.3711161156237996 0.29259951017413477
Ni 7.238544769661861 0.2033075118729254 1.221954922003245 -1.4203300939091346 0.5810145499532767 -0.24819321614461776
Ni 9.028376452385555 4.147162494819748 2.75784361385885 -2.1682251798694656 2.109147656981019 0.6145934143499867
Ni 8.749361370272434 9.401987247813572 9.265878388889815 -0.5073002509882618 0.9368212889135156 -0.9871413773243064
Ni 2.736681228262444 2.936440696349964 6.719792962544218 -2.3751424200834323 0.2808544538230647 -1.6060210777544728
Ni 9.26291182222995 8.04816007728429 11.114830043981666 -1.2256309930279148 -1.0207145852940616 0.5803278082988973
Ni 5.6910077476661876 1.6607137006469033 8.340102927089958 1.0985454775306112 -0.5368162581695077 -0.38103620295098894
Ni 6.111512465722606 4.339839026676936 8.864481629170422 1.1273598306591424 -0.8320786598877864 -0.05896208035650491
Ni 1.218152305841391 2.6989180934535177 2.9132050958649187 0.8537530595374264 -2.5569677503257773 0.9538479053784991
Ni 5.903721286127219 1.0487818280789654 5.428932531473699 -1.294832234613925 0.08414783559351315 0.7150636412526072
P 9.136301988659126 6.0373670868552285 8.39439729688315 -0.614426035534187 -0.6230633994942109 2.0479425462266088
P 3.2131073248058124 8.092226461709334 2.7497733877110018 -0.2700169968879285 0.1821289775256928 -0.8919012884723736
P 1.72808613916671 1.5060069675204812 0.5959088429551053 -1.6337275425308058 -1.0928111461499954 1.2686512053431829
P 6.5990890202307 8.336963514240917 8.52666032809776 0.12228706566739586 1.2472498568492714 0.4770532791782623
P 8.60959080240626 2.145162114883511 3.9433890497412194 1.0842570859323972 -1.0844074954673322 -1.7084504852659932
P 3.9103256403912248 0.3409240780446505 6.096684329330594 -0.371128971139606 2.499985419403462 1.67322148686037
P 3.0465737790613714 5.129135513256652 0.7030499957071487 -0.8851631984175916 0.11760997190670068 -0.9431793699210596
P 2.989327872711719 7.674737158148853 8.88825361647079 1.0310406498104179 -0.7691483389121528 -0.7046249624177865
Ni 2.6940051284025057 1.1088740602612304 4.243744999928698 1.4834115957506517 0.4542841038025467 0.49880481192274095
Ni 5.786749506365836 8.327344248060733 13.394957790548572 0.5087909766011753 -0.02768409617882974 0.3219792488878326
Ni 4.014550013700936 3.247732925528625 8.438296471407797 1.2116629608835972 -0.22970904129750114 1.935783055911518
Ni 3.6091411557534605 3.8460155854405 4.376599841464939 -0.7939684832796261 0.04067845155596865 -0.7318490882410622
Ni 0.32841903201041084 6.379640116680616 3.934520349349899 0.9691238577009631 -0.4712161036711949 -0.24390153074779927
Ni 1.4604657541986712 7.735496351169782 1.3175792580200287 -0.07080560995865226 -0.3906935235350949 1.2217815373748377
Ni 0.24332328342990706 7.37436054156919 6.9816258183192765 -0.11806274317340312 2.0049799266221537 -1.2486073993184301
Ni 4.650887016675241 0.6801206335790121 1.8477144897051978 0.2718373379261189 -0.27326147196715517 1.1924411365395078
Ni 4.880208819400495 3.390659815110172 6.190932471504216 2.4470721163441986 0.23906914235616247 0.5219545105663269
Ni 8.618157961347986 8.848005817692469 5.066651615869821 0.7599281058654653 0.5579898069233292 1.6244733709223893
Ni 7.101836585364768 0.5657387285108689 3.509091393664914 -0.06720298020905845 0.30884271150587456 -0.34194360782490146
Ni 4.217926100420654 0.9161120446909172 10.164581816310111 0.14335828451539825 0.905176665425041 -0.6453314668637918
Ni 9.39832366010823 0.2488909973605665 1.3203438576653688 1.9062979019682074 1.1440984835700618 -0.302017461053925
Ni 1.9476383746777142 9.262226073762028 9.791893493478668 -1.0813900487972474 -0.5826839672358997 2.3965620234097886
Ni 0.5047259024949536 5.689420192993873 10.384934404827513 0.12455786397944354 -0.3293410885695425 0.38837695958677626
Ni 6.562922833908718 8.57163979130475 10.768607854486211 0.6799667975494741 0.33445295587481105 0.48379805410126353
Ni 2.035630236308365 5.1108081809153045 2.891289326335261 -0.23688447600001783 -0.011838387395824773 -2.17428372735872
Ni 1.5345265887343873 8.713664874681905 12.783068190146468 0.1606813491748781 2.441123354959931 1.4424801476436124
Ni 2.2123560709253653 1.7691652905397042 11.73542301363762 -0.6142272892598196 -1.185742127252777 -1.4400383709713394
Ni 2.896460621288573 3.003737984352738 13.5106266482209 -0.6437448391029624 2.960124182214573 -1.0904932966500962
Ni 2.8424180057274397 0.9522322013212169 8.078600733589843 0.46409954723107166 -0.17721817048763672 -1.7121557020317222
Ni 4.544727517551936 2.683643750866623 11.850981963678787 0.1466796355791474 0.4132508400103206 -0.7718539107687739
Ni 6.694765022227944 8.288951727671657 6.374794787094933 -0.834541262495666 0.2013189201905823 -1.1763917963861288
Ni 7.072490308463502 3.124598803370562 4.869535567218926 -1.7046979602020966 -1.4319386246823405 -2.3159206583076375
P 7.767463502352562 4.048386533994905 0.936757770482723 -1.3395619734211317 0.4729760237850951 -2.01927346042669
P 7.799402472091455 2.7860457241382925 9.405620775312103 0.009498169298422352 0.6819843422001352 -1.827654541132691
P 4.81262032314422 2.5007273924090554 3.075124399863553 0.4142638546558672 -0.6359878208653628 1.855908907992694
P 2.190139699327576 2.7255777393708644 9.205314587213172 -0.5599890967415453 -0.2921428822526905 0.4496278359774579
P 0.9505319208733523 3.9629685775726244 12.325260634197948 2.0935778275672203 -0.6781641971230966 -0.96038750626923
P 7.329552045788448 6.461394485397553 11.109633385728854 0.24756818096610908 -0.002862666259775715 0.5038104926674485
P 4.518913314951208 4.715713731430564 10.725010221411159 0.44585139965416115 -0.44669677837359195 -0.2840984146816591
P 0.814901207114216 0.3710725867152399 6.976112588513466 -1.041886077165354 -1.353356713212379 -0.49906706444519217
