# total energy = -340894.613603207 ev
CRYSTAL
PRIMVEC
9.05497825250800 0.00000000000000 0.00000000000000

0.00000000000000 9.05497825250800 0.00000000000000

0.00000000000000 0.00000000000000 13.25287596378042

PRIMCOORD
 96 1
Ni 6.224763288831862 2.1901638041998046 11.47555953686795 0.610901053100064 -0.18101080476084955 -0.3757672412425657
Ni 4.435074006773109 0.39821439957505345 5.95181364708336 0.7967087650289247 -0.5540112818915555 0.3168812655396349
Ni 2.745677663580531 1.6659711145137421 4.617395087919419 0.2876678772004723 -0.6350874205382804 0.9456085481878425
Ni 3.2461010354150486 4.334337373973706 4.542211603682705 -0.6367270130242325 -0.40349710305766634 1.0839650086132753
Ni 4.919406682294411 4.456923669240072 2.89946379183329 0.8415853138266409 0.3622782056171954 -1.249388500458829
Ni 6.929385474712163 6.158281638673371 2.541053265557977 0.8973800521987577 -1.2629623824885217 0.6752022862812953
Ni 5.1191051721603005 4.589787364796534 11.585810235292731 -0.06616116920810541 -0.28766762009015623 -0.6825301874012761
Ni 5.642392364023447 7.882132174027902 12.759842492572679 0.07820755884967821 -0.35997321163310264 -1.055188964921847
Ni 1.6670305469665536 6.468776842151262 0.28553334499356564 1.109754201762237 0.513337201210961 0.6056817136826537
Ni 2.7343679957723106 1.5837881321058875 0.3129418585954095 0.6335519577303605 -0.02316563948318591 0.5208839032099674
Ni 0.44901373293846303 -0.1193581955276703 4.775461504381102 0.958329852409253 0.42378259277957986 0.3793009654274371
Ni 8.619642040836512 2.476971184630213 1.4701943357189002 1.1673782800336088 -0.10716255132113157 -0.35316441624138534
Ni 7.017091993839806 0.8130745656287715 4.944237243594412 -1.0031727197555562 -0.17333451916251438 -0.522310608354165
Ni 0.6910243250735719 7.3966857361844145 2.4036340104544243 0.585173823537289 -0.41778575176619664 0.8314970763527035
Ni 7.418136979609294 3.5695901326517836 3.8887518557928034 1.0755302475823605 0.43023451905251064 0.29888662873442723
Ni 7.530427764629105 3.8964205168550787 12.686182961171932 0.8940386465303506 -0.3035372401325611 -0.21682781445945884
Ni 7.9981264451434395 8.828042364780625 7.19864430733446 0.7542379974592236 1.0369472451028399 -0.1845275596648564
Ni 6.919859637615088 1.0371753163244253 0.2466096155776992 -0.26991338143052873 -1.0374280413940005 0.20426926106815788
Ni 1.6664963032510334 6.421328756230464 9.108767516334508 1.7168405091019012 0.3511386440606082 0.40167367669568244
Ni 0.05967049553451744 4.814106340467511 1.3699892301415488 -0.40851229688407065 0.8362880699834436 0.3524887303305994
Ni 6.378634533879975 2.0752561304717663 7.1187956983140825 -0.4995368049927591 -0.9431757703766337 0.19089335398188415
Ni 3.60648916893561 4.446003365495706 0.6344560650803646 -0.5654691460195099 0.004865555622417426 -0.6220778956524899
Ni 6.010857538124419 5.572877296158188 4.8610618355726425 -0.49903595409694046 0.48277938302876205 -0.029804484955942213
Ni 5.297814222491 2.8692056765827294 9.355722126582737 0.11884512986538241 -0.20173106802733642 -0.6519021781027741
P 0.054681202530250377 5.579831519438183 12.358492354036866 0.8191737789006602 -0.4485034925650276 0.9735618388676588
P 4.039190358594242 6.220842483258635 12.564229608883783 -0.44744265540068107 -0.3616156323325321 0.5925235790341408
P 2.4768172500003174 8.371762011813262 1.3726006858628386 -0.12843560176729493 -0.141620218778369 0.5195667270604407
P 6.442010326505865 7.9841002838664705 5.980267105172849 -1.0057237683121842 -0.05843474709812517 -0.4961486052468165
P 4.826946299596459 0.8667751140168038 12.677555377915187 -0.31604077191621055 1.9177128286733682 -0.3792886241322629
P 3.881986881557798 6.113649650981842 8.145602159068297 0.4308065895058968 -0.00789791469083801 0.7474495137824805
P 4.9609780873444835 0.9474585920299096 3.7834841118875286 -0.6242425074039765 1.1687047121545162 0.21820978240865
P 0.011057939413449984 5.640554203442928 3.6030989850866124 0.7360896086849711 -0.5251066830420634 -0.5640763794370415
Ni 1.5802838555312027 0.8743432648207357 2.6945215640748925 -0.6490384834017339 0.28750898302510486 -1.1759482810908068
Ni 1.851453288559852 6.557868772947964 4.731700605595219 0.13235601986762366 -0.19747100719940186 -0.2715992537733839
Ni 5.899137216733045 5.694168729537783 9.265907608523348 -0.10993677163215906 -0.04030924114200799 -0.22082382299272935
Ni 8.549900598515523 2.3782538119759122 10.470063967376063 0.6829222806333722 0.8401853481553208 0.08844003521096382
Ni 2.36372962689634 5.0473806896071265 6.8658376374999195 -0.3968276614572908 0.4416679577004329 0.2787631185116748
Ni 0.5186854519270875 9.126512557170193 9.517658640739564 -0.7952010701351466 -0.4338376630227367 -0.7948642556210181
Ni 1.6209950376495053 1.186953711212958 11.38561191062859 0.03735452938905825 0.5046810681978597 -0.08255915095015459
Ni 4.231219281900034 6.808048766441422 1.6559200886793746 -0.04304926578099038 0.31184678843952096 -0.23312269496474045
Ni 5.8329362708996575 8.050572879046733 8.08500986675005 -1.621359764994072 -0.021048336029866974 0.05572403303518145
Ni 5.165158791433808 2.8914265931570875 4.881008141615835 0.05724638321697883 -0.684805356588698 -0.007889944271038025
Ni 0.8394888426210536 7.405070646024617 6.857660992158989 -0.5007997308655827 -0.24564036781577697 0.34961089456217215
Ni 4.977095948592387 4.3187809213760096 7.188797018510249 0.42306345522536815 1.0790205201238061 -0.00621744166462155
Ni 8.176618175996639 7.1211789685839975 9.007873326913916 0.05019384724557161 0.35674570583474047 0.5892364236424369
Ni 4.926270355792113 0.38686579536044746 10.39894888485771 -0.8868467567676016 -0.780661738868391 0.07200605802465664
Ni 7.942157624709003 7.203878084750914 4.587430353963484 0.9529655027735459 0.11974295908930344 -0.3192333107115793
Ni 7.4844103652685146 6.281565167263382 6.798075613419825 -0.18135147592971992 -1.158676895604869 0.5548450906467606
Ni 2.258456450004128 5.415139575406224 2.4541942923925846 -0.1680439601875364 -0.4064942380127773 0.6921232304063499
Ni 2.142425958975674 5.34221078074857 11.515290970341857 0.8741275094287203 -0.4048675010426318 -1.1380239952412077
Ni 1.1403024633763263 3.1869991925133228 3.593954362572984 -0.738445253401341 1.074765344391878 0.284064219009614
Ni 3.5868398661783334 2.5063364790273783 2.5058538486877637 0.6190936162131854 -0.009033828067494119 0.0794422025877277
Ni 1.1665800101973482 3.2529284889998356 8.250365540686207 -0.8264232613742218 1.0094816926927197 0.1518120717097063
Ni 3.5406956971225347 2.5439055837001625 6.858827273354905 0.03637339642271155 -0.0706955667433492 0.6620091846297889
Ni 4.158933390696651 6.842937597558374 6.112027904380999 0.29553056777800074 0.465797760869101 -0.3231848391601595
Ni 0.8237847938782217 7.409471365443989 11.297533231895729 -1.3854805903301173 -0.49911771517746945 0.26645499056828303
P 0.22834844098295257 5.497159568205953 7.873771712628919 -0.05206226791287808 -0.2865059956818872 -1.5528568350266676
P 8.673175072127306 1.629760256575332 8.326900933172535 -0.38890429284515604 0.8134404759613088 -1.442788937133283
P 1.9124023470203266 3.3279942585195705 10.570241908018726 -0.8964822229748367 -0.26193910497580053 -1.1864466095189696
P 4.070348538680781 6.255269510485902 3.882416993023683 -0.47179357344121975 -0.21253587195232432 -0.3177608399311108
P 6.979115415146709 4.054484216823293 10.386914818791157 -0.46681566061065416 -0.032561478875789085 -0.026558467214818776
P 6.4216909553596295 7.710612776411157 10.239543237115933 -0.26141871369595626 0.6383776612537779 0.27542968326306755
P 2.466394970058554 8.395612824468868 5.858632488118368 -0.5699842602810441 1.0060171311828867 -0.6243893173944859
P 6.876966205743558 4.005496784603538 1.8061684369380007 -0.2786535895170039 -0.41379514254956473 -0.987644285102654
Ni 5.37561459543594 2.8463237465976423 0.46010698676700673 -0.6641270023037401 0.3054527119877191 0.29451781024277024
Ni 1.4292105987559 1.1659099418083905 7.078122547104343 0.2560340523452752 -1.2157191332308417 -0.5873050109476788
Ni 7.074745040224865 0.7140131038017629 9.405579742210316 -0.572529138190085 -0.15578339765262847 -0.05305574217439895
Ni 2.606638472871782 1.578210265516725 9.226149010114751 0.9558340825705925 -0.4293192063270928 -0.04574532455591477
Ni 6.5806782631072185 1.785053133205423 2.446268469948601 -1.2903569724513906 0.16168947872441833 1.307283315893084
Ni 4.052917705589648 6.906485434770618 10.422299862715068 -0.13127795631209652 0.31358125463212444 -0.35055371809141567
Ni 8.138007748827501 7.2555005156353545 0.5741381386024623 0.18429178950496647 -0.6181376800578193 -1.6221663200557677
Ni 7.537255218213892 4.015466315633843 8.089409680671599 0.4740427744867126 -0.31628142717210694 0.19380975629773073
Ni 3.223608469493816 8.435192134308526 12.403645002976571 0.023090049050244105 -0.8920223874312702 -0.26102713468449235
Ni -0.028032401601833 4.881719862904648 9.877951696988719 -0.05605159157792928 -0.5057254503019741 2.2428046550482534
Ni 8.614951562113808 2.2226892859989467 5.921557342828445 0.2098891783580966 0.8937419412255382 0.1513220194471652
Ni 3.7489330314585234 2.571188233104621 11.358205208022392 0.47969894433122556 -0.19298031841789992 0.7162838868129535
Ni 1.1942882435785773 3.3792182703619273 12.638909636330956 -0.9933282228613087 0.18222333701171198 0.4825125025206206
Ni 2.9853719922846205 8.287134185283534 8.087700100781934 0.8433897140252314 -0.0773819776245893 0.1722122326326131
Ni 5.855465056733808 7.973994928162728 3.769276851045977 -1.4425215424045092 -0.11658718706914115 -0.18491373935968153
Ni 3.2568402395948324 8.373120258547635 3.565858576123547 0.16894436051461872 -0.39819111746372066 0.786468061137523
Ni 3.3593244831924634 4.314697126194658 9.279995343652274 0.1891439753909452 0.10680336820949993 0.06255468280376968
Ni 7.295333364865429 6.2506333616325715 11.539570988965526 -0.43783444288695567 -0.6830960872070752 -0.4482288987474023
Ni 0.9564682953679235 -0.12240429020395965 -0.06448683845460755 -1.329619517496439 -0.24267202921607237 1.428329052954211
Ni 4.541714485377924 0.2993938001689406 1.6603869094398191 0.40016546758127214 0.062188300603286444 -0.48495916428890024
Ni 5.976059256789758 5.453496463184945 0.4267384864947299 -0.2831661326753768 0.6857399525878254 -0.08161555608996267
Ni 7.956337720615867 8.891834686405057 11.672974361224446 -0.31711009372098936 -0.48731455189495426 -0.7916874005549334
Ni 0.13455154349837756 4.671979402182618 5.611121902206867 -0.6417303797760948 0.7546025798874939 0.28665563388587406
Ni 8.234606256576178 9.071096090407732 2.040412574245959 -0.4027820792685127 0.74079035659475 0.9027775690652452
P 8.665451175697832 1.6144935632809685 3.628624063216791 -0.45238817233141443 -0.9213800146577811 -0.07701739519631896
P 1.8263347789521627 3.2915208062125143 1.5317935416162287 0.33324736560248414 0.31837739046918717 -0.42371780097991546
P 4.519647503433462 0.9794045552223853 8.26254539190225 0.7383953740000121 0.8155498089948277 -0.6286460357883108
P 8.774889642575458 1.6599857739042674 12.55099032521493 -0.11933518212792352 0.015207818088689937 0.5300707119155581
P 6.314144978931899 7.925279145289849 1.5223971907078295 0.6727543389614349 0.4063818808046291 0.4342287278135683
P 1.6684702885049902 3.1715604546326053 5.889643977557594 0.6903070031332177 -0.8456664258745501 -0.10093971033987133
P 6.8280602683278655 3.952516106984724 5.999047130020126 0.37835968456009034 -0.26213913680174855 0.39541175494637065
P 2.341508710321982 8.385742898199085 10.278996682758207 1.6224745953248059 0.715424881246768 -0.4092512319326242
