# total energy = -381172.87263663055 ev
CRYSTAL
PRIMVEC
9.17291185816341 0.00000000000000 0.00000000000000
0.00000000000000 9.17291185816341 0.00000000000000
0.00000000000000 0.00000000000000 13.42548371656189
PRIMCOORD
 96 1
Ni 4.082459398531052 8.360540312406405 6.994972613789695 -0.33226648974645356 0.7387332169554052 -0.33766143550977973
Ni 1.790268007513452 6.790917523409871 3.915260150151691 0.9165645955470084 0.33028339787815375 1.0883325415533516
Ni 0.7294235189495485 5.037928229127182 9.795447885298207 -0.6878719113291638 1.6162119022445456 0.4233264790787677
Ni 5.172458152415166 2.2538302742038576 5.111295928938601 0.07271979626222959 -1.0011472046850953 -0.3282170022674283
Ni 0.1443054953081656 4.6437131750412455 6.3795748085600374 -0.40313612017382183 -0.35161275548354926 0.20732090341028808
Ni 8.90819983374731 0.7490755650188363 9.227294244592104 -0.2429646207558267 0.3732138786930927 -1.6557192163105485
Ni 0.07073966060359094 1.0646906904481699 0.9031318654855404 -0.4374539196190853 -1.1646002030678395 -1.053557085745379
Ni 7.709006738746318 8.30555787955572 8.042106351205463 -0.4076540626488334 0.2513993817867412 -1.186585191979363
Ni 8.19856503725168 0.411292263835373 11.420535602301907 0.041113739321174354 -0.03489912587003022 0.679190838615398
Ni 4.6701311607953295 6.638115159975315 10.505642229408767 -1.0697550356614802 1.4121316172587421 1.5585919377382318
Ni 0.8315565526242421 7.761420756315357 1.9067814148918527 0.04822309667244598 1.0642166223417542 -1.0044094203761347
Ni 2.2478678815857487 3.284361041406122 6.068640619981506 -2.0676158562858196 0.3189638591002765 0.4469649444333141
Ni 2.2916134975792293 4.290051563670172 0.22142491601313333 -0.042076874565392046 0.7603219988697745 -0.4618634588117014
Ni 7.047474691311248 7.350556867457316 10.169052324040099 1.4703087398201065 -1.8354922920095549 -0.7235215422119733
Ni 1.2505155360753315 8.73234594315997 12.232414424704046 -1.129984669876499 -0.9227774092259398 -0.30044651702237934
Ni 3.197979731737301 1.5116591598367919 12.238308020484252 -0.23760926998118434 -0.42972364085436315 0.4408174367746795
Ni 2.6330384447155994 7.5191091203154015 9.044063498399405 0.5669490729991462 -1.8670052750161716 -0.5931851238775397
Ni 2.344752175174162 2.183263064340606 0.8861142796622848 -0.8830160701676018 -0.9075690769166176 0.5014085680941752
Ni 3.4730019709313753 1.433395877040319 6.5285438121867365 0.7503391766254497 -0.12613189333478278 0.6041531928532692
Ni 0.08444307342234979 3.2859479551337114 8.77579527410489 0.46571677111952053 -0.7970957160546982 -3.4013895051599485
Ni 4.26918318950679 0.8521653333859434 1.9672364068747914 -0.8649119043677234 -1.0175729543412861 -0.6764634123819059
Ni 6.810868606401237 4.187535102285575 7.114513082035751 -0.49992812689390675 -0.5123925779095047 0.40778261780689773
Ni 4.146220307897939 9.024264685742594 4.590763459427748 -0.4822402226958405 -0.16023037768038856 0.16028694194993684
Ni 2.2794502166382866 0.5788465038983042 8.437124035066914 0.493876264272872 -0.5395295433356128 0.7128334663705078
P 6.546321832391595 3.0431134631657057 1.120972924889604 0.5408742302889652 -0.4908912135026191 -2.9420364714749265
Ni 7.376277711920667 4.6875413472402085 10.338481507258631 0.9745866805877472 1.3088259777898557 -0.3060746618424342
P 8.769973227036099 6.652369864788455 11.412036899593172 -0.05356096394559163 -0.2649028155898147 0.8844690005640444
Ni 1.6272286745991873 0.7651410026055384 2.616210738164951 0.38978978077390286 -0.6890556472246198 0.6280755079968214
P 6.853302496018734 0.9661827914852865 4.694985165101125 0.25827605430191647 0.08426173546355811 -0.8326137064556499
P 0.8593880840744036 1.34330871103655 6.918621883086877 1.4226093768616144 -0.1582871379110887 0.31613256029906844
P 4.769262817755184 0.06940591923947852 12.951295516213605 -0.08495439065520853 -0.1536079872678645 0.4386831640404961
Ni 6.400059755013517 6.478579879338154 12.109356144813306 0.06632597692074384 -0.8058212688531542 1.611799889219779
Ni 6.331308781670859 0.13666445984526573 9.826621108488027 -0.37971517014672024 2.891438703922717 -0.5049410067274659
Ni 8.199271351454133 2.3213612502877337 6.850084638587299 -0.38189315163464554 0.12745781123505792 -0.35611295734674797
Ni 5.283340309288555 3.5259021528215837 10.610709677542742 -0.42655475620807826 0.384371437971809 0.6188815002023793
Ni 0.5600934031775928 5.4149440737378045 1.7074659679978403 -0.10417467233740123 -1.5212978292734638 0.2797877031214472
Ni 1.2932337859561533 6.585260842643707 13.310641580977668 -0.545302441263648 0.1802405022537283 -0.42610327049295643
Ni 2.593264699496951 2.7365822722128548 8.631297147650601 0.12007206029394804 1.752024770312518 -0.7503731151871788
Ni 1.9891642523418527 5.047055276288749 8.03640080011552 -1.5025303188579735 0.4216069252844997 -2.699200405877164
Ni 9.008964268993354 7.087954750732349 5.742012496740939 -0.632807109144536 -1.2479394267171284 -0.8673611372391643
Ni 8.922628823883134 3.447363682673506 0.31807896951737064 1.472827135366586 -1.2949615611029375 1.1450356506723505
Ni 6.0884834626145725 2.103614671874388 2.9122554564393064 0.05888263326882117 -1.5783218120669915 0.48285703034423294
Ni 2.8103600011781653 4.443074076986013 4.045353136040628 0.9008762382774743 0.10519899983685754 -0.4956454403581528
Ni 3.4772765477929735 7.1167301747985166 12.653357508960209 1.9723760245442032 -0.5435093539189672 1.0367284442238145
Ni 4.033274245887511 3.13292544181787 2.356158690898191 -0.4768815294870884 1.5799439210514468 0.03021971811648989
Ni 3.4068561045172445 8.644249298999478 10.876266389132777 -0.06662216800492397 0.0034799881288004584 0.8759745899397882
Ni 3.901386121174937 6.1569225569587465 7.419056503018842 0.743649680420416 -0.3868093579893403 0.48470128264182333
Ni 5.647890166871468 5.5047468794782475 9.055528720758442 3.134242116510331 -0.7947686105834184 -3.1798002647561043
Ni 5.816946929874163 8.571819988057033 2.9493103506240965 1.0201348015311915 -0.5258055088813008 1.1469567789544632
Ni 4.560735015620607 2.873487979636361 0.06765572768327048 1.11399446509583 0.38776992213039674 -0.15083145296399186
Ni 1.1791869745393058 8.173156071786813 7.3320862924175865 -1.336277389132589 -0.8091781011405291 -0.487108092311103
Ni 1.6845593728502368 0.10062592427907001 5.273073069200171 -0.044911772911025875 -0.6499591954437903 -0.42978611866118244
Ni 4.419453829306581 4.092219376601311 6.14284305475946 0.2189687720618616 1.4381378115145167 1.0580171783992616
Ni 6.0113759666948425 0.7831465110210559 6.83002714981998 -0.01271564779445552 1.4008239055554068 1.5882131030387745
Ni 6.030033669133664 1.5724939103649453 11.865576842938122 -0.018454092940129507 -0.6514054409720136 -0.021274335997744007
Ni 7.161677442227339 3.8676389789564394 12.502387893287338 -2.426666298994337 -1.6323319477348597 -1.5936250180829652
P 3.7263486197306928 4.551818945428604 12.068086297693098 1.5653454544119814 0.9191472686725203 -0.1593430899794288
Ni 6.93504231235715 2.497673786461081 8.995194811210212 -1.1989709672382254 -0.37802261293564576 -0.4012625573001928
P 4.886134885981844 2.9782334585689583 8.160371784722416 -0.09840640239505634 0.1865340485719239 0.1946314808680777
Ni 0.40406034023519255 7.533822470714552 9.584023277642402 -0.2873801707567244 0.7907718307191993 1.03888251445234
P 3.393005007819791 7.874559449471909 2.794017541657514 0.3646197092661785 0.9141421021484449 -0.5340803472955835
P 4.679826928483547 8.328150761122492 9.025456246975045 -0.10536457888044434 0.03818191038636005 0.32907883604709137
P 0.8510829298029635 2.0001992651412146 12.43049428038935 -0.28734906040847286 0.19941578963059847 0.4579947198849145
Ni 2.299768216098459 3.4864494595131417 10.94513844491014 -0.2293470299723921 -1.0352770564892688 -0.07208164845759843
Ni 4.767125529324385 5.981160395488609 2.8771883322242764 2.1335993622654805 0.08266970838608989 0.806756893293546
Ni 8.406285623154883 6.120056624755391 8.182013435343809 0.28094058577896774 -1.4227896111932206 0.20588854183913577
Ni 5.250216925067028 7.412006203070721 0.9097510385828136 -0.01147611896039959 1.9001467947651467 -0.23506259229993065
Ni 3.004146934178433 5.932800804899883 1.6884294243049758 -2.7009299869737613 1.2841559858470013 -0.5170804703034773
Ni 6.2811237816498195 8.20404126554862 5.499359628424993 -0.13801090416055586 -2.1198853551134973 0.12045926843003771
Ni 2.940156702018541 1.7919741690934032 4.191584025518857 0.4322415221802104 1.6527264522308116 -0.21416080915025698
Ni 8.392324451516787 0.1444761114661607 5.866022924868233 0.9613822660823315 0.35630990384890254 1.2380193393899388
Ni 8.28324018534055 7.994054970450535 13.218865681926214 0.16650361228361002 -0.8674968914860802 0.054424854607783686
Ni 4.8356746986092 5.3067587529101425 0.529402675144255 0.8996338812299409 -2.1775292308792107 -1.4703154246883259
Ni 7.477060492990152 7.059637972252191 1.895651003810601 -0.7745018899145822 1.4780942973027964 0.7809805556603905
Ni 0.45515254122535587 2.0876262867461355 4.52754283456118 0.1762234106745352 0.37586288628016556 0.8259753752035259
Ni 7.42125249808465 3.4339070211800196 4.711687202761206 -0.21806554352130186 0.04124769379587735 0.8852089640538625
Ni 8.539687278301285 2.7031011444342417 10.665553599426456 0.276238295207292 -0.872817018147413 3.5169348812281367
Ni 6.66246924059236 0.24212175672734818 0.8411963655509667 -0.03658474110256925 0.9815913940403548 -0.2663014957095543
Ni 1.5310231764780662 1.0721666135001067 10.647267399912302 -0.10295288411515817 1.0576950191731525 -1.5377881136190032
Ni 8.777192308559872 9.133459026859473 3.574145247431463 -0.870831355175952 -0.5257430310744816 -0.72992924551053
Ni 7.68889054334399 5.414925727914364 0.46840464678748245 0.01829879830918784 0.9907064689677454 -0.15993727192000198
Ni 3.6239055416398576 4.8400501774997196 9.393703705272358 -0.7304591498720711 -0.8822570805143902 1.4281254215838373
Ni 6.86510803340259 4.459172537054908 2.571597364722743 0.11703635879141779 2.2000199557825595 0.07990371560517852
Ni 2.216221336151169 6.22485714115831 11.120931794280127 -0.0799494812414494 -0.29327159654049495 -1.1235746525850971
Ni 3.97911737509164 1.5074763120923953 10.11195370045557 1.3916939182296806 0.6147312254794316 -1.6054011847822869
Ni 8.399020677072508 2.7023673114966287 2.5777193660047826 1.206940101486631 -0.4183048574944603 -0.3936747176506059
Ni 4.30250837778616 6.575372443809367 5.148001335186853 0.17425497409425475 0.0652330009668812 -0.46093040547447073
Ni 2.6523841155334336 8.8343762402234 0.49445388149041525 0.626474996278921 0.3973182279404641 2.125758526064823
P 5.2303025337225435 4.104712882364179 3.983313982203617 -0.072076763361592 0.6509794091781885 0.6375870470316826
Ni 0.38370014538110786 4.669819281796844 3.9994115249813396 -0.7623292591077904 -0.719821724762883 0.5969972985347783
P 2.420309449013185 5.674931910622523 5.820014351553387 -1.1452616506402276 -0.5342276715067251 0.8421044195549046
Ni 0.5621527218587705 4.665370419612563 11.964267282844236 -1.6902781852323405 0.4138229104637066 1.0180097847683887
P 6.861145335539477 6.220334895680266 6.760268073479274 -0.39710791170187093 1.7332253782178277 -1.464535584781755
P 8.878296141539563 6.620026178063144 3.36235830976271 -0.8961929738691922 0.45658498402158143 1.5076838380344553
P 1.4751326253670833 3.153738778510931 2.747216428770045 0.1581308148388825 -0.31743996625658233 -0.15846120159510774
Ni 6.746850855506185 6.196980662440719 4.304867650680587 0.9324784385637875 -0.2808544538230647 0.7208781910518552
