# total energy = -340865.71665601904 ev
CRYSTAL
PRIMVEC
9.31845250028930 0.00000000000000 0.00000000000000

0.00000000000000 9.31845250028930 0.00000000000000

0.00000000000000 0.00000000000000 13.63849715778549

PRIMCOORD
 96 1
Ni 0.4387481484583411 6.759577405545755 3.9512502501145654 1.0264154923335806 -2.4052418105719737 -0.19498526466307065
Ni 4.119818258244046 6.1911331730866985 4.269790362791754 -0.893747340542177 0.414061508837074 0.1799841632685481
Ni 0.15376844204982001 3.0953569213646617 7.703732319761421 -0.48870063360920346 0.6243132127409119 -0.6556978976997804
Ni 4.813604993749015 7.694851834637434 0.9999528752586087 -2.084365822050649 -0.9187711162800241 0.44045182590514464
Ni 0.16949146676094698 1.6812538164113946 4.661992841581347 -0.06745649098076124 0.005002338310597837 -0.4006714606834132
Ni 5.719079012109831 4.915800461067766 4.838215958346038 1.7097339799641074 -1.3131662570364222 1.75194892276926
Ni 9.358242177824607 6.603046042363446 6.405988729753832 -0.640693196760832 -0.16785961209087222 -0.9422481163560418
Ni 3.4000144036769857 5.284801857106358 7.9048459546947205 0.2859832904091978 -1.2946018637706738 -0.3644405033758369
Ni 2.9607891504564745 7.1333498492060485 2.523176921344003 -2.482653612993234 0.5915802412842651 -0.8032583932219844
Ni 0.545394108636711 5.943001422948675 10.14904704850259 -0.994276445707191 -1.2820050009422694 0.09711879393188436
Ni 3.8376555199918534 3.6399365972628246 10.142431879153671 0.13440801730064597 1.0119712918837926 0.05469353488813806
Ni 5.866655342549064 9.200983975356179 9.929426035285188 0.2029492567051537 0.8900084423250348 -0.45109362188970703
Ni 2.8255877247860304 6.18088287546195 10.068770444886507 2.326480693211671 -1.807723863647035 0.5536186744388273
Ni 6.411216381542455 6.70649018230194 3.224999890186776 0.8365171552751143 0.6056197500964666 0.6554068488219229
Ni 6.829121015703487 3.293224939331869 6.599532053968634 1.035387356814888 1.4419949804770777 -0.6706493768032902
Ni 3.15068057318115 9.636118427979175 6.637201897739589 0.5764091899707815 -1.1181889627931516 0.6988826606173706
Ni 4.387695808988291 7.186073652806805 6.434929047329455 -0.8799418021176523 -1.056578389070206 -1.0271893943851278
Ni 3.1853824898671195 2.0220016648152224 12.176177589511141 0.0735335504127766 0.7944186834431674 -2.820285223706343
Ni 5.691608214475504 5.675617750180894 9.173417197662273 0.033966586753431824 -0.13895064236600585 0.00045842769365727503
Ni 4.997886708137237 2.9380521266343034 13.259947148447326 0.7538893558705533 0.061476362137926385 0.9417032995961653
Ni 8.929295177586003 3.9018782938371017 11.510059202831087 0.9617885003818147 -1.372751572799223 0.058610353444040995
Ni 2.7311545283049297 1.1470921702809316 4.558476949559481 -1.4260060612479892 2.81603236196726 -0.19387737631087257
Ni 2.683127224706786 6.641130557265583 12.49287730784207 0.44004019228902275 -0.10805600966967842 -0.02467924791423492
Ni 9.220664546795698 0.2714688822938628 10.248512209272203 0.49090509745969 -1.2321202002966845 -0.8625688580568436
P 5.606642565618716 1.4311465543675095 11.767022050295454 0.019424684383514933 -0.24954664484871864 -0.9137957745526198
P 4.106017630260179 8.169906537282637 9.683196181279174 -0.4216724884151125 -0.707595100789704 0.880809035213954
P 6.585247798305927 7.717887048935962 13.572773186121337 2.271551902384275 -1.6348937949247648 -0.8040695762693701
P 8.633592728016756 8.845540927539416 7.220847321576149 -1.8163627702689555 0.29813740927322846 1.0305259149575283
P 2.5838297960801224 8.028601525299274 0.4737426645492355 -0.0758395728381339 0.9695282922282336 0.019568666160546942
P 7.814146662084744 5.622111196579702 4.841107474121457 2.5791746254401193 -1.158143134588586 -1.876681364653355
P 5.360029723219633 1.2973988072693021 7.126824137000038 -0.08615123917678712 2.089534253625466 0.7869457721048899
P 5.405783324435559 5.1566358629874465 7.013597485746579 0.2341627061934806 0.7064383614774414 -0.28063076784803287
Ni 6.203741039165141 4.477618874514503 2.61452757377577 1.6518085684022326 -1.2710521014751917 -0.7489847194800843
Ni 1.479565232965871 3.7554201776842056 9.462729984430347 0.4897856391432662 -0.26645190524448953 0.558920803378031
Ni 6.911552045511244 2.3371330876095633 1.2968480867332817 -0.46018272867516874 -0.9974710413850887 0.21601226053669897
Ni 1.4282205603182627 0.5478280883999695 12.418083681609987 -1.0462435828031014 -0.6038678004023665 0.12521426661651983
Ni 5.0021731962348595 2.942152245684203 3.6280853895181364 -1.1995006144894502 -1.9426921243265252 0.07694386164590619
Ni 7.258729626061506 8.67387639768202 11.575497102867487 0.520737093219458 -0.5623537403189799 2.298061518639029
Ni 3.3892049989090682 2.385430626326905 7.925439734468081 -1.7786716834760852 -0.2267119063423902 -0.041473950874070506
Ni 0.8598555347044885 8.783424123933433 5.930796114013313 1.8103936971697143 0.760467009088071 -0.8536545862863493
Ni 7.14480222718861 1.41937734900382 5.517412792950036 1.107984511456324 -1.2089090522875439 -0.9849857644338843
Ni 1.8626374921075282 8.159525781324483 10.554519003490041 -0.6377127739762695 0.9470558221573301 0.38297352918301786
Ni 0.5072825702226541 7.5307072958556525 0.037898145854414325 0.45567481350248623 -0.3273232868085653 -0.4977748279963298
Ni 1.3154486495412474 1.0093747624662306 1.714386505715539 0.23025257250579703 0.020375221222242328 -0.9268250969327522
Ni 2.8018070342966115 7.599244513155681 8.195467984023047 -0.40001942892171105 0.8743095435325393 -1.1835356065197618
Ni 7.7836846412344665 1.4152865484063062 8.048813248524803 -0.4785360343713759 -1.052751044904316 -0.23554081748792985
Ni 7.328562108243208 7.402895402927413 9.647040586020966 0.8821192693849453 -0.49958976971788155 -0.558832871649915
Ni 1.270962357849835 0.7965003087763898 8.123511826542545 -0.48735723220743155 -0.16031856651882068 0.5260232813190617
Ni 5.738638443668331 0.25763843526236 13.651317489438837 0.7758404062203478 2.7732654033133786 -0.8792643164346535
Ni 8.590457611921334 7.73399865311159 2.1851053324654734 -0.2569532217254349 -0.6594239404011158 -1.438583640802684
Ni 3.9119701777712867 1.2998961525087867 9.922088685876343 0.1444178361281642 -0.9031416372728832 0.49089892681210295
Ni 3.444044091201477 4.601395877559544 0.5381918767874666 -0.1735846875001075 0.7410762632662851 -0.1940072170205175
Ni 5.397163755978384 3.3700089869936285 8.275458511150875 -0.7478259232852927 0.012134835590321037 0.43974014455010074
Ni 5.588583404894385 8.605143492881883 7.583468373265953 1.1797000348237552 0.40349710305766634 1.4499926539705736
Ni 0.893771905854307 4.591406496601607 0.09962730184113236 -1.3648323179521462 0.9822976760787598 2.6313744473721266
Ni 8.408654605867824 0.16906281795118472 0.13437674263427138 -1.1794424102869945 -1.5290651319237083 0.8672773192761064
P 4.872190103900651 1.713942947381959 1.754865862880913 0.25134795972351553 -0.23303450612630833 -0.043998259957821
P 7.836930278168847 3.931380514091608 9.784803654252359 0.34100978315672237 1.8004424994942734 -1.5920399329840325
P 2.626992867532704 7.660308331642028 4.989644537001699 -0.2879185597586977 0.3919456507746411 0.07234724341415928
P 4.1597291898138655 4.840041443168483 11.939958548903554 -0.0597894613538067 -0.012545954985810652 0.7253665658405121
P 7.713684426909815 4.097947850493785 0.389980959740738 0.6152032800198437 -1.3859233342944905 -1.2675245479379074
P 9.072771388975337 7.355287429686646 11.478772498944638 0.39191196932322825 2.328521377790783 -0.6755185319701335
P 2.0158794415975314 2.7892457604801004 0.0714557565873666 -0.4051711483259796 -1.1519855996276225 0.7476893977074284
P 1.6591784027086387 2.1710969029933955 6.345746798767942 0.1277329192733155 -0.6985643580460034 0.20720417532676572
Ni 0.5310492830334934 4.199062377335745 4.068172599584366 -0.8581517028257545 0.2777272210479927 0.16469098455490344
Ni 6.054934673010938 5.420096467300664 0.576516807761166 -1.007453606519097 1.5118515962588994 -2.399134412122655
Ni 6.846015369879551 6.856778182385539 6.099230868273674 -1.2090679464629113 1.1556075126509262 1.9828031334147982
Ni 6.106866408158874 8.99419819845544 2.513411183243333 1.2652061842173759 1.5194594905131444 -0.7261792915497944
Ni 6.569993491749823 2.3524433048799844 9.91055057813183 -2.2819376164939738 -0.7876574534599338 0.047311383491454
Ni 1.3770995305279217 8.89674582340123 3.5677353644845664 -0.16901326607934117 -0.5585744757822058 -0.1738291994107458
Ni 1.8632804653221713 3.427895213216304 2.2331400908255263 1.6493511080006755 0.41888361281606573 -0.7506219979731912
Ni 3.783515311628405 0.14761080871306145 2.824477897106841 0.01255366829529451 -0.28705621175840235 -0.6281187025299312
Ni 3.7904948324656202 8.790152046556223 11.850244216710793 0.8461932449122974 0.2687687263031242 0.07590462174811445
Ni 9.066304383019357 2.813250093826786 2.05008468477132 -1.7749374132446336 0.15436980513455348 1.4430141657702116
Ni 8.407359340986151 5.736141098428846 12.66209015287667 -1.337067232023736 1.112572645047639 0.8385187590861752
Ni 8.157326626561355 5.477619273880281 8.09890738486219 -0.406125798929765 -1.1110523517483704 1.0227480707843224
Ni 1.9038902808209512 4.506832222745039 11.818657458657508 1.7121762708570123 -0.7802516479141659 -1.8022433001484381
Ni 9.133490424723396 2.2052863047981277 13.447653394087453 0.5510725109782058 1.8177177416349533 -0.5426508625734139
Ni 4.147885436831087 3.2949302161185323 5.897122022625536 -0.2787070684627588 0.21825066294891446 -0.3701447528494658
Ni 8.240093120655013 5.624049434676019 1.742031558409488 1.318217960527717 -1.212066881190235 0.3696379884163763
Ni 4.944771529536262 0.8757500189395203 5.075076108477793 -0.4155735746062262 0.1448495243489441 -0.6872754153957454
Ni 8.169794715854003 8.228612787315294 4.538673374548464 -0.6731649441362922 1.7821940948070467 0.48836073377128153
Ni 2.0278909267232605 5.580681357270943 5.449588437257545 0.9770215152814851 -0.5860153456019778 0.7663471220179319
Ni 0.46632238091415557 7.6387361143681245 8.572286629768369 -0.7472111725194293 0.16966529784104328 -0.22475375417475488
Ni 7.975402480626824 1.6091662687522479 11.415244881647395 -0.10818739304122013 0.6576989872902091 2.2080464256314616
Ni 6.418978652380106 4.324731026215172 11.789389131557893 0.26022726449101635 -0.4507128415115206 -0.5486168503488617
Ni 5.43105496730676 6.527156566130757 11.522852506112013 -0.021034966293428287 1.365145735427507 0.030845267515630753
Ni 3.4602488799009676 0.7312720739186777 0.33855428471213167 -0.6062126464854591 -0.6622079309041563 1.5749572664701328
P 2.7880809539318334 3.6174511716550786 4.11706651925442 0.510149804621915 0.48543507548405423 1.3430391333364546
P 8.699651236982072 0.2974403409392619 2.646864467246138 0.20850541063669253 3.699764998585912 0.36129450154768744
P 1.2389162000939138 5.609233095382062 2.171057765493374 -0.7307627971554188 -0.07846724026896809 0.01370732228376349
P 1.2405282923567154 5.401543428599868 7.788168680522676 -0.8882361809159606 0.06870707555841071 0.32783082257260315
P 1.7150425247635228 1.5715569949218038 10.253258097072463 -0.15285491115192384 0.28065956420343924 0.2612171392081114
P 6.004205018220815 8.47864550174009 4.549911428126144 0.018958029159741544 -1.0083378088962633 1.218119258031902
P 4.60943770196878 5.848968919920178 2.20959981640767 -0.11713791736628858 -0.7901308547010908 -0.8617450766039675
P 7.409912197574173 2.978112153442301 3.75602867262502 0.806172995765618 -0.4929342120745768 0.6195188766760622
