# total energy = -340862.3990092676 ev
CRYSTAL
PRIMVEC
9.40197020814849 0.00000000000000 0.00000000000000

0.00000000000000 9.40197020814849 0.00000000000000

0.00000000000000 0.00000000000000 13.76073376533907

PRIMCOORD
 96 1
Ni 5.710361882460741 4.207381712929083 8.75166140732157 -0.6681561780677912 1.694005770595573 0.5938122159385774
Ni 7.603693055249136 5.242294192636247 9.860515682517741 1.2871757465099316 0.3728616375599966 -1.2903713706290938
Ni 4.447094347907496 9.437603775689572 12.092534031719197 0.48184298725742175 0.29276097545266355 -0.1509263266706433
Ni 7.6584971401757596 6.9555306241706605 11.679229998348998 1.5595884973235463 0.9652034396006344 0.16705871345613163
Ni 2.9269085727117914 5.8596369650443725 0.9949710294437776 -0.9113108033472369 -0.8130671517822899 1.046888929696584
Ni 2.8873638855954122 5.6055957273162305 5.909520058711672 -0.43293983379881573 -0.5188946406940806 1.0277892327526559
Ni 3.097789383063716 9.383392014892367 5.038437851822297 1.6514666116817818 1.716853621728024 -0.023481885172024076
Ni 1.2219458750486123 3.0358303987325366 3.037461640581013 -0.6427580497096608 0.06434134239054726 -0.6453934304499788
Ni 4.308932394228182 7.6750728138291535 2.027533956770917 0.4113320257210529 0.1968032917084159 0.29320320519640475
Ni 6.373003347813878 5.6816952749909735 4.084887202571389 0.3044178429653015 -0.3028975496660332 1.3265424212330124
Ni 2.522586241577038 7.040016729360338 9.257217573356037 -0.5728610676082069 -0.3401700608642464 -0.3263195281343993
Ni 8.462008326656978 4.585369125230508 2.6444141522398787 -0.260014634259578 -0.2773017034747998 0.33626944025825956
Ni 4.249549549761456 4.692890057675328 13.33009187846461 0.7213425322827834 -0.1697632568714883 -1.0458278354219215
Ni 8.28738553212238 2.372474383635975 5.640290878147629 1.3157293897779083 -0.1648781608650451 1.2863833325156233
Ni 5.657936496022099 4.4095146725855345 2.3221240120443567 0.4606627536353809 0.44488106532109195 0.026092326211677643
Ni 5.1817266999106835 5.86805172847023 6.785403851837455 0.0788253949393352 -1.1403143339372814 -1.506291842782935
Ni 6.499008553884662 1.8656611741712996 2.3413613834920084 -1.1422750572080778 0.31299375755977066 0.6790877373786305
Ni 8.35399849175613 4.670607388044844 5.321853665384416 0.6935702472655217 1.1890657923093715 -0.2889359452796186
Ni 5.201169974508086 9.160179837804883 6.517702491448498 -1.1249993008467656 -1.108933762743471 1.1577440993779546
Ni 1.1623937951163381 4.275705831158927 12.783377647208875 0.15487399846448166 -0.3363098065778917 0.5985492164029305
Ni 8.866988795713306 7.27798999983173 3.2105989238069106 -1.0473992936740995 1.256037373233914 2.154044774604026
Ni 4.57177387616482 7.181018078072734 4.762081037567591 -0.14283583635302496 0.1787747163414792 -0.1327833372130294
Ni 0.6731256024438346 6.536804474523711 13.200768717072057 0.6268778881442946 0.38320955645322385 0.1949307572760514
Ni 5.101180020280151 0.26917746972734824 0.7433423372967247 -0.6481594232308903 0.45053877782750157 -0.4146186668921246
P 6.896514456545955 1.1613219705012008 7.121413347106734 -0.24586739622491852 0.16162700091759905 0.5082237912437958
P 0.4741394822495442 9.238987152928395 11.314460816103903 0.6350059165680676 -0.18127614260709426 -0.6318226337440797
P 8.491850180415272 2.4719096216157244 1.922993448913803 1.1666000071066878 0.5904445850179251 0.37805269484263276
P 4.4077282982269725 0.5338147279928563 3.127924578295627 0.46359046880513705 -0.1061114843487979 -0.49789746961712317
P 5.05450863967014 1.7505340477471285 10.859461865007836 -1.7047288134400318 -0.2105728346886825 -0.8256395891306619
P 4.099165034681453 3.592878335554039 6.928006356093342 -0.7378366732830648 1.6149124667068315 0.23921929478078158
P 0.6326134525827395 0.28848253536121926 0.5215620802871822 -1.434903106627303 -0.0436151655867894 0.32437808813731234
P 4.239254392273953 5.1976630395831185 10.168948258675977 -0.009443661911403091 0.0880541126264548 0.7107526725820791
Ni 1.9500626616282035 7.806653388292712 1.8387781204690021 -1.8567864255016409 0.4313611764577861 1.9297823582433928
Ni 4.950334808655047 6.799504926905725 8.735327364305098 0.5820563609542299 0.7332536818980727 1.961342392437861
Ni 1.4222924603465024 5.623920167446954 3.265875927840037 1.114482203365526 -0.6405078202229033 1.244705750271179
Ni 8.694349816913745 1.4189735648277004 9.215108968936605 0.8694103064587092 2.0078395075581357 1.890481760871557
Ni 2.464200005962983 1.044643518976173 11.03745714629199 -0.5946928187713177 -0.5850527245783924 -0.8940167921534796
Ni 7.919110355149348 3.2258818265429245 8.37562208326801 -0.38859961712054364 1.6123773589898038 -1.3996142015180217
Ni 7.055351342933047 2.453124484939898 10.701997666285743 -0.31898957013188933 0.9040055279350754 -1.1333186193457385
Ni 3.114487282331117 1.5223670323072114 7.283804178270334 -5.1359950515547546 -0.5183547090302105 2.2460398741560996
Ni 0.24445498880188002 2.132977993974651 11.717512941050016 -0.3504213062786094 0.34497288156952843 -0.5181168819877915
Ni 0.4910131983617092 7.039076532329516 10.685994572624118 -0.41540979533485234 0.3995841411565054 -0.24626694565618232
Ni 3.450748750404656 9.148201727632209 9.055870618417352 -0.5700765628845343 0.4802661296886051 -0.485638449744112
Ni 0.5689216851237551 4.438406927342699 10.476610813465967 -0.17124986871934378 -0.870643664645178 -0.3398111348629309
Ni 3.0921293969381662 1.642749860133678 13.317239385053272 0.07292368474291956 1.758626591899752 -0.22291927206917736
Ni 6.02410563164609 2.048999595181617 12.882496038789236 -0.8216469230315012 -0.3801003214002809 0.08982534559426465
Ni 4.496962398422302 2.9020121553356213 1.1711178833653366 -0.0645539726219856 -1.8974170545388096 -0.5795690757560018
Ni 3.076945214890389 3.2783448208628 11.240139181014444 0.32289816115767617 0.5974441562642099 -0.5476390598166246
Ni 5.670600950027273 9.287980820204536 9.10189984445531 1.6704529229762974 0.1299486959777117 0.5912192584004206
Ni 2.471580552654937 8.915427746741264 13.731464811513675 1.0742884047554595 -0.2911527504252792 -1.211688157694578
Ni 7.7638744233903045 0.41497946447912265 11.570025173021977 0.04130940027174821 -0.9535095482024739 0.26723249216425593
Ni 2.049507301578261 7.480480234359895 4.901216095173805 -1.2189471532498362 -0.12413208929593461 -1.9589597511382972
Ni 8.545779882103231 7.9465265005681225 0.6530213693337649 -0.27294291228547185 0.039764424382131514 0.21478815832161077
Ni 1.1539978356310963 1.526870576084849 5.107557376740218 0.12154838772915841 0.5508233710818773 0.0009960453646821554
Ni 0.6001399873351735 2.535231891641596 0.39827968481765974 -0.2957732799164261 -1.2873734643430343 0.08107999530146681
Ni 6.291065176577728 3.773189322125109 6.358684147034457 0.017389913341673276 -0.6210931631417175 0.15113664290923648
P 0.42313097273635064 5.277833640401323 8.490923146142881 2.389289915228408 -1.7853362399804542 1.2877434460879436
P 3.439579209678489 7.3826339293622345 7.251851582177844 0.04034009437994343 0.8709532254657968 -0.9195483607656809
P 3.2859134069609186 7.088794151319391 13.043317681108395 0.8419349838565758 -2.0353027459754105 0.7008307854826769
P 1.3147715279016823 9.349385088287532 3.6150274972061474 -0.49930900525266914 -0.8906180508845759 0.11257318081374161
P 3.622043247450142 5.259170729339504 3.8053384193970414 0.7108442038546209 0.4308454131636322 -0.8025220292765921
P 8.061757048665685 4.017076431920373 11.658823021795005 2.276164204345306 0.39080253830913336 0.7681625779601158
P 1.6862057668982777 2.4689762068795598 9.38991228130112 -0.14613584726053544 -0.21846406451130118 0.609015663151893
P 6.741156299172904 3.3300932654392503 4.247718045945414 -0.13999091070506212 0.24984000771942133 -0.6193916070695784
Ni 5.085224876667099 2.1086268908763577 8.264159844869981 1.6472343187679888 -1.3227014502203673 0.9343856828888294
Ni 2.3946160237118366 5.696211917146868 11.418024459245991 1.4062936704207265 -0.15012208560179305 -0.21280712333583998
Ni 0.9696440018274908 3.545332571705363 6.890425740574351 -0.19479371747755486 -0.062430498521079576 0.17250713816521257
Ni 6.197205306990754 6.468442748412634 13.507123457792174 -1.788303293028578 1.2325907121751998 -0.3757135051864948
Ni 4.592928309358318 1.7789374000482652 5.911707897202395 2.3195497704197927 1.5728818719983426 -3.86283053172225
Ni 8.97565676853573 8.874181302999096 5.297428286720688 -0.26976811410191603 0.27338231381573563 0.10472951639960672
Ni 2.63400899169977 4.9394097191568935 8.333101672549077 0.5122740500537694 -1.4594450576327254 -0.012616660322746012
Ni 1.1739864245063751 7.787416957042091 7.091498157980036 -0.2242978975842589 0.13412776705606577 0.8019458450581479
Ni 6.836661513563818 7.634390488305479 6.473626994840587 0.42569703619347327 -0.23946483513268432 -0.10510335479925771
Ni 2.671795510368512 8.02466627579975 11.321878030480057 -0.8586666947889599 1.5006184465472414 -0.4065058079770032
Ni 2.2953500211976348 1.0918038020422116 1.916085821328353 0.46000686521893686 -0.47101530051429846 0.39703334971019366
Ni 5.470724463244793 7.332286378361709 11.127025956630293 -1.8220816750306041 0.29774737292366144 -0.24380357171735434
Ni 8.200783983613354 9.011450069499128 8.224914140409403 -2.0452596000778067 -2.3042218818134703 -1.8804912253177484
Ni 0.8487346636637635 9.285442288221317 9.084410299287958 3.2583896324252333 -1.3557874341410585 1.0328159965432857
Ni 8.373178511184902 6.271734725624026 7.682176942594045 -2.0330198634785055 1.5127854209270786 -1.5802470541141624
Ni 6.703680045524333 1.0387766895038428 4.85921749380698 -1.0318292071499842 -1.5533072923005249 -0.9172819333290074
Ni 6.830023722526213 6.344430760047193 1.8188666277502508 0.7643959118288319 0.8176683979997273 1.1654514953245412
Ni 7.779998802468905 0.8164182113203448 0.4885169752448764 0.022942724839102424 0.15822028922889525 -0.3972786329517803
Ni 8.070265831794623 5.083222256991448 13.741950828998434 1.2184653285174112 -0.27261818195620147 -0.4075687020238787
Ni 8.508707913177913 0.5737129291928247 2.989326373194012 1.09411983765909 -0.2954248954380719 0.6028139052165554
Ni 2.837674472516462 3.482170135174732 4.894761642557212 -2.0331707872340723 -0.33402640986035376 1.4290847001733131
Ni 6.164542862139993 5.071093715293842 11.61269695546287 -1.7375869976206333 -1.597229447604772 0.1917402753632117
Ni 4.529718862976146 2.9088943976012396 3.7510937517037584 1.7238426514513472 -1.4579484184825406 -1.233230659752044
Ni 6.513261940871925 8.735765496121461 2.3796302232375623 0.2770224816714842 -0.42073892085724957 0.7441790705613248
P 6.7731982139833224 7.764231698262017 4.355918740843518 0.6109367914340059 0.9995358943339174 -0.6228715951983789
P 0.7569253638010122 0.9030855736215297 7.135202276760772 0.005848488360977024 -0.1939575947295047 -0.3065418312868398
P 6.9944171733654645 7.49050273470846 9.465568055977315 0.7756694278601222 -0.4091054503833793 -0.12118997594847515
P 0.5812880966701587 6.098719668012135 5.681875792820891 -0.5682014573490086 -0.4217149116172737 -0.06547751287751949
P 2.479497011654459 3.30985082336565 1.0540924991359355 -0.5578160003496264 1.2049431256612604 -0.11083871462113815
P 6.348821480181132 8.60514392262934 12.847764220273637 0.6820720168179351 -0.044073336170130546 0.9562755409833854
P 6.5023932631956205 3.6995154827898866 0.3933558729672442 -1.3919505143251771 0.5204614709605683 0.3529520431202631
P 0.2291796076421127 6.238197897534599 1.6712547537141438 0.181759510001416 -0.9525425563035143 -3.5601643813407335
