# total energy = -340888.3697276375 ev
CRYSTAL
PRIMVEC
9.08796852001170 0.00000000000000 0.00000000000000

0.00000000000000 9.08796852001170 0.00000000000000

0.00000000000000 0.00000000000000 13.30116055497110

PRIMCOORD
 96 1
Ni 6.398402555971232 2.220826917049721 11.331045714736561 -0.04627600024840417 0.36045169393141796 0.37757421254431744
Ni 4.967810871336052 0.49111019464991645 5.603898704647094 -0.0729823058949969 -1.1799638300081032 -2.287370100363454
Ni 2.5437587976833695 1.8071334927708798 4.543596305665599 1.355486872181504 -0.6302725156481404 -0.41771247532609995
Ni 3.7883742903534734 4.452613924380416 4.937364358517376 -1.2117622054656227 0.9535118621953192 -0.28974635699605583
Ni 3.5241143358010665 2.9995022532475115 2.4805201673183883 0.043450614984467104 -0.008772603986307472 0.35089747458407955
Ni 5.333856075595694 4.692481770877984 2.818861607720214 -1.0676161349416062 -0.5292325322849788 -0.5137570623571991
Ni 5.140691300370046 4.550991185816203 11.870621137793952 -1.497486328676163 -0.4068940445543573 0.31543964799710195
Ni 5.644182943609349 7.866164032687 12.241776506867021 -0.4044466114551293 1.382022713688504 1.2701388456323028
Ni 1.8403045786129697 6.462263712193797 0.2571677037603068 1.0743213148759239 0.533207714882643 -1.0949629023856755
Ni 2.8304296831088163 1.7988089134198237 0.07032361078210272 -0.42105285255324265 0.19462093934511646 0.39937768157265413
Ni 8.285691932886559 8.967671281862476 6.473581868442492 -0.06946760787351906 0.9806753099839884 0.026854915409315037
Ni 8.819891822443786 2.5622255501302535 1.0582685115810953 -1.0492515163914897 -0.30481662106561697 0.7642773839730967
Ni 7.169489438284599 1.0017849683685591 4.421425833313873 -0.3294889270013164 -0.8623726828856374 0.6836812702865838
Ni 0.8432962466056714 7.432867859870793 2.125711327588927 0.28295324533362237 0.7407011393150534 0.20822413195084785
Ni 7.949982368227163 3.8740011316696843 3.515457136794717 -0.5180752301165787 0.23841531082224748 0.7121420967304382
Ni 7.44317361640365 4.336451508152035 12.561483067400573 0.6104081726240456 -1.656371762292883 1.7034172937174599
Ni 8.29218983052412 8.063963671961817 8.828007378514194 0.11775523923531334 -0.8977106960652991 -0.017279098795421853
Ni 7.0387044803795265 0.8800734384373889 0.46611918945617326 -1.042859753932533 -0.45945716336305387 -1.762911335318035
Ni 2.2474637533793547 6.6613538430274035 8.958890486481483 0.06872404483927519 -0.4263647516844592 1.8586810714211925
Ni 9.27672583425479 4.989458412836287 1.0716096496677219 -0.826833352328447 -0.21220342831357 0.5075460484504808
Ni 6.452721345033744 2.2375396915328998 6.685815019644545 1.2859920106144755 -0.8160694289437235 0.7390366071284369
Ni 3.490861458240462 4.425977088050782 0.5724538763065721 0.07539322932933468 0.48680033126269706 -0.4911359825235735
Ni 6.207073550427803 5.681443615377176 4.8453868446569315 -0.22867854315045777 1.188706866308056 0.08443039983093846
Ni 5.604932006690997 2.563043467315401 8.943354603948045 -0.4629942299820349 0.6726054720883965 0.09364317667845808
P 0.25619529110685374 5.545387635612264 12.000094701812172 -0.061916792109454666 -0.6054778252019636 2.4613124283132963
P 3.9273747719849155 6.280368018185736 12.643085756165858 -0.19436588591151688 0.29100645465540204 0.6376703507741083
P 2.318313557550569 8.754858318255842 1.000459033731748 0.34097275927119985 -0.4827408164813428 1.3083464670502758
P 6.711192263509052 7.922373119244075 5.109707688599788 0.08090850272060904 0.3621504217900795 0.4800265028739733
P 4.877185647221719 1.0638467067838004 12.52215215635745 -0.029029040242498392 -0.17224257164991624 -0.34187418803954667
P 4.324564445061227 6.21646142211955 8.321312226299728 -0.14633587908648346 0.43161314456759214 -0.4870623266748321
P 4.452468516880835 1.4472953711496346 3.5321899048090883 1.7366097213090286 -0.8970038998062616 0.3805119550164028
P 0.5925019353114077 5.701146331570505 3.290973403752901 -1.0681434681999862 -1.1955200325751474 0.6234284961431134
Ni 0.6563867202526554 0.32136238843503817 4.444382951107216 0.18584473581438316 -1.0228066919363998 0.6718567668478299
Ni 1.9554491423442786 6.348018857366151 4.973529930053977 0.558356960454761 0.03906019922625532 -0.7813487376330865
Ni 6.695924476052967 6.110323035393587 9.103102009379185 -0.7431884245132813 -0.8793221662557823 -1.135986653096205
Ni 8.90070204033635 2.4284324745775834 10.069377557553006 -0.45443888421285605 -0.1338274622068276 0.013074573795771033
Ni 2.6370831485086903 4.980906634267135 7.236749494809889 0.23972991586861297 0.27387236607827675 -0.4752077413290913
Ni 1.0769242937774353 0.5904398752079638 8.868256174398425 -0.9610487940023126 -0.5301162204415129 -0.029082519188253136
Ni 1.6792839487636142 1.1496916593493842 11.297487481426836 -0.4561126723708532 0.25092809857727755 -0.31212729579441734
Ni 3.972941847166351 7.02839872384667 1.5692977160799684 -0.5602575199115835 1.1201723117717677 -0.4234421787210256
Ni 5.766743289819328 8.051231427779689 7.7982978086478285 0.23702511534294013 -0.1442748827923967 0.2507856594621423
Ni 5.596934594214 3.114555937291582 4.653823369520427 0.7397094648257454 -0.8652425482342647 -0.49736653681431764
Ni 1.197939685304358 7.533462585675202 6.943179023529288 -0.5867077436833122 0.49436914474889054 -0.5825001333598677
Ni 5.16313858311798 4.67404228233727 7.145995221539676 1.321453436745879 -0.09912502572863573 -0.2308233574076025
Ni 0.8115383399001419 7.454479049496133 11.358992127359304 0.9740590902190516 0.4948915929112638 -0.49723901009751786
Ni 4.681776143721276 0.3482591406701749 10.2663947227207 -0.31841390013407744 -0.788033862962746 -0.02781008023373275
Ni 8.689161392351057 7.257133808657508 4.295463860410553 -0.5033780331157202 0.4420669929110645 1.4327369522139197
Ni 7.595878754870673 6.714482108187091 6.8170443792202144 -0.27517514405010024 -1.1831129171600463 -0.6554477293621873
Ni 2.6437264536458316 5.316643462832703 2.680742659054987 -0.6497643058241648 0.07031221526200149 -0.22873690719221898
Ni 2.4960015220394838 4.946626816240735 11.661978643034697 -0.6461799309070162 -0.1846535437197594 -1.2610206853811186
Ni 1.1757923055243107 3.6168116167844406 3.7852980129404465 0.6365074408142586 0.1298219405918603 -0.0010988894911335915
Ni 1.543028033686778 1.2378176920646566 2.3452739255667727 1.1370996836547254 0.3624525264115306 -1.014631355214459
Ni 1.0687269459885134 3.1976654112712835 8.155287760871015 0.3120833299303593 0.17292237132576024 -0.9946160884347968
Ni 3.9915267432066446 2.6787242212014175 6.663295941943693 -0.1899029650441568 -0.46833543968929026 0.1850862603818038
Ni 4.127164676410259 6.985957909906243 6.0987149729426005 0.4953669898857856 -0.8934519207889452 -0.5083896273976987
Ni 0.38835616747671853 9.338524021577042 0.2515713326201537 -0.028374951598267265 0.02806564788796457 -0.5435625757544058
P 0.21192143387482396 6.162178984931933 8.292768734131828 -0.7231335627449352 -0.7463321123485855 -0.6166790932344217
P 8.515199495038924 1.6795384118878824 7.7959967349669475 -0.6111069984632831 -0.1751461184499564 0.14116127686407945
P 1.891715217683847 3.3710002387414693 10.201192182314493 0.6515710200156004 -1.08510297887246 0.10815602558265243
P 4.206220916339118 6.371620312142015 3.712806012820831 -0.00960615563119636 0.2913296423227757 0.9229301327537203
P 6.545500417735633 4.258258625251942 10.395562022192925 0.8943620913080405 -0.41606902618540603 -1.7251518571810738
P 6.279250198032701 7.917710991288734 10.109520933000042 1.419555163416323 0.9417009856033202 0.16486916200398058
P 2.7407496077417637 8.556631544451003 5.535996128733028 -1.383960811251481 0.3932936801621033 0.4642404436843101
P 6.9884389253678565 4.149557431345849 1.5925610984193057 0.2985724399281181 -0.31148426289377973 -2.2361681235683424
Ni 5.2185842803022515 2.822468622506715 0.5577586308800901 0.7648664237073471 1.2534284748561573 -1.0027939962598986
Ni 1.700040869328911 1.1257266858245647 6.639647229730463 -0.4690651187664631 0.058438089532234845 0.26672469928990195
Ni 7.173479056554374 0.9181393042341498 9.459479432510385 -0.4375248820663368 -0.9487908025705659 -0.4972870897266339
Ni 3.076877218962457 1.6548100489902586 8.815610480377975 0.9287439112220198 1.1158613431012394 0.6890217086628908
Ni 6.510011899868959 2.122295160145628 2.4427314845677053 -0.021243739870124706 0.1372979372539313 0.33166253761386755
Ni 4.39402379001769 6.635280460758648 10.544069427906397 -0.34132859994872183 0.3316468538845837 -1.0663251840443249
Ni 8.378743644650163 7.121114180767492 -0.02722391910919566 -0.02675464238602489 -0.4212217740309391 1.6425101738194423
Ni 7.640382537711416 4.062985441282358 8.129536092695085 -0.005728417843344973 -0.37153391988750856 0.4315174995299923
Ni 3.2024820346949294 8.466587950334995 12.420091541197882 0.285637734144321 -0.13251028605730084 -1.0369603577289626
Ni 0.029027880900881913 4.871578370519097 10.016571915283016 0.20124795774333085 0.13442138703708462 -0.3655139389456737
Ni 8.704501883556933 2.590180141924847 5.610961873939278 0.8726085016810328 -0.2342560372382353 0.3277529181468162
Ni 3.907944694853302 2.4869135533156235 11.098808126779549 -0.6573351761928872 0.6695849400945179 0.511287517770784
Ni 0.6024269059547355 3.2128877588837494 12.290631609132749 1.3418312290712826 0.9151458608226111 -0.5315704363895362
Ni 3.256600888445517 8.54238160949199 7.795357850765661 0.21121509625837173 -0.2022943967299742 0.44306715204080466
Ni 5.4500730196364175 8.226120297901655 3.1551946070340673 1.2974503889630622 0.1422596521345808 0.9726611814302605
Ni 3.0553023812120133 8.610486847108598 3.3807025541510622 -0.21050855710965038 -0.14679533522140523 -0.36134309539743575
Ni 3.8975389706644825 4.251351769021809 9.39951792366723 -0.4791770103894844 0.530266629976448 0.012848573827894
Ni 7.183421294338277 6.220123873515266 11.401555628877503 0.02987750428572274 0.6605426273865914 -0.788607476078029
Ni 8.0559208196412 -0.2058070485174108 2.3319991296518303 0.5189586611627965 0.3189759432851345 1.3319602498144738
Ni 4.658438240038403 0.7447454049672587 1.434955727216377 -0.5584621185740576 -1.48292822835633 0.19084270324960678
Ni 5.7607088785866845 5.934516280430511 0.48237847430003156 1.2613567285642986 -0.8790169763105378 0.08144303506784038
Ni 7.925381236891673 8.60865107742638 11.581347458125991 -0.8375417398848866 0.5468638722134969 -1.0085725506148888
Ni 0.21883010769870248 5.0001640399929945 6.382442265298389 0.3850144708724466 -0.311069029733232 -0.5139606937275729
Ni 7.282134810616847 6.127617439875093 2.5566164558338866 0.7998987327211321 0.6786660764601796 -0.3724078378520296
P 8.801824940620751 1.748534270439429 3.176609496534972 -1.8261995538537195 1.3143646482198976 0.8060087022736119
P 1.7120460760131304 3.412559519715682 1.3924322127605628 0.34361122533531147 -0.25296749760480947 -0.7787115571205557
P 4.893934773579792 0.879956203640851 7.599897454640364 -0.4059373370680428 1.8874879683505557 2.9394252591043246
P 8.343409622251794 1.5128287136173906 11.988004068221949 0.8848173850423987 0.7827530741797809 0.9020291209349949
P 6.649003293531678 7.812535929247501 1.2230297493571913 -1.2626283961878706 0.0075888680908514465 -0.6589511145297554
P 2.0424028270941728 3.3093747228249732 5.96958766053276 -1.4316671161885086 0.7997642640257968 0.3327817388199753
P 7.197216830861097 4.202294913850411 6.010515327680665 -0.038767864796817104 0.4056804838622304 -0.6325528270418848
P 2.2961389138643504 8.489489631519124 10.197068970904477 1.5582751778287616 0.04052161426313021 -0.45729306583219953
