# total energy = -381164.03721512144 ev
CRYSTAL
PRIMVEC
9.35088503267195 0.00000000000000 0.00000000000000
0.00000000000000 9.35088503267195 0.00000000000000
0.00000000000000 0.00000000000000 13.68596544726991
PRIMCOORD
 96 1
Ni 5.485294672315063 0.5229753683535479 11.780235733443078 0.062051517915106026 0.9297983206284632 0.49880866857748285
Ni 1.605855555696885 8.131651268866412 1.7423055416625415 -1.5734284885304322 -1.7025032665436226 -0.5234154113825695
Ni 3.6733269066255105 7.881010143893929 7.377830599356481 -2.084443983586752 -1.1817078092824036 0.2925411461323736
Ni 7.072111825891221 3.2617289959437556 10.86895550926177 0.01767196335846634 -0.6539911994213188 -0.8995215240217928
Ni 9.101151038943526 9.207077865674172 2.6201778585468354 -0.88385630668071 0.7302714593412971 0.7303992431684131
Ni 7.925716725691176 5.519977105255032 10.312347812368133 0.5499983040774205 0.5890639026203145 -0.4274253317384897
Ni 3.922836574497498 5.493822679551853 8.33493109575379 -0.1145102499354544 -1.4462025908005223 -1.4179690498761257
Ni 1.018124372743019 2.3591628616132847 3.6784586723837887 0.43250968823993247 -0.9320986866268657 -0.28540402086696004
Ni 3.9747713904987347 5.508419411236752 12.25141654907231 -2.295017846716699 -0.98618878360305 -0.022269867141793905
Ni 0.7573637198849515 5.031973112191912 2.6250365784593743 0.8187634308361189 0.3351340411022357 1.1619720214163731
Ni 5.393917822843674 8.621843369049499 0.8920735061282763 -0.1320621427762887 0.1263910605334404 -0.6377356567944049
Ni 4.557135165389096 3.3999818325621014 9.479009085906219 1.4095278610873079 -0.976813513035737 -0.05657301129903805
Ni 8.797864430700074 3.868769756687063 4.350070100201879 0.4709145132703761 -1.383636852253159 2.6479218102078463
Ni 3.4250983100160672 5.590838112755461 2.4678940187938374 0.13369427906307296 2.067790434190471 0.1967647251609966
Ni 4.9445890906702035 6.136565119714088 0.5186954682304353 1.2415193821233972 0.6143877260970839 1.3208191455959897
Ni 9.20468403908139 0.5829360490601978 7.87827126963992 0.5625280611133151 -0.06229114472973789 -0.7643545170679352
Ni 2.7202846943737793 7.9778479102801025 13.339464035537413 1.0278360268301912 -0.540158178058547 0.27630282989664023
Ni 6.719892035772638 4.3405593149381305 0.854284709148766 0.2918029824147684 0.08784688171165515 -0.41729775638618455
Ni 3.2461971757460506 8.809646545961428 5.153737533063951 -0.633816781355973 -0.2659937346611484 -0.7255411437451634
Ni 3.9409305372202907 4.566383190780746 5.997901779238619 -1.702543632863255 0.5035919488987392 -0.491176863063838
Ni 4.824841655720285 2.9479132910461097 7.109338634674535 0.3262300537443865 -2.2899301477811465 1.080257992075333
Ni 2.893266718357735 3.935824953940371 3.7141107921115375 -0.11276807043336709 -1.203054907499612 1.4835386082468192
Ni 2.0830125220114586 1.8481556911351391 10.028185634388588 0.3191052697741472 -0.412164034704045 -0.2607471415502283
Ni 2.9997078437704263 0.23859344457349166 1.2841140405646965 1.4248634630031138 2.1448116860415323 0.346209582190107
P 9.11586933213509 3.9481213678837683 1.1593358294158829 -1.0884438703202353 -0.5254432404458758 -1.5779801124568564
Ni 7.715518178897548 2.35041978401855 13.410562555520093 -0.49142497451890205 1.5773895300607093 -0.5301537585476677
P 5.903307290194666 7.546566386403785 9.592753252603924 2.188676505745282 0.7106238603136987 -0.07652785715441014
Ni 5.516292856514577 6.450867070638393 6.657401005550335 0.8830800906363178 0.08240437053984517 0.5981026157838151
P 9.03177682217846 2.1531161078165137 6.164240934427602 -0.08706783745378553 0.3460324331822944 -0.38145606409722693
P 6.188612146336861 5.390944241372951 12.45815620345707 -0.39883337903340993 0.7528444595458066 0.16492546916321274
P 7.716630934227787 5.699327082011196 6.670279979637209 -0.6136945566848011 -0.25247358868752645 1.3592568807468977
Ni 4.576678515306738 3.744206615896194 1.5639907078900541 -0.3436446496764082 -0.3944031111761982 0.3191186395105859
Ni 0.34834104296746404 2.9656706219042928 12.282305327915827 -0.3562039743986575 -1.0662015139822671 -0.9175696397727553
Ni 5.460262352827249 4.045875521012492 4.225172197723427 -0.05674758920368936 -0.17269200048250904 -0.8751677777677765
Ni 7.328737517345661 0.1949004987241251 0.021667871018737357 -0.6757352759666299 -0.25319529734489943 2.606820412181846
Ni 3.896410973125604 7.31780633263096 9.591534832271737 -1.4726381592842317 1.4564718339370142 1.8105924434440817
Ni 0.17964265946067193 5.787094489823154 5.527584050306707 0.8988772055695745 0.25277929285340334 -0.8571484583722206
Ni 5.145661173578848 7.443510281407452 12.211823031263085 0.2893259816291856 1.4262644571156986 -0.8299091630402933
Ni 1.358459187863839 3.648846289360253 5.925844793530312 -0.007915141082018625 -0.2141795782033344 0.30704576750645185
Ni 5.282604886279264 5.588369479081653 10.440557798358945 1.420205138295496 -0.6380033086334947 -1.165766712572115
Ni 7.416719995515564 8.334939511550404 7.65061929575477 -0.6672184967448702 -1.2430399325329817 -0.6593532350641805
Ni 5.96402258733115 6.469325717881181 2.5861135191138307 0.10714403937837032 -0.674526086149877 -0.4457359571222195
Ni 7.629564842800433 4.7179797404768316 2.9000423697215263 -1.3238242509709006 0.5719017890187312 -1.2841598425017433
Ni 0.13574025378443685 6.015256086947783 7.984747928416098 -0.6971685061397412 -0.6267141088729207 0.4074506883887757
Ni 1.937204170209641 5.840927535505387 9.629760315586728 -1.1423524474132327 0.9695555459217431 0.7797903920070313
Ni 4.356904662141977 6.365839472168956 4.544123408733403 -0.3394491235378218 0.5603997019164026 -0.061305640888016995
Ni 8.321455535195744 8.011782272409828 5.0086258222041735 0.4731410886080496 0.6786087408596829 0.23362431719150734
Ni 4.58553380352301 0.4958297488267937 9.005612110501637 -0.861478196095826 -0.02646127951532217 1.0926016012423505
Ni 0.5477393174381854 0.26374732556796926 5.279880973441461 0.8602679778378087 2.0135717820562227 -0.5305700201494798
Ni 4.364001983954173 1.665514202813899 0.24953865561588423 0.29401721645726786 -0.30868998797809416 0.6740185503858392
Ni 3.21547016721525 9.184635741366833 11.096430751418 0.09669481902058831 -0.18390226737603166 -0.0044786045966439
Ni 9.206629023188027 6.875911554134296 12.029853871582551 0.5353633277730651 -0.4123373270571156 -1.907966805030198
Ni 2.5495281810503014 3.242812155329693 8.119021028323942 -0.053328021999179125 0.5056961397259356 -0.2537871652926274
Ni 3.763095403854873 1.7559372620022256 3.1222203354527114 -2.4362873670238683 -0.22551891447555353 0.40446280940504536
Ni 1.262827685659184 7.127693487092401 3.644504673395295 0.947399064429362 0.23908714007829146 2.397300187127394
Ni 6.822770473951539 3.702641931501974 6.24156714390557 0.9690302695458924 0.07095987614832941 -1.1758595780317427
P 6.313446462796443 8.725862615214021 5.429071540394097 0.8393556531651737 -0.5039801854760934 -0.7617620737504107
Ni 0.13700075309969914 8.97021059449532 13.012096092823672 0.6696350766061628 -0.1291010032654357 2.7948570134412254
P 2.6060262289940317 6.292313462407032 6.341816113186461 -0.4368096011668671 0.10099756016100025 -0.4815712216532739
Ni 0.750960233749257 7.865291305993662 6.645686216661903 1.2043258037922355 -0.5986726293546721 1.2969649646862116
P 7.987909462677894 7.516867975237071 0.8794039918682698 -0.32095517849869243 1.4015332729176055 -1.2225466976756365
P 0.1969118741151705 4.006124908333116 10.375644888888475 0.3624625537138596 0.43097911052801907 -0.057502979312475166
P 2.8842150615537747 5.8035146441080245 0.49162559087321855 -1.7212975164319906 0.35398125571572586 -0.5726728628568009
Ni 5.48968958832525 3.327858455569386 12.745507033265286 -0.04327680841076417 0.24245091434420182 -0.7451396347023813
Ni 8.473267155249776 6.943069611124013 2.764209542174322 -0.09475209347192069 -1.0178951135673953 0.903445027445915
Ni 6.7211263526095415 8.62862276076734 3.260448859769724 -0.767635244701736 0.9627446936474969 -0.15097517763070772
Ni 1.936063362224018 3.33231882777547 1.3058529783104071 0.8985501612474589 0.3487380050389155 0.8509564706288957
Ni 3.028545973505359 1.8366073480019869 5.591934971580981 0.7510961093961324 1.4841014227288247 -1.6959798636028083
Ni 4.185063446143644 7.999944051837706 2.686965620485481 -1.1021545350381083 0.14097204367140884 1.0512202100820862
Ni 8.92354032682118 1.612373122631142 9.882006052447187 -0.5604243845067509 1.52917594646996 0.695492403988899
Ni 8.830031475540595 7.815357579409829 9.541595495156828 0.3675453675534057 -0.1816939468708032 0.24162019091279033
Ni 0.6722005335811579 0.07223091217168855 10.975980129906452 0.7959628880018357 -1.3892428855860268 -1.0688901165580238
Ni 4.999394628405755 0.07696339513499899 6.801268113599568 -0.38492268248958866 1.6769292747292601 -0.22570840477854032
Ni 6.631946961143247 4.658844742926989 8.490622398047451 -0.3349890308839392 -0.2166288110747753 -0.5576460504306654
Ni 2.8399386204724166 4.07156240245927 10.747835364375051 -0.7301318484396393 -1.157837430422709 -0.05706126378936624
Ni 0.787907451067242 1.4296848798842614 1.2187915623256176 0.21507046544871994 -0.7600273504474911 -0.9505005861728212
Ni 8.093939149144951 2.154126003410344 1.9817686185529428 -0.14895017678087893 0.28471316544752256 1.111739607623382
Ni 8.15506588522707 4.787858905038813 12.574692544454011 1.3085102463216498 -0.5151791395157063 0.9553990519157031
Ni 5.427964395594936 1.515021057562924 4.9133159904479236 -1.1940447335812017 0.3126137485125326 -0.16949663347366292
Ni 6.97852816752961 0.15636830637693408 9.810072498422569 -0.1312879836144255 -0.0213650959393374 -0.22233588876188162
Ni 5.7359077446321605 1.779969036781336 2.327449334701474 2.0333520500069433 -0.35696347827250136 -0.4283789539010106
Ni 0.4670888682971928 6.293828305797777 0.4125002710966124 0.40438773319273585 -0.5727101438526395 1.0007905926766247
Ni 6.974516637809673 6.271872427517095 4.703346540339933 -0.8392276122277418 -1.3126888031793715 0.04855271209772283
Ni 9.205927706803422 3.2494699855408706 8.34879471804465 0.3067202658462331 0.8029424046434622 -1.4707154883402218
Ni 1.9625076653661677 1.2192058065367906 12.58748923075176 0.4314316246844054 0.13674592140520322 1.5317820166342393
Ni 7.004018680388698 1.2763490655543568 6.860911799300377 0.941820799010636 0.8196316923736853 0.013162248413570879
Ni 2.2105118407325373 0.9398013589104001 7.3306544487969125 -0.05475138470926699 -1.2411396301864754 1.7633327391261695
Ni 7.386077144950916 8.208992439760584 11.950489169146667 -0.3526052013038056 -0.6748960678947861 -1.6657022956651895
P 3.7118151498125997 2.2815224623950145 11.995269622936426 -0.147512673003404 -0.06346870997760683 -1.5414516785135195
Ni 7.559358397258969 1.581552605249061 4.286375611063595 1.676760867472196 -0.09052777097792797 0.21811208048852113
P 7.968207147713074 1.030907032713075 11.719620490777464 -0.2940807227053516 -0.33337309254707104 0.16409243173895613
Ni 1.9969376244076793 4.321062719446129 12.928994776690613 0.004152588715792848 0.7379315469897162 -0.07840424824151658
P 1.9128544653361765 7.32493170709854 11.568199737721786 -0.2481381945369662 -0.07188393062449555 -2.5134405164671034
P 6.200403612483343 2.0067280011367568 8.771800708582635 -0.21332288662999388 0.8740493478926172 0.37300279112355117
P 1.8783122956731282 0.3310054370285562 3.4892921364201896 0.8768217684314318 -0.48119224104730024 -0.5627964842833533
Ni 1.8852225997827636 8.554722715600294 9.09494018104147 -0.3730282450448479 -0.03992588966066027 -0.5401622918236052
