# total energy = -340856.67590638704 ev
CRYSTAL
PRIMVEC
9.39323509745181 0.00000000000000 0.00000000000000

0.00000000000000 9.39323509745181 0.00000000000000

0.00000000000000 0.00000000000000 13.74794904786873

PRIMCOORD
 96 1
Ni 1.4175613007258474 5.097905990148183 2.568322785338858 0.8272362441938205 0.044437918598400884 -0.04244839897219787
Ni 8.744519572038984 8.931604637119902 9.860578688602843 0.5215333638685083 0.3484659823244515 0.22938045431348883
Ni 6.49375952437295 8.222105404265704 1.0878343234948658 1.5769182468512457 1.0726750375217526 0.281754854150147
Ni 7.387234661463472 6.076643522967955 7.484012224199938 -0.3596453959800387 1.4236622436061612 1.5186519070101845
Ni 7.327127349546377 2.130864793827962 6.735133731500446 0.14545244804026564 -1.5424029866831952 0.1173600606794237
Ni 5.660203834495924 0.10421700499906042 6.679331339266364 0.39123576919181 1.8818654799574557 0.916105396522403
Ni 7.410633210296959 9.378187217284692 5.144496436641196 0.7787737778170588 0.18834127698399178 0.5044938918877182
Ni 8.1123454511869 6.5513870222025155 0.28984799727410854 -1.083489097418121 -0.21263614497561445 0.3505735155857575
Ni 3.5490178683701523 2.1658170219329023 12.59889554761253 0.472689860003244 0.23490524078645997 1.8823915276642549
Ni 1.943544897867542 4.019581377949592 5.003827103878942 -0.9405182781491287 1.1914852003841414 0.8095845925503283
Ni 1.515232160127936 6.681765126501514 10.028001833804895 -0.46560235702884334 -0.937067857706683 -0.1585265076154044
Ni 5.556803101634009 8.590094785679074 9.166830032498542 2.140907465891119 -2.9811653191555885 -0.9381603194399134
Ni 0.9800995519208793 6.510394943876807 0.3549393597777354 0.5197294778905501 1.4805479010496114 3.5279726270995373
Ni 7.562108520810335 2.192080507496303 0.6017588253391024 -0.9642891553164811 0.1247445260689529 -0.7185811674875624
Ni 9.309438129001956 9.234949774024214 0.6567853363473131 0.35302737644288873 -0.07165638799472175 0.7415367478424714
Ni 2.273388351214756 1.7545530060450745 1.2395454042112604 0.8119878026751822 -1.0850849811503314 -0.2582413444092391
Ni 6.03625261169377 3.474200750161109 2.679447575489322 -0.3452880988171021 0.9850829521333808 0.6061900207776398
Ni 3.1809533410753428 6.689392433467708 13.328994145216562 -0.361791495788764 -0.43077933581238714 -1.3139147051666726
Ni 2.366719535963665 8.521326910925978 1.5105280279497701 -1.3395848562392672 0.47122870207668527 -1.9910838853663515
Ni 4.814944173584563 6.4442759614444824 11.031932023377543 -0.4833267708917999 1.483418280618871 1.0975903127061934
Ni 3.3652955814836885 4.296183974296322 8.937775053309672 -1.5311268995487437 -1.609416476589267 -1.160364053499305
Ni 8.296180456895524 3.8069373199437764 2.469420472804666 0.3166305829814095 -0.1907048921201619 -0.6245883207791695
Ni 5.102856225088065 6.004757094135086 5.723188294348667 -0.5588161594793666 1.500138164476713 -2.4666945185608165
Ni 7.158471811888702 3.837052031930994 5.05677019532422 -1.639186508762848 0.008212103497147148 -0.3681845437993014
P 4.850243951391166 4.1792475895399654 12.015240304435926 1.3702311203702144 -0.6060655793846337 1.1563988982039697
P 8.953443908913503 4.864437129748211 4.76829736768047 1.3258752199626584 0.023908174076165276 -0.28762442555704654
P 3.1717573638340806 2.878068472694852 7.116268006224768 -1.8018265243259937 0.1437406075554815 1.1659055521428243
P 0.17174591203190842 2.0621157055452266 1.391540160630092 -0.4803064960082373 0.10071936679894912 0.6891317518781939
P 0.48110178012793053 7.611864487559023 2.1984481816248542 0.18595606458126684 1.0465323176881136 0.7015455521615144
P 9.157990998194121 1.2803167415102374 11.337672435252767 -0.5190550775313447 -1.5710417334658104 -0.8255524287334943
P 0.20016044845153888 6.195496127701041 7.798304237383073 0.34817519055691 -1.0452639924986513 -0.007042508669078193
P 6.437371933587152 7.522703899230054 3.454295545491079 2.9605304165140565 0.6101698313609942 -0.21100169469598498
Ni 1.7643783300433995 7.623869042119118 7.82555307331686 0.14946105497902648 2.779674906384148 2.1262274952814413
Ni 8.172574875161336 9.153632537070582 3.022761867408236 -2.029988532851349 -1.5783135845368752 -0.9943787756130102
Ni 5.181458817074666 9.073667925982875 4.204493787733368 -0.9032863903808637 0.7130826062668364 0.7396359312753326
Ni 3.935108013975465 6.46556103236246 8.795277796981383 0.34689118163816385 1.5336977455997134 -1.1564410642958147
Ni 9.43024452665249 4.090011855329555 0.31803146010830996 -1.2149532015990947 0.23503173906199523 -0.03251057103319562
Ni 2.58356237009496 3.0416892362960235 3.148803115024609 0.8656827210954767 -0.11015197296675867 -1.871430657777377
Ni 3.0958224506386114 1.6114001019012174 4.899439141999605 0.13121547850527723 -0.0885739896856668 0.16290998139508073
Ni 5.525692706717706 6.0870794072529835 13.495413153577868 0.2295277785246305 -0.6222149354509864 -0.4553020035440998
Ni 2.251793303535837 6.159679721959537 6.394611109077041 0.8624706419160825 -0.48263591547236245 -1.5924767634111348
Ni 5.275597820049058 4.552121453246957 9.976020609642053 2.400183936433092 -1.83914531538111 -1.075451314715309
Ni 4.176805348393154 2.1893095031181904 10.535589719169993 1.931267427429351 -0.18221022438558943 -1.945452974901114
Ni 6.529021729238831 5.884439144713913 1.984282419519871 -1.6722467816519264 -0.8407011114494748 0.16745106379854385
Ni 7.019714941809105 7.466288128738714 11.702268040795587 0.6945449524739651 -1.426651408141472 -1.8865852540306283
Ni 5.200677376253034 8.365427386642803 12.512627136395496 -1.8062272244968507 1.049526110209115 0.3220972625229356
Ni 8.625300631133875 4.891433287655654 9.443520925255964 0.012303242847385263 0.9910692516238029 0.6642041353985787
Ni 2.3167850977465556 3.8624231601522907 0.32347671854218096 0.2647806881896536 1.8047172156102274 -0.32088241627922803
Ni 8.8571914280236 2.2508070138419325 4.041677085063608 -0.4754244853255876 -0.6800359602245127 -0.11173705806569144
Ni 5.572997039084403 4.691263445968936 7.252538486952208 0.12354073556883886 -2.4809970512264172 2.558433793348342
Ni 8.433678633460996 5.5967994970306325 11.886490987117146 -1.3113356315855869 -0.971610885788875 -0.6024238688669883
Ni 0.7866609025641793 0.5554821129011019 2.982809620216959 1.9515590877988522 0.584248226399226 0.10262249735893295
Ni 7.8444973500279715 9.353971456990541 12.641761576356657 -0.2112804022786684 1.6166417906931123 -0.21441971923859848
Ni 5.75531034069386 2.202892121188533 8.52517156208517 -0.5858911613192878 0.564883191609053 -0.194660020113168
Ni 2.7942714216536872 8.678146972256798 3.7122629025641216 -0.48455730086479126 -1.3539802057289907 2.553637400400963
Ni 0.386447088542154 2.361816267199682 6.098218844852997 1.2579831841063753 -1.0681190427199538 0.43358080981692426
P 3.5844021852933743 0.8841157175571266 2.7093631508907237 1.1747010389472672 1.312775449355907 -0.34939569322757247
P 5.255129960591745 7.5461588074746215 6.987298887202776 -0.8183952488634227 -0.20828712397829935 2.0732481148709327
P 3.946032346489855 5.246018522467103 1.5375570621803443 -0.23170190335781388 -0.04959760842246942 -0.3279951160646093
P 2.046147205739153 0.3437567132958941 8.682723356436515 -4.058418205856011 -0.5787080133072872 0.11672037021289576
P 2.8743393583283754 9.043712898993716 12.954060345034586 0.3738872506110335 0.06698957864667172 1.740735313441628
P 7.432895177673661 3.06931474096053 9.441816992394303 -0.04764742667463407 -0.6187555161474763 -0.14423400225213223
P 6.702561749190129 6.2579611416483285 9.67474762041846 -0.09148807800866823 0.41478038928096955 0.7299282170692655
P 6.036910138156373 1.860997147105323 4.487825697763079 1.0875725234588753 0.4146389786070988 1.4944768524258778
Ni 0.17090521748329454 3.2770273504968235 11.753203797882888 -1.7651173418304182 3.1364368101688047 -0.5184611527010878
Ni 9.052918269470158 8.004924413667927 6.622112447167132 0.38251458726872833 0.2995288903041164 0.3959344602190601
Ni 3.2083440148603484 9.013410322302898 6.3847951783138965 -0.14386530605880385 -0.44746271000533905 0.11039931309087438
Ni 3.9604885354319412 0.567466002343801 8.599493656800226 1.649856329771868 2.179330802864324 -0.9753749808169976
Ni 1.544886603591332 4.252843587175603 7.349021102104021 -0.8593894318875974 -0.5219897346796365 1.0934351528872395
Ni 4.469536129544018 6.899340632976852 3.4027135338233907 0.5761957884083948 -0.6984890247233777 -1.9175871017287813
Ni 8.662347550683965 6.022585454506808 2.904446555727449 -0.7275028954572245 0.9757462481134874 0.5307389416271763
Ni 1.288892765229617 1.78411351715667 12.90337163003252 -0.648101059189129 -2.1417829265175374 1.4427316015327862
Ni 7.460727333512129 6.657446040620381 5.3152729668025245 0.08289930789839271 0.005415257478300352 -1.8839221053761683
Ni 6.071777827144692 1.187840341162713 2.572034991882011 -0.006688724874085255 -1.2442666058512315 -2.303438466680227
Ni 4.445282796309146 3.115454312164902 0.9569837394663111 0.8454082871171569 0.18062385373507603 0.34964483312390104
Ni 1.2140850402557535 5.554520545485258 12.312319214151632 0.13519683175052846 -0.8539029548517293 -2.10330662481921
Ni 1.8889702014714915 2.2353927149114816 10.751831386249766 0.5779454241096498 -0.8431894250889672 -1.8694627354177287
Ni 4.378703545353001 7.666373431308813 1.1617853854203093 0.5531988132925891 -1.4695088696266305 1.0019247062810681
Ni 4.829052812824988 2.7273258345255202 6.058047735282025 3.0051087173450632 -1.4241029306880055 0.7067018995514732
Ni 8.545899614156971 4.114114896801547 7.032955646118894 0.08599234500141964 0.7201783367713532 -0.23700814606207565
Ni 6.68107942033337 0.7292118762030355 10.406579269913209 0.2195339005367122 1.0803029863806555 1.1455658121442076
Ni 4.372024955139991 4.22384667017481 4.553403629849033 -0.49310030533879595 0.1252536044948875 -2.19733752385439
Ni 2.912936161683172 4.579549699972683 11.344189461820681 2.48583303916248 -0.1261131242817054 1.405776364464676
Ni 0.5198047270402621 7.3491356995732176 4.5730082509933005 0.8733371523169411 0.34304481130888015 -0.9091500482504923
Ni 4.497753408024868 0.47944011682458093 0.5874764112478469 -0.3519079181264649 1.323456583218837 0.13303967619820958
Ni 7.02308711323874 2.889171276677663 11.641103050597218 -0.3769584333371895 0.47083403774142785 0.41082037619195694
Ni 0.256825139675149 2.7370290464665046 8.796172032970523 -0.19630629746733932 -0.7111187976722463 0.2817890498221921
Ni 1.6857663448216185 8.727151480191083 11.239594848767384 -0.301727440617332 0.4906700986307485 -0.7296759918491433
P 9.30826397460445 7.62632067650111 12.457703950974267 0.07914241195912176 0.07819470333387178 -0.7071564705903886
P 1.339071427561407 4.405774849141885 10.1501110731749 -2.0506357767880554 -0.6074426622378183 -2.3534034857444435
P 1.3501930180145783 0.39172420806630226 5.204905271407571 -1.1865350554677179 -0.633550929289096 0.26218284555549043
P 2.998292489764224 6.068029926307856 4.403962894075654 -2.764586644592458 -1.5546452943856581 1.2649290192965892
P 6.9903610818714705 4.491281468985818 0.06094894578922779 1.5209579294355418 -0.6305327112880625 0.2899816129353135
P 3.97992313901945 8.853039618074021 10.536483015835616 -0.4463591925285151 -0.7192244574985162 0.8335472740135127
P 7.896254075870009 9.27547219059092 7.825895926400931 -1.4271437743968582 1.4861649901260727 -0.1692446653638569
P 5.777863498361144 1.1009341292769539 12.633182734666724 0.5850349839665795 0.7500776954339469 -0.41930270263135533
