# total energy = -340892.6456759259 ev
CRYSTAL
PRIMVEC
9.05289313893614 0.00000000000000 0.00000000000000

0.00000000000000 9.05289313893614 0.00000000000000

0.00000000000000 0.00000000000000 13.24982418929632

PRIMCOORD
 96 1
Ni 6.383140727993506 1.970163056772247 11.675480239982631 0.5415524873029125 0.210491844939102 -1.4629859809064483
Ni 4.676552658805228 0.40918443882205335 5.871513748917281 -0.019722675239907967 -0.7994457043441136 -0.21666943450472362
Ni 2.5716825501611127 1.5712925792537973 4.759760516726592 0.8037263339973384 0.25477755423035475 1.5528303526641063
Ni 3.4434218547948303 4.251990070183797 4.765392321630457 -0.3788273682251282 -0.12962653675160254 -0.21820078354758551
Ni 4.531163192873628 4.83082301303564 2.4777705512361656 2.532721476183902 -1.5341425464466159 -0.9902099889473012
Ni 6.976929050528972 6.077750426390978 2.5923014198750485 1.3037467634947353 -0.03932939372724194 1.1127842468378124
Ni 5.187126786394041 4.637607111953563 11.395060533889389 -1.447053883057224 0.9235353704378869 1.5942796209478283
Ni 5.679567968761122 7.806481872520021 12.467223653227519 -0.770144384276835 0.34340913662683437 0.15812027331592124
Ni 1.7924457089700527 6.731414585020567 0.1678180090104009 0.4074206064817887 -0.6152004518063663 0.3457663240051013
Ni 2.6252213609655635 1.8879537329786693 0.26602198463510907 0.18319315712414902 -1.387243852878127 1.331922711708319
Ni 0.5834644030492647 -0.09901330428313186 4.864129512668824 1.1361398908446174 0.885294067568501 0.26311384201019206
Ni 8.550539170460135 2.384007019760863 1.4473177323546504 0.3211197291010147 -0.7248104362267258 0.12358855808763877
Ni 7.022302151603019 0.56524545534146 4.836596948363856 -1.3011442928748815 -0.1436375063187139 -0.011065256675226105
Ni 1.1079745545393909 7.501028200664598 2.7044875891567526 -0.06396004779172856 0.06866002437055918 -0.17503427546244052
Ni 7.607607913143596 4.004583549981761 3.735416590224321 0.5439695813848373 -0.6763757377641061 0.6079211445361337
Ni 7.471859778545568 3.8676766450450493 12.726495800639801 0.30455205455032064 -0.23994203187941904 -0.04047276330306578
Ni 8.05757292028334 8.744995317920333 6.790455744355107 0.23693564095292743 -0.535911229856735 1.0743064024775886
Ni 6.911413261927043 0.4417920550947203 0.5133696610308841 1.1487038435525572 2.1420667763065433 -1.4464969821124896
Ni 1.9448240085068331 6.354026623234103 9.02575360222191 0.7102721334012347 0.005963673782602632 0.6015170407820027
Ni -0.15474200996982787 4.764166559881569 1.3609820998081692 -0.016753565309255015 0.23331347081930784 1.4830984353856072
Ni 6.569729911201241 1.8126789254306457 7.151367440388427 -0.33393899235287006 0.5025375394922957 -1.1031025007736743
Ni 3.2219428209208205 4.401045957890136 0.2892716251335858 -0.9631303591216898 0.6039554750201663 0.21171671848513862
Ni 5.6533507898484245 5.537745342778279 4.768638689157423 1.5848138475492384 -0.32368414739408125 -0.37770276770238176
Ni 5.272332617860306 2.829364104225687 9.248152410052247 0.20232113620285158 -0.9091382211759503 -0.12350319746268408
P 0.11675878567286553 5.481581192925249 12.673059287529313 0.39034436772579223 -0.12801471217979243 -1.9405334261123097
P 4.105333199194263 6.178065536726474 12.691344321357995 -0.8417264673901955 0.35825108673567335 -0.7003715864580713
P 2.5432021479306752 8.714134004759634 1.3835066035556423 -1.0997775501654994 0.4740057506011901 -0.4120753316449806
P 6.392854482473245 7.610812637361517 5.851970362923936 -1.2227891527037458 0.5157033874502925 -0.3091098491243322
P 4.642359880920817 1.209692863331885 12.577461639877315 -0.455012497328139 -1.193289600582732 1.086327852418497
P 4.214483933362215 6.082457930891877 8.264630695176711 -0.9723395364247834 0.15605567747740864 0.10424512056402047
P 4.710881230088704 1.389981232823032 3.8744608832623055 -0.4408876278909827 -3.0965086065152994 -0.23464530225685398
P 0.10257109133861872 5.6421976253386035 3.4414428923257985 0.18362381690366442 0.21198642720675753 0.9901819639228432
Ni 1.5448128664362424 0.9518664629749753 2.8407227694127593 -1.2418821647794547 0.7254048752776152 -1.8211892451233216
Ni 1.9960362257406477 6.564542603356982 4.986465785885928 -0.7930716824969696 -0.9854184810959288 -2.648073248184046
Ni 6.130718904919359 5.7649276994129925 9.380332799412193 0.5459313330968985 -0.24005361775661888 -0.5781925071234493
Ni 8.63970111628581 2.463518581359695 10.012759775717438 -0.36432686061610803 -0.780579720677546 0.710124552079777
Ni 2.619653831603924 5.080646655741021 6.876923549143344 -0.4989354239633343 0.33519703312968724 1.1500570151463418
Ni 0.7755794723095923 0.047214459565359135 9.20081030469177 -0.06397007509405757 0.45002481430556046 -0.3444818008657229
Ni 1.3671769946734864 1.1347892244079711 11.480177647001598 -0.005283874106758642 0.9894368582267024 -1.3989079194796166
Ni 3.739216089530142 6.948113691247511 1.5868916196489866 1.0818284218862466 0.6623526840121366 -0.06362657571170977
Ni 5.593737487659159 7.815027803767808 8.269294745789908 0.4555974232973315 0.6271177720692426 -1.0812388679313636
Ni 5.4911319953261115 3.0509336670324063 4.75537529522614 0.3176307421111497 0.4431635684093529 0.6937034304092763
Ni 0.9837869646483764 7.208538271973186 6.830894113307153 -1.590461532753319 0.258143128268478 1.9840724870455246
Ni 5.099666784503306 4.483490656908758 7.157011919342869 0.4145749581383828 -0.23442470160561563 -0.19432012027524598
Ni 8.2340228630276 7.431683038209052 9.173356500558258 -0.424168772474405 -1.4188573660183499 -0.361861429794751
Ni 4.562640102776752 0.5404894134026956 10.502990241547751 0.409366674464566 -0.9741457363955867 -0.47621407110641856
Ni 8.224716488745054 7.208963757956921 4.753149188770812 -0.4228145724393557 -1.483888278276754 -0.5755607259275571
Ni 7.338121386253692 6.001506959262962 6.928850039656236 -0.19758953505513713 0.14347167016481097 0.7358924050725004
Ni 2.1830871065052007 5.2281001813384 2.5131076148300266 -1.0794344677327732 0.376815480001422 0.13765223526955647
Ni 2.6086817249595216 5.141473045628595 11.086061749029057 -0.8292815567586234 0.4421114729957547 1.8435676128185217
Ni 1.063443372539544 3.3939387401757686 3.8422633630548133 -0.7796309836110314 -0.13328238833663497 -0.12353636469346467
Ni 3.53688392492421 2.705946010262704 2.7754142920667344 -0.80276988362134 0.31041211287552345 -1.2144232972375537
Ni 1.1638309060212075 3.4200925488355693 8.298086567548866 -0.6875556656403256 0.22647870728566158 -0.8243694641689867
Ni 3.628571627972482 2.5668030406880655 7.0062423189403376 0.33126170263102306 1.2500816698711117 -0.779208037141
Ni 4.1492216257718715 6.799130226687339 5.930329491209375 0.7715988573351743 1.3540059167606036 1.4529589356877495
Ni 0.629028520171328 7.0649955962688615 11.277958643561554 0.6700904189760266 0.9951076833592346 -0.4781557682138217
P 0.164316349893194 5.536595625332867 8.193439647783217 -0.8048594191605172 0.2031014660123018 -1.1788561987662214
P 8.665936400985048 1.4847831311565138 7.823385434835557 -0.07296405106255176 0.7070055468348211 1.581561916270844
P 1.788616335116437 3.1742974436357634 10.437734270982698 -0.2300008615063071 -0.47114514122394346 -0.07784091953887884
P 3.773445078987638 6.21154313604248 3.7572793274736864 0.06837643169186934 1.3042211320279924 0.7614872228224692
P 6.745473728270365 3.9113749608639674 10.392963187311171 3.1889338516262566 -0.7404831097669763 -0.5212274025923151
P 6.442382861558661 7.940754385514885 10.430023016494497 -0.48730272482041237 -1.0914962839933138 -0.4807075881013979
P 2.576109414970611 8.449137712932124 5.955398763255315 -0.8059040583749476 1.2044006228942288 -0.8282294613450252
P 6.7243171166961355 3.9196402524203533 1.7741778756385846 -0.9417881460004877 -0.18377371221796737 -0.9485393486813921
Ni 4.9612842579634275 2.94975853183617 0.5703549083035891 1.599421313049768 -0.0345445707440889 0.5929460112835402
Ni 1.6948102550427606 1.1875585392843906 7.0748632499342055 -1.2321083732221427 -0.49858215438897363 -0.661115726281242
Ni 6.950458390604689 0.5588595444281256 9.206110773701914 0.154254876823244 1.214912063948514 -0.09015727501238667
Ni 2.8323787176849162 1.5600307800247244 9.167407844389912 -0.045880050361566144 0.04332154560577055 0.5921417702146899
Ni 6.4182206894184715 1.7900285864667065 2.6334558726848276 0.8126809720874648 0.9174606249987166 -0.042634032620442706
Ni 4.237831345108018 6.8991375386516225 10.473178158717158 0.011084797059251876 0.6151575143835728 -0.07488517934466458
Ni 8.214812623506624 7.104991278739957 0.4279691923592931 -0.5849529657757344 0.49086447402974165 0.7809319618106423
Ni 7.518645130969884 3.88420722815782 8.223781324870163 0.7128841171027851 -0.10343676573011219 0.4177767529051321
Ni 3.0225437937346795 8.623070951347058 12.277114705116036 0.5488086546446936 -0.502997766958166 0.7766341057662367
Ni -0.04821570956112719 4.912054624355954 10.273105596271655 0.3225970849774896 -0.7493397888266579 0.19790783762650432
Ni 8.586587791465094 2.3230357835809543 5.711495712749139 0.7078450120169809 0.4052644793707343 0.3993049193531897
Ni 3.7399312680985477 2.8766564186731767 11.519847425314941 -0.8186988961467707 -0.6979922875926172 -0.7398992122390483
Ni 1.0117151403892846 3.397415051191817 12.543105004624698 -0.8019345322042382 0.5476511440014826 0.13190093460807606
Ni 3.2274198213497507 8.275376479489339 8.018542276234927 -0.021556643124853198 0.17278121776220567 0.43955245401932685
Ni 5.645827835540257 7.87736602683163 3.5565440932407517 -0.02472784176398322 0.19699766710740912 0.8958898408064764
Ni 3.349000177978729 8.462237249495201 3.8130216125002887 -0.4296819889831503 0.088300424309306 -0.39819703100099163
Ni 3.360977155776207 4.1227781245274 9.160994774796764 0.3860120588990255 0.4849799902245067 -0.8388069797505554
Ni 7.3371346208871575 6.100011490944266 11.549924757918374 -0.6234912310602488 0.3584776009241826 -0.1525399510146663
Ni 0.5906759378289107 -0.14712943201827852 0.021516916726415154 0.45289827919861353 0.5516566656164499 1.3818576488655492
Ni 4.790275104075015 0.412428995770365 1.5937283646472147 -2.11188382496526 -0.1784895810008926 -0.15004289562442547
Ni 5.9697765683482515 5.693781011196527 0.5723619347417607 -0.7121845199325992 -0.22352399553271182 -1.3184113074854455
Ni 8.180945749779967 8.999254878328486 11.271373568996259 -0.13083906900246497 -0.4468842117940497 -0.2089424981741111
Ni 0.058372150521816005 4.832751279302353 5.756837128696737 0.3791634114083083 0.13809832166803956 0.08127797024488582
Ni 8.006387861729337 8.672744176724809 2.6157275917923086 0.3866216674585664 0.0704950206967689 0.09371413912570957
P 8.475590267069867 1.5447857077564293 3.6388122608405906 0.8841206160856903 0.28864695328428996 -0.7508803938409003
P 1.589851010459263 3.313675788435447 1.7206218643369187 0.9555150086682769 -1.2178397791182702 -1.5179283985805985
P 4.710899335875246 1.0180069012126012 7.9694384778439185 0.5824322562364098 -0.7601574482674521 2.001471399248263
P 8.375483373279604 1.6505506598410427 12.517996805137694 1.0095642251041967 0.8014966733358713 0.4156280819932455
P 6.262248391253121 7.831857132358519 1.4687558889096084 -0.12998289164975677 -2.11119245532519 0.45023513054415365
P 1.7733712628481422 3.3353846264992066 5.924009666416918 -0.18064287989846953 -0.9221035230873668 0.4417170657708135
P 6.931565002348197 3.8827678181277374 6.095793747969327 0.7665741504270733 0.6077707350011984 -0.6759723316781004
P 2.430511732493779 8.200907379442432 10.204100822603099 -0.163054477392745 0.7685387303526119 0.597666556687661
