# total energy = -340863.16735942644 ev
CRYSTAL
PRIMVEC
9.35884211722741 0.00000000000000 0.00000000000000

0.00000000000000 9.35884211722741 0.00000000000000

0.00000000000000 0.00000000000000 13.69761144482370

PRIMCOORD
 96 1
Ni 4.330560729981959 1.597376483506476 12.18442218495453 0.7078133874480972 -0.8743244559308748 -1.0437100177479701
Ni 5.671982248100263 2.298035536442631 3.881738752025888 1.113092779217167 -0.4866293529024715 0.05737519548535926
Ni 5.781883127787026 0.9820419915942697 10.159093940787518 -0.0825537516335159 1.5514573835759797 -2.088463903379423
Ni 8.302967941720473 1.1174737918111786 11.092586004470432 0.23799313568316433 0.3070750780824905 0.00941075179093863
Ni 8.126188778269627 5.2329402598634 6.05716597333607 -0.38435344024968005 0.6982941351037523 -0.20159788488358182
Ni 3.3057301135109207 2.579802187616045 4.623396083395476 0.17867444331818905 0.25007552076899514 0.5826569706527062
Ni 0.7836963130152471 1.1632385283919735 6.833067306985643 0.7449329180082139 -0.9725259414039767 -1.287968417614556
Ni 9.009045764079998 3.1314497608304377 7.044681015636361 0.2685447832177762 0.944485747437309 0.3998561638709694
Ni 2.719922767593072 9.060294781977019 5.39416034876096 0.22485762674247078 1.0582622045305323 -0.4243628907630821
Ni 1.6626169699491595 6.612396111205498 2.396958494655106 -3.245007297581057 0.2583688711260389 -0.3726901449791388
Ni 1.4142520252904403 1.3841071957348696 3.6361954981808924 0.17165353191566565 0.36753508314076055 0.5043740784804024
Ni 5.412564511232562 4.488743874703553 9.686963767237486 -0.18805948407751483 0.16644447691090045 -1.8233196612027631
Ni 1.1265705860763182 5.90480215646845 6.136173316120337 -0.0033545182945297065 -0.8335367324905515 0.7212165482278805
Ni 6.505415190171742 3.7314638286561896 11.561070909125121 1.3369438190719942 -1.602038438957641 1.5194414927910156
Ni 0.6177462654534888 4.279068382197187 9.824967377191083 -0.5072115479291974 0.22503323308838666 0.7141951226047248
Ni 7.161956662690337 4.9735131641538635 0.19717582334945216 -0.6852568423038199 -0.3409683883958257 0.24793276339437945
Ni 7.679173056788013 8.570958377710465 4.242793511238667 1.8380592814057828 -2.803284318272972 -1.9215697405256134
Ni 5.750568443001885 5.720994502798344 7.53769918828142 1.328749713296976 0.4815491101660868 1.0768319971129197
Ni 2.611893656273621 4.632121331639704 3.5002049751063407 1.3125268236802106 -0.33611157452415663 -0.7801706581645853
Ni 3.613673445301203 0.045909798629261714 10.320478745301402 -0.794730044035999 -0.2106394262605598 -0.37098421803162557
Ni 4.199228102489465 4.14014573397524 11.7223471510737 -0.09772763116047686 0.37313288894351226 -0.6278225114457511
Ni 8.648496382326393 6.201365136585471 1.8040852231506517 0.695242492761622 -0.58492005565527 0.1334955327887056
Ni 6.382196678551548 5.976135248946736 2.937123704820219 -0.16067543563760717 -0.3360861206028599 -0.0823254376727937
Ni 6.32195381364959 5.994909085670883 11.374742919348432 0.7890371074162797 0.7325435432049255 0.8885408566405729
P 4.3698397891700145 6.12683132019908 5.98871914768018 -1.3333375897779747 1.676244847067726 -0.3109281332799936
P 0.6364452314429424 7.368955526431447 0.4296831464002984 0.04387998921240185 0.19742241334965355 -0.14372363827461698
P 8.56658779857279 6.032260223440607 3.9977303659798875 -0.1726665465612123 0.6669685855175933 0.5922117042206768
P 7.240804905163383 4.133847233419233 8.08030331262914 -1.0648838236121079 -1.2674448437399075 -2.499303305734773
P 5.296917302658148 6.904766330179738 9.694716631814897 -0.27090582725078505 0.12763290336034147 -0.4530738855445293
P 8.579755689036835 5.521632453995872 11.323185059670804 -0.13277433835196487 0.5224736162945905 0.1883703304497143
P 2.0674898266407284 3.336792109566475 6.574182088218443 -1.1594592822968484 1.5506451720873295 -1.4960997327412815
P 6.292127184716462 6.925318346852832 13.493187896252513 -0.6591573170032905 0.5974822085909968 0.2785111504018687
Ni 3.318785697872927 1.7941929273294042 7.056419810951963 1.2665138472852058 -1.8675444353490935 0.07370067211826017
Ni 0.7089846786339616 4.1331078849141445 4.608479025392178 -0.06655454799178216 0.20376275374538458 0.7113957054827168
Ni 9.170027202510724 8.072085313612453 11.33693694186545 -0.9324373009132071 -1.405486858248715 0.7420751368444445
Ni 8.010625799271741 5.8073111010569685 8.969455991342967 -0.04800121046962701 0.5558624761676814 1.6823257631544832
Ni 8.237437331180855 1.7748949954624107 2.9803812076729987 -0.7920023606921908 -1.223086115118874 -0.05820951846119653
Ni 3.380114188427927 0.9528236873805188 0.5824475216985227 -0.03820350765291485 -1.1563186797853375 -0.5903096021019575
Ni 1.0470859423583854 0.6705703764316036 11.706526028948991 1.639864765776795 -0.8083185813537112 0.7604752366181872
Ni 7.634091515661288 0.6503318809600351 5.703260433402241 0.8421324445793626 2.684337629832719 1.4687254544933868
Ni 0.592135794767733 1.8317218830940234 9.314512746320325 -0.3533554492062689 0.08404062059168751 0.2265167596124486
Ni 7.684582467369546 2.8739693042229058 9.650159185831019 0.11250684635218043 0.06398138794796722 -0.03050253946423134
Ni 2.348620076569256 5.072988294034696 1.0132340755513518 -0.46515369952719887 -2.0420644901792766 -1.384634697390054
Ni 6.571273360175639 8.50926489232384 11.20741244261578 0.7773468155625451 -0.9865801055041976 0.5288355539568762
Ni 1.607175190909358 7.861932520172423 7.2263801222406885 1.0975394048636002 1.3286432696260988 -0.23930491251605238
Ni 2.4475243170980576 2.3323356917736358 10.894545424135282 0.04803669169325275 0.576676327589239 -0.1470401042423597
Ni 4.9114453250937755 7.670216645150422 4.28621572970777 -1.2747696595360947 -0.12408015301207663 -0.4240016507689214
Ni 8.019273369128726 2.5292644416986025 13.601905818331135 0.717306671650513 -0.534215587321867 -0.7791360462524839
Ni 0.12271594181357015 5.123189121646022 13.436493904174979 -0.04928136273363125 1.393222181948749 -1.0192413431826446
Ni 1.252119449313816 7.721783863669886 9.499827173526116 0.57055170274874 0.8242151979793096 0.6483509704164061
Ni 6.798215915870465 3.169072305013422 5.9177791265590285 -0.017695103286917913 0.0370411119136975 -0.5227482101122158
Ni 3.190597641237518 3.1338362654987613 13.483914219876661 -0.5837612594604785 0.3097657375407762 1.8119031918357054
Ni 7.356667367100039 7.962072127823651 1.9607307101584988 0.4711520832024789 1.537983774569577 -1.466510963340571
Ni 7.919414526732595 4.044432858512706 3.4704129738880085 -1.5926598259562184 0.5202367565442717 2.369184145617468
Ni 9.077515050956295 3.859062278255895 1.567869926964159 1.118187677241571 -1.3543453023778933 -0.018620700424980832
Ni 1.7971971155589412 4.4629602654438205 12.060856460302197 0.05073300757849328 -0.08568072729827178 0.27651340324554957
P 5.821817305903642 0.11931961811108129 7.785543781334025 -0.008193077333753632 0.8269382533374275 -0.9119772332866423
P 2.8560845574732325 5.415035245477415 10.49631453749512 0.028058448799112966 0.5667071321916691 -1.331118727749785
P 2.0422583890493535 0.573024103853287 8.485601996624272 0.7778512660027893 -1.240313020520122 0.5826639126312417
P 6.001067203599341 9.24473883689201 3.226430774861352 -0.5856201670460882 1.862133034525535 0.3479013680702331
P 2.9983202357053234 8.957141627254417 12.302180748247272 -0.8739063945568497 2.31239798986636 0.8845523043064702
P 3.7952817711397153 6.235684009600148 2.235244258908576 0.8592529063097329 -0.3559862019608966 0.45501403999003576
P 4.282400129891003 2.5789224564834083 9.674074770260173 1.161014285488794 -0.7087911779803342 0.7778913752121054
P 0.43000134702274156 2.759145673730109 12.110030622964054 -0.08519633146268553 -0.30700283008365836 -0.7663358091640222
Ni 0.2626615114482535 9.022316601804244 2.4628578435630835 -0.16276779939026162 -1.4905055264829556 -0.5225211817030743
Ni 5.299275730800962 0.5318564303826119 5.6415529097528605 -0.9061356869042008 -0.01984248864722389 -0.08115250041061509
Ni 4.524681827355956 5.286940777260372 0.14705735354628788 1.1074335240488606 0.7997256974783775 0.045049584040470804
Ni 5.104789638595339 7.977121145496844 1.7386107656620542 -0.9380875572204488 -0.6741771874508905 -0.44570921764934207
Ni 5.823894968791359 2.270595412177827 7.85793629470821 -0.668245652457804 0.23084829710826693 0.9264132062063142
Ni 8.686249950295089 7.6858927052266655 6.990685177660309 0.3201259977291777 -0.2799401695389115 -0.9264322323697076
Ni 6.574371136823541 7.2237437364953285 5.800431416422911 0.016494141000281272 -0.4122535090940578 0.5836085359326981
Ni 4.253855662289485 4.121063055470487 6.980384836334987 -0.5429653084900391 -0.9587425144666392 -0.6048198799029906
Ni 2.0379907571718805 7.0652891853604745 11.814449385355688 -0.583972089919704 -0.7475153340234094 0.42864172064409406
Ni 5.292247240581703 4.742471435734623 4.761289259015402 0.5196510592441309 -0.8268004422079825 -0.90902534974717
Ni 4.6434080948946 3.6412352345098817 2.2417514616375387 -2.0821808985841885 1.0579086778458553 -0.004724402058862831
Ni 3.241228975573326 7.750412560847934 0.3776966517665561 -1.57024083483107 -1.0220515589379302 -0.49859655256667684
Ni 3.955879497055143 0.8897853364219788 2.8094073338133727 0.7339226829406392 0.8828368642772603 1.3667107659217816
Ni 8.033695344398872 0.9263737285820234 7.934601119380787 -0.8110334091817128 0.0890720123680079 0.9510014370686396
Ni 6.86655417896105 7.709158786032361 8.255371679792262 -0.9105255884417802 1.1754057783237757 1.5060969531633095
Ni 5.657710014299504 2.6893099959456737 0.15822806716240995 -1.6284084443107374 2.599156467878685 -2.559674607733979
Ni 6.187401744565318 0.9946389927062841 1.2691768744451366 0.7843893242316233 -2.4403713072852553 1.9310439985646355
Ni 3.787158296425578 8.819370116578368 7.962421212624156 0.2799149727279308 0.41786159930945455 -0.8315179022883099
Ni 2.714064132603383 3.530407829481298 8.687860606975162 -1.2376290459300556 1.1360573584331402 0.383377706599972
Ni 8.577406619735857 9.397774618603494 13.464230703726003 0.34996210725400373 -0.4135606579412555 0.6115916514091855
Ni 2.533372973264854 6.935856402760803 4.376948765429069 0.9954887208477372 -0.18075292311377256 1.793131567655157
Ni 3.4423317689574 6.589120671557965 8.210334125222168 0.38689780393808854 -1.8352413523410134 0.6695029219036728
Ni 2.6997544634352777 8.512671510752348 2.385054983723181 -0.0635656405667873 1.1893298446040355 1.4323733982269138
Ni 4.456315487739861 7.495131432071994 12.132508689287112 1.7802493123758503 -1.4689154590170057 -1.2477419659943416
P 6.579593370568343 1.4227124183106934 12.090264749005232 -1.6965218521492076 0.599790030788567 2.7568489096285687
P 0.24398500667920758 1.4724359449883548 1.3144324900300224 -0.04413838508011108 0.2659801078143936 -0.5079756797887317
P 2.4863354341942863 2.4958159409747247 2.025890710561388 0.6801730000230092 0.7347873449337797 -0.2857133245772628
P 0.5301737106203978 8.79858412885936 5.410720819390758 -0.12421616436930863 -0.6703043347590456 -0.48566364655509264
P 8.512924199481937 9.022035836549147 9.538797390933567 0.5291158042014565 -1.3921975973389766 -0.1697596573270625
P 9.04311194836509 2.2951530131569697 4.964452869371886 -0.9154500223265911 -0.22705412017315735 0.1631187549717771
P 0.6810307539523305 5.994263325584159 8.43204415244617 0.9635797879542826 0.41771556064989346 -1.9734201495380013
P 6.647295232414043 3.280077528036901 1.938978889961958 1.6175419339098787 -0.12899764491835206 -0.13870278802125788
