# total energy = -340857.98314643814 ev
CRYSTAL
PRIMVEC
9.40690586267873 0.00000000000000 0.00000000000000

0.00000000000000 9.40690586267873 0.00000000000000

0.00000000000000 0.00000000000000 13.76795759464508

PRIMCOORD
 96 1
Ni 4.75611283149662 5.315372203681909 1.9657611351268174 -1.9474643489041876 -0.10982595708590762 2.2110990964148565
Ni 7.6637968657064794 8.56693509158223 0.028005299686012577 -0.3737412119514725 -0.2533876158613636 1.493591878717763
Ni 4.4229296298645355 0.21779997470363321 7.245539488097653 -2.1991835759241933 1.5746546476280494 1.0920233601413776
Ni 3.3647373733131127 4.3457930011233765 9.013854370911965 0.8009716540703367 1.1926008020458236 2.0122060120569474
Ni 8.083852843731808 5.090406048030102 6.445703199846419 0.22408732423534958 0.010396255632659515 1.7380366835635424
Ni 4.104599932718095 3.5242784981240938 0.553653796933232 -2.0155988397885802 -0.33078913386997866 0.6565736154365145
Ni 6.075017486287216 4.32288718514963 0.6341684455988966 4.45014479864131 -1.286606504270023 -0.14450319675311887
Ni 2.0917948609651154 2.961284584279021 13.374634454585392 -0.48960206237755033 -0.8253431409361657 -1.8122775444559887
Ni 1.1093752317929648 4.66566543084464 7.6800830419674035 -0.7666458842052731 0.4701935759439515 0.32428424287192537
Ni 5.958268376615688 3.1629968684371508 9.929038139849062 -1.9822842847968505 -0.48497561934913247 0.3259837420615354
Ni 4.140919996568049 6.401916874748679 7.758202692379714 -1.1800095956443744 0.07276247657470694 0.1849628474300621
Ni 7.215435507695524 6.986621927512605 4.685084106784929 -2.646520558984945 -0.7088315442999663 1.063626039945607
Ni 8.274954137985057 5.095730356794431 2.029865436373098 -0.9316461724704793 -0.39846956793608795 -1.0873447237187852
Ni 6.4043344495762975 6.535476125342211 7.647783489717935 0.9883510813616915 0.3324582940422855 -0.5396863806284511
Ni 1.5808775784262685 0.29893641985219915 10.92264446156987 -1.001259047672611 0.7989579660744176 0.6419772056795783
Ni 2.008195687840399 2.24038634725723 8.277130896020509 -0.43364354473405964 -0.5428645212461166 1.2091602490664013
Ni 7.513737902087095 8.582625810696896 8.56912219721422 -0.7417434645366386 -0.3139792614014915 0.36910834116515145
Ni 5.48808299681455 7.228191272155647 2.8274290161482507 -0.056476594930489836 0.6697242938858595 1.128427095581392
Ni 5.777326540782007 8.492347734351908 6.043747990238619 2.711009996917583 -2.090324096516613 -0.9108744871407668
Ni 5.986169259645722 2.4407064093356414 2.587467311731045 -0.14139884679618228 0.8791051651489699 -1.0018288041331522
Ni 4.753441270208512 2.63706616401161 12.347861263887074 0.03731930527574863 0.743355546218765 -1.290965809679983
Ni 9.340568443326331 0.6578098816174673 4.37278611772981 0.4785059524643888 -0.22478949250869673 1.7398979051419972
Ni 0.33951593071361497 4.807418096515434 12.111975571815423 0.4229225587721297 -0.8302644894971829 -0.3707217083988583
Ni 8.471840679393893 3.399251311221809 0.31328289210746024 0.8965318452658494 0.26405486576722265 -0.5940078768891511
P 3.0585708055523213 6.6621683345965925 3.117093048811406 1.1564523771497244 -0.4653349623000696 -0.22996666583426204
P 1.3868037018947024 8.439904233713863 3.3345440273045157 -0.4536076465608123 0.5465378563326457 0.20360668778349453
P 7.808296347912936 6.684001763292718 10.912235720142787 0.37253947833388745 0.23088326411126045 0.5186928090959196
P 2.7912359455285425 1.7919026994690013 6.396703567474489 1.1172898480176499 -0.061394343947081355 -1.123254293131201
P 8.075998077268533 7.664793997736549 6.717166750889039 -0.07891564066029634 -0.6160864539557455 -0.4325307712858551
P 0.42917409195689016 4.452561383588273 9.83474143328478 0.06657845925118211 -0.700798903803477 0.4540645315925728
P 0.9765403129571233 0.5520358091108565 0.025782447811435044 -1.3118413675774117 -0.2878136587497172 -2.9854402923818584
P 8.099938652896125 2.853895346021818 6.952584919735271 -0.48888498170586764 0.44041017403393184 0.9203898828303697
Ni 5.881865486538166 5.776818567861029 9.898900294585534 -0.650798403515634 0.15074634944935328 1.204312434055797
Ni 7.668265146029901 4.4037959831743505 9.007534811498756 0.3122108566471591 -0.305132609644139 -2.160082239047357
Ni 0.8035952878664738 7.711941410328096 0.9225587831972285 -0.2837847400959822 2.199354811394735 0.17439278522369966
Ni 6.869440100167652 1.116119983354844 6.67525616283654 -0.7771750658713712 -0.566662909217295 -1.0850399868450087
Ni 7.361487129382747 1.40177949615762 0.8635332704701372 0.5258605304889524 2.606912714785336 -2.2028656527614707
Ni 6.237550007188402 9.295434108606809 1.8328594272587735 -0.8523916604135257 -0.0018511942761258442 2.0502963911707655
Ni 4.740158719015522 0.8096683863439484 4.727862011565469 0.3691273673285449 0.002310136190415376 0.3177328149066528
Ni 7.479289812520007 1.462689212145303 8.827725567140739 -0.16977585527697858 1.6954507305722155 1.455587888670164
Ni 8.45883092847328 8.870552387832186 11.691391866366635 -0.06748477311553538 0.18473119103523025 -1.4801460376255025
Ni 3.3331583900589576 0.5658592573956287 13.019228378351098 -1.7872314001206382 1.3956811850122028 2.7287801764168105
Ni 2.040969348149447 1.101652162012905 1.6249216527468757 0.9677143789479464 -1.3144818905240523 0.7147476526740851
Ni 2.7690356475005995 3.086688047419068 10.881505239804785 -1.6490258634507728 0.022763518948760796 1.3475976992414147
Ni 3.5503920690247592 4.561098264370649 4.056673628314382 -0.4463471083436571 0.28909895322004403 0.11904181925722078
Ni 3.968246831059182 8.824505583236093 11.389226055703844 0.33607737885211153 -0.5366915596661853 -1.8226874269354028
Ni 4.645280665663897 6.401474750169308 5.1773032823788006 1.8187014457044612 -0.5520927247126041 -0.7700235424282545
Ni 4.845713610613637 8.371638317277938 9.209248977038074 2.5740835840704572 -0.4893372387519379 -0.44472088559414374
Ni 7.061058774247822 5.083821213869271 12.467753220834506 0.12313527260030409 0.9222960987141471 -1.3424128126063655
Ni 2.4226357430171332 0.9481784915358314 4.284946311405519 -0.33302830761314256 -0.19780782171353029 1.0184430156510653
Ni 1.7777829336469917 3.4575082797332715 1.7339636843784472 -0.13695340943031895 3.043028632319288 -0.1213504127857394
Ni 8.923644964980369 6.869082637741778 13.00077955441364 -0.3906739831510691 -1.145004540324099 -0.8570846950138206
Ni 7.903221435794281 7.353256086681709 2.5237628039873865 0.3559293805810322 0.3585531913571244 -1.7915724506981534
Ni 9.243714939726456 0.8541545852439256 7.036114481756001 0.5167063747935101 1.166025108439824 -0.4588017891672421
Ni 3.888551523901244 9.175053933240882 2.7914259650286124 -0.21472542340447534 -0.8133417455999155 -0.9440905688814192
Ni 2.4978627698516513 6.3588238386190135 5.9202080351660875 -1.6409657121504577 -0.6272185593131651 0.4015212102782182
P 5.691460303324775 4.498373015535766 7.853270765231409 -0.8877813527667292 0.2201980164832724 0.7805743213609072
P 6.477868233340888 9.052623052379152 10.475061054680488 -0.3901785315718893 0.49033791210231037 1.204449216743977
P 1.993360997166642 6.496503314016038 8.80080864647245 -0.8045683702826595 0.8108225787224874 -0.6757206206786104
P 2.9180316307483083 7.397073454569064 12.942141606211443 0.3771420101029053 0.8761969903632394 -1.028295997185745
P 4.140609568671895 4.8130434262699735 11.303327834766405 0.5522238509738295 -0.03701308688923948 -0.5649965772584656
P 5.987345122888728 4.829044573280791 4.184591557413271 0.1407396159456286 -0.2474555666476448 -0.5771586665422963
P 0.4667048246018414 5.237624126054386 0.5268394115397353 0.47246437425599924 0.2825827493680811 0.4811978974742552
P 0.08089939111877605 0.9657035573095849 9.267501242096564 1.6023161180990597 -0.7684916791647604 0.6245582388721824
Ni 5.819149644609226 0.5610034125473133 12.67311632518952 0.9614524571986345 0.3300352864230897 0.1426563733523672
Ni 0.7124950479419767 6.351213651710283 2.860458544298977 1.127990779374922 -0.8481254289380039 0.22278737447700342
Ni 8.375814983517094 4.750064190974601 4.300724514745463 0.10491309316532255 0.6238897520502481 -0.867632645732996
Ni 1.644684621444717 8.763172556480926 6.124208078849808 0.4013746573980249 0.7731782860071523 -0.6820463057863221
Ni 2.5641908636631032 6.132230288238889 0.9238023761630311 -0.15786187744821198 -0.987984442050892 0.997819940084075
Ni 5.181869394524039 2.4088264050912773 7.5421288849168135 -1.2117974295789322 0.707579159950104 2.6082296338245468
Ni 2.7171847819370303 9.03700758851204 9.06322651675928 -0.7267662744015161 0.13166619288945064 -0.619512706028475
Ni 3.787982292453472 2.437799675398932 2.562037622892512 -1.2741803626915282 -0.07718837355654448 1.7415380118485815
Ni 4.831819610534285 8.109232675968839 0.6160375750823468 -2.3504282051662035 -0.4122686786027093 -0.9978510504323266
Ni 3.4303787629906495 6.85631746637571 10.310878562476713 -0.06893796062229418 -1.6083646382859849 0.6662126811881751
Ni 0.8939749587956571 7.251407516025547 10.916806535740998 0.44729481696890705 -0.3354639136378287 0.06711556270157473
Ni 8.974113015370163 6.31617292706872 9.010398273668123 -0.037026199515362034 0.0858758740282134 0.22344326289344743
Ni 9.338235530652208 7.27714481068845 4.99848458521669 2.537075125166908 0.016765392383796936 0.2582968802375229
Ni 5.781945331600532 7.612284648756897 12.262830359677675 1.5247536490325482 -1.0459599901244117 -1.2432656753905427
Ni 7.038049482308692 1.7267880965243307 4.3962055507681015 0.061133891196843114 -1.2490979658016037 1.777059858904275
Ni 8.236818541287905 2.8023737221662905 2.9663887714442594 2.6066499480422527 0.5257000936516881 -1.670272174424059
Ni 8.159333857026816 3.3222463791638672 10.943336832574984 0.46574993835030104 -0.09033468113051539 -0.7366619362486733
Ni 0.36644602105022334 8.267136999145556 7.999486067082058 1.7316760314528372 -0.34369272930552425 1.0794972026499086
Ni 0.1406746342496075 2.901917600866161 5.391532395586075 0.7429323426384172 -0.4371060493613633 -0.11895208775689194
Ni 3.1863542158962113 4.095080143902724 6.90807238149865 0.9809067092685042 -1.0031169268169564 -3.689394968205498
Ni 4.523931578985733 5.74897412626666 13.334019197481389 -0.33655431848853 -0.0078089545214575186 -1.5303044036474485
Ni 8.659480232259732 0.20703377085067518 2.3263165516748807 1.143587091151282 -0.16002340387590505 -1.857180575616266
Ni 5.235460537687256 2.968132811806285 5.444910942674957 -0.12023172580026391 1.4571567758191808 -1.8303426294878156
Ni 0.2450555439859055 2.021139590419403 12.121405995024327 0.1515981559266873 -0.9862376345631144 1.0175858098570927
P 7.0041752140041895 2.740081191004833 12.548447541403704 -0.9355390797669823 -0.8963883777094498 1.3656959515040221
P 3.8734440329551094 1.7680467859949067 9.702211298201526 0.6576401090278158 -0.847128098021741 -0.9058700919476398
P 6.427381369139205 6.637258847656764 0.6227606907605548 0.8306576111705436 -0.3575664019638229 0.32926524102628457
P 1.147905918539768 2.2432366397582757 3.1977186989672104 -2.1094723873102894 0.08044339015873242 1.5731389823144715
P 4.648281468660047 1.2966949498567075 0.9112140546287116 0.24632762369078864 -0.8081136644317566 -0.14488731956541498
P 3.6762940981798407 8.158430794056187 5.795745262620445 -0.14349892385832058 1.3654352416434676 0.1714588994063563
P 1.1804255923883271 4.809092525773474 5.321219536416726 -0.8482084755701134 0.2752347936434421 -0.16130921256686412
P 7.129870291228502 9.086666644990645 3.816367631139624 -0.4469903983546108 -0.6797138009984036 0.7531884731487868
