# total energy = -340857.02593390085 ev
CRYSTAL
PRIMVEC
9.31054027602650 0.00000000000000 0.00000000000000

0.00000000000000 9.31054027602650 0.00000000000000

0.00000000000000 0.00000000000000 13.62691681779734

PRIMCOORD
 96 1
Ni 2.9950517907017034 8.135261337553738 6.143409073051533 -0.49629078725163556 -1.600186730460883 0.5730834680316582
Ni 0.4123945470744201 8.516863135261115 5.110175606505465 2.1033840150243646 -1.3773132240279764 0.7808039208732102
Ni 7.239224266125437 4.347202912485898 8.859403492913314 0.7799762827655922 -0.13990220764599778 0.08633790126629645
Ni 5.412729056413712 6.749629513467396 10.261435833436035 0.7390088392142949 -0.6594936172967868 1.3436644256252794
Ni 5.410308315980298 3.6019127962784085 13.211445093104002 -0.906904189639109 0.6793548749970881 0.7008081597748576
Ni 2.5438350844534074 1.0077449318902407 6.266896628884073 -0.5170575874853418 0.4360207867169846 -2.416928502881283
Ni 2.724208178363158 1.1725880448656254 8.512217175736984 1.7880896343558754 -1.0499259167506951 2.069999783136964
Ni 8.63419456196068 5.301868455103466 13.614910832195175 0.5087781210853689 0.5161738993288079 -0.0430063283581969
Ni 0.08627332693885963 9.324133517104137 2.639888202743261 0.005069186992791269 1.175006486002828 0.6406302047333805
Ni 2.1931163483523197 5.8978640603501935 10.7020077991554 -0.5666346270825209 -1.5771380761715355 1.9684478931343903
Ni 3.5960937086980858 5.377162793122779 7.04984415569536 1.157749241584277 -0.021213657963137657 -0.7694111056552362
Ni 0.04912334077206592 5.375896559665301 10.002742475965205 -0.999097264134602 -0.5583266214374578 -0.7586991185543708
Ni 3.4545455671242493 8.805480568704997 12.722852154563789 -1.871342211828629 -0.04731524014619593 1.4872700502647933
Ni 7.648794926378878 7.691511684488511 2.177240946379186 2.0980857427399027 1.5997702117487544 -1.5902270481450096
Ni 9.134999204933454 8.896835588446002 0.32956518892909864 -0.46870773542704436 -0.7432881833159393 0.8275465763453876
Ni 6.490424076289497 6.319436006829291 3.3781535164237844 -1.982825244901985 1.6675329211160248 3.672900312984584
Ni 1.996552225159079 0.6946957100951175 11.023997932635934 -0.2555892514983727 0.9238840120265572 -0.1662750412125717
Ni 7.725420671636569 8.223087662586034 7.240335013562769 1.1928764243047134 -0.9621569394648269 1.4272299063527614
Ni 0.1301017635398382 3.3645871284025226 8.783800976015748 0.6697572040063239 0.4187177766621627 -0.20160534108274955
Ni 6.112323041670442 8.312347810798121 8.97495939961037 1.2019940703352654 1.3463679405993718 -0.7997424096489258
Ni 1.5540036317704327 5.46483083897289 2.5860481423420887 0.013369222218054392 0.9211478440423169 -0.9103142437619226
Ni 5.338449567268407 7.748184942250792 6.8144941844347455 0.33532635961869994 -1.377102393568751 1.3261066192471742
Ni 9.143713870493745 0.8819949148064713 12.092430827191873 1.2955575428157236 1.7704369542711185 1.4510840872625397
Ni 8.10907078817222 2.3868407568063623 10.39522550192078 -0.07857779770490338 0.056224112600051564 1.1882286411200567
P 1.5120410274112086 0.9256818311974964 0.21326816323781186 0.02006900283573318 -0.10259421522415878 -0.4571521693789611
P 0.5850277889753345 3.9956834699337573 3.6546709719166475 -0.5630206844790174 -0.5186848386761197 0.6548327214860077
P 6.628154896410642 2.181357136170003 12.060039458084763 -0.5963159561970375 -1.9022466147169692 -0.560914436769292
P 3.359605989433767 2.32911540800956 0.3906851606567581 0.02779002562907472 0.9845839010097752 1.8354318710852648
P 5.21956328036738 8.163947111689696 11.945395984320301 2.1125250580936843 -0.40647675451128057 0.6687457320226741
P 1.615099396093758 0.807486386374005 4.25107996514508 -1.6081432663037982 -0.22230863506837198 3.185551565417585
P 4.196279057002645 5.1938475685324175 0.5723943170749505 -0.6589488005369103 -0.18345592386723245 -0.3415885384783278
P 0.6134174879352071 7.324480882082263 3.3272164824346837 -0.10364939596155051 -0.4992688960433531 -0.7523865460727817
Ni 3.861602381542991 2.978209023609217 6.537730930682489 -1.1132555300472762 -0.1897646396940796 -1.6728982991929964
Ni 4.393727681508095 4.637226237489187 9.946544986803492 -2.3445100399095558 1.793851219430001 -0.25726638209047953
Ni 7.496381384475063 7.371415314870115 13.088966799821392 -0.06766860699156732 0.1566783986630721 -0.41649840041334074
Ni 2.642750262778767 3.5767743379314143 8.756466161252435 -1.172437182613755 0.6661360623139689 -0.900089994930753
Ni 2.800778060380077 8.308977395271597 3.600844877325668 -0.022627764701844903 -1.7911944985334443 1.0278619949721202
Ni 8.687618441218108 3.41280641572811 6.410960478400635 -0.9282101502057369 -2.911191203959296 -0.36322565713212923
Ni 8.732690765980255 3.3895952391877184 1.7745247057683586 -0.7267217943168258 1.0804233140086037 1.733709259832782
Ni 3.9811869589536566 6.030204077736927 11.859532321147096 0.13610006029108818 0.03291834799457556 3.0907519065371805
Ni 4.077867607648172 9.079973912773921 10.279927497185282 1.1096385021199793 1.016862558537823 -0.4331810032753443
Ni 1.904042698442139 5.992496390216434 8.567460334535525 -0.7267467340174903 -0.8060071596117151 0.032937888378601336
Ni 8.830162810585696 7.63152387444048 9.685153434803416 -0.9425432789989574 -0.5879966376980648 -2.1437791310119594
Ni 5.207226814697096 3.613346139556227 8.063591592806455 1.2230272368564807 -0.20490406643867934 0.5503045224639297
Ni 2.7974635080943258 3.3934311817206675 11.736345495760709 2.870814342804146 0.8418930748750467 -0.1965281836701583
Ni 6.535328811329332 4.1554150963785865 3.5301210834554437 -0.5226448517651321 1.2309025258394994 -0.9877952088582215
Ni 1.2673507222936664 8.485253851524801 8.343460842745584 0.35114327204629847 0.04553912208237963 -0.5274253038729111
Ni 6.203975998695559 5.559276958036562 12.089336934707166 1.498386729003245 -0.1126909373385285 1.0460263245859727
Ni 5.313897672949509 9.100457101056657 5.026669372092801 -1.4476640058373973 0.8004970284267633 1.395089831285107
Ni 6.096402018050679 3.663762714352144 10.675694350644184 0.6231302481764042 -1.3565086285777994 0.8150998659416028
Ni 2.362465762749906 2.9405665098696243 4.48683960017135 -0.3945820599562237 -0.027370421593152863 0.01372917666063442
Ni 6.467026688946535 0.23997265443442292 3.2966779108131496 1.1855950601519516 -0.5241985694054971 -3.3280032789583136
Ni 0.9779046507783454 3.2075276269745783 12.930362679786127 -2.5924710854387096 -1.7680777100103227 0.685830969639735
Ni 4.495156705668153 6.8160695278244905 4.788771105999012 0.7122948202582184 -0.6555518590402194 -0.15413274942308294
Ni 2.34386330357313 7.647547314001656 1.2536800562229657 0.6084101683574102 0.4263601236987689 0.7071778107466272
Ni 3.8538001489152944 3.353107232424062 2.5655398156010056 -0.07400997582856285 -2.894388016359028 -1.8178460396827014
P 4.934381436230919 8.01253910811976 2.902546919254827 -0.4667670667609058 -0.35514030902083354 0.1304696014781882
P 1.0268594707740852 3.689450494566721 10.781779575922513 -1.555785064417056 -0.41063371410244764 -0.3465211998932548
P 4.605309705928632 4.350685054493963 4.698247517491484 -0.297484606180578 0.046388871677184626 0.9322038447461622
P 1.3683607721479418 6.577794184855496 6.73788333604126 -0.7447200306664594 0.9005345386673395 -2.470174763799933
P 7.93874376706114 6.452325346083608 11.057861298137365 -2.002375913340403 -0.7421026476482703 2.3370576973965687
P 7.495161703718228 5.560738712836739 1.8007152551498757 0.6024369814931109 -1.4412809851291888 -1.7326345387113646
P 1.2309092682306528 2.1182596057190466 7.45931984843949 -1.5672532129576557 1.2488483116846427 -0.5148757493426745
P 2.291528757510739 7.922329284814564 10.341930108117124 1.694437715926669 0.6995007538173438 -2.7336799277112727
Ni 3.8847018316018405 7.171210770486624 8.57165752602546 -0.5128029259740459 0.9059762785082012 0.3926617030050592
Ni 6.30394326805544 0.06521195411414245 0.364307469418658 0.6220264735892642 0.11177253928931719 -0.662081432628621
Ni 4.351504382025272 1.6896116487422754 12.407170843074333 1.410967678857628 -1.9500249105425127 -2.215693400653758
Ni 8.759747195593723 5.260241030188868 7.415632000994453 0.3259839991718515 4.158967108515366 0.8604312428885504
Ni 9.216559536459258 2.169132396981261 4.585661673095424 0.6736575675019947 -0.8333819520802421 -0.9919511400081238
Ni 6.131521375415443 1.314061702118434 9.09272376642591 -2.319717149235592 1.286144991252572 0.20746359963573946
Ni 7.8852640245629395 0.267737616151672 5.459133719468251 -2.367771838650974 1.862467535046818 -0.3680554744206049
Ni 2.422043909032283 5.652307875000699 4.881638157456886 -0.5239921098216459 0.21536742786384847 -0.21691343219472967
Ni 6.663162527293864 4.383625745468654 5.9677173187184005 -1.3452304845608187 0.5228939916614608 0.10636062424512649
Ni 8.212892621145308 1.2153327345956448 8.397137968694507 1.4565574516722848 -0.5889970539381211 -2.5342695373973125
Ni 0.8639911233599588 7.845014559587363 11.73627752881777 -1.9893640744617673 -0.18341915709202603 1.9304960964809652
Ni 5.552908548588657 6.771527903849667 1.1478043180975275 0.22516667334245738 0.4193962907864261 -0.6366257115596777
Ni 6.988677631267057 2.1987212935096863 4.088074752791065 1.4830200167391878 -1.01586522762156 2.953019967069624
Ni 1.9588445376385872 5.031481059231218 0.12695852519245104 1.2422434047736153 1.120330948836819 0.34565268124537246
Ni 4.6813395766180985 2.136247569247341 4.315603870343725 0.04359202565833783 -0.6873440638501517 0.06629640923438905
Ni 2.5882277397861744 1.032138547026954 2.628101058940559 0.2429067709346978 1.713420684787075 -2.618622032802464
Ni 3.9676773652271797 5.3969011381952345 2.8343444196514054 0.8683417559848786 3.790268601194124 -0.08965153902056172
Ni 7.129918525016653 0.21321229999704078 11.330985992807394 -1.9972033680005281 -1.2656309304596203 -0.4338024389094271
Ni 4.301395055053597 0.3129887032842879 1.5848783138906062 1.4059198320210755 -0.5458197472196986 -1.1286415255850433
Ni 6.072567035321677 2.482469314466355 2.02859817322742 -0.2900777721935456 -1.0161493345208823 -1.3616174105592742
Ni 1.6578627069040341 2.894032430307299 1.6935667661888694 -0.18898868076000355 1.0617447637624942 -0.5361364584936638
Ni 8.715373161341216 5.9063087202467575 4.99786256093517 0.33968797902150527 0.10359026058884095 -0.49690348113497
Ni 1.371675324433694 4.266108107966519 6.4978995089586835 2.1655625454356384 -0.24277821577663353 0.18801988908883105
Ni 7.7840863849863515 3.202900288530705 13.372229741637366 0.26396153472246797 -0.30122427572866833 -0.40052336514132314
P 3.756709836455124 2.372176656103949 10.074038868053332 1.6395858010837958 -1.1592397100868745 0.6647456097243455
P 0.8376962959290025 6.88755585493124 0.08187130356609702 -0.8187567459678997 -0.22912540087988928 -0.5493485863085636
P 6.885097872337312 2.3062114792934096 6.802557140935975 -0.5517924198633658 -0.3743914439409617 0.10055404486567844
P 4.462364983335519 0.4827636093657478 7.214253397500756 0.721309622162319 -0.3200447508692811 -0.10562426029973422
P 7.022856624078843 7.42504402601037 5.397853606450381 0.14018271500089405 0.05385638369882337 -0.8865647067508086
P 5.90378556387193 5.9266522504275665 8.332859861755255 -1.0225369832147808 -0.0025345934963956346 -1.2294233701908115
P 7.83355328468916 1.4974514110298234 1.184357498642083 0.32093049590834405 -1.4099124981202364 0.10161436780939273
P 9.052014360767986 0.25398129311178885 10.104876308012992 1.0553936247334856 2.044529921000634 -0.07701456698284156
