# total energy = -340863.6081564976 ev
CRYSTAL
PRIMVEC
9.41650034336316 0.00000000000000 0.00000000000000

0.00000000000000 9.41650034336316 0.00000000000000

0.00000000000000 0.00000000000000 13.78200008695139

PRIMCOORD
 96 1
Ni 8.577047689856604 6.099754749889919 13.569206348259495 -0.9612729941979768 1.171263474020628 0.5713798550769902
Ni 7.259396781047352 8.570324308531015 13.669663458424285 0.47664036001055976 -0.4928398525885576 0.7521420341621433
Ni 6.233101812847454 4.428457749954815 4.831073410052092 -0.09555787720266767 -0.361313527711081 -0.06548162664257753
Ni 3.1676354213975726 2.335828853616072 8.711244121155271 -0.5783920247287652 -0.7126622308999662 0.5425752721404721
Ni 5.121126106998336 6.06344472413155 3.046166332115247 0.986992767561584 0.5710834068824938 0.21237646355632456
Ni 2.2740660271251127 0.6318292892472961 7.054358133518043 0.12313938636536213 0.7480591223420213 -0.052588315619677174
Ni 6.0970710472599565 3.263636643546578 11.152421956923028 -2.2243037680305884 0.6781027477575419 0.8275622600746716
Ni 2.8411276845859375 2.376658799593324 3.1571256652386217 1.4311459535777158 -0.8342209030417698 0.3502403006160549
Ni 4.226765726687571 9.322203620441917 3.2609312829655663 0.15334239231130367 -0.5292523297793208 0.300053909569651
Ni 3.253485656055001 6.944179428282471 9.347821209932487 1.6667865298683036 0.4594337663242862 -0.10921917673984416
Ni 0.3792570890661025 7.929945778519708 3.7045190781969817 0.18509705901508122 0.8012279930555168 0.18920799585966125
Ni 0.677258254047263 5.613166505326142 8.101032292004833 -0.9342882380790167 0.13119928055536115 0.03512564005853951
Ni 1.3643944170728788 3.6792244746720515 2.0824882669976676 -2.3568251098314827 -0.2553977043128569 -0.6120251394021782
Ni 8.022406396497255 4.490192326944406 11.722197449815274 0.6644761581130427 -0.1438089988995717 0.014332614572588219
Ni 2.0974501445722193 7.8984005019920795 11.269776035506077 -0.6962146268669042 -0.11864586937038275 0.9125667872415253
Ni 5.607940347573057 2.2230662606553713 1.4356434261232205 -0.7468039097786816 -0.6350966765096611 -1.406246876343191
Ni 6.4024858230501325 -0.13908736163551744 2.1911179579082263 0.03530510305919726 -0.5542848472679164 -0.8143401049574427
Ni 7.8600094296329335 2.2500539509622914 5.305463519925156 -0.3943594024224563 0.9126863435385248 0.3964854476265236
Ni 5.225244352540421 2.4884232435056877 6.42191583009106 -0.14292016853671513 0.5404921643591982 -1.3564713475819608
Ni 1.5180434550135675 5.710777949053125 5.000109951387945 -0.2648611637186019 0.82206472729521 -0.6583954991366016
Ni 0.5992180648680479 6.047888665378225 2.2499663775080503 0.363303047337284 -0.054230479208790476 1.2093520533622333
Ni 1.2251055423276027 3.4050253978935436 5.76853876285028 1.0412546142289423 -1.7769212764438818 -0.8497920180071494
Ni 4.7595607389889825 9.090002135697206 0.5116154194757563 0.5692409543571163 1.0412512717948326 -0.7763289158209921
Ni 9.343927486993927 1.4541807489209189 3.005027524923037 0.9473242453273685 0.9040055279350754 -0.8421980077099753
P 1.6257776367307595 5.958008168525624 10.084565380660447 -2.013184316809817 -0.1340064109868531 0.8713471184701058
P 9.019274800772127 3.7295556696094163 3.849271406506834 1.4820856778503766 0.9773004799744845 0.7206146529778235
P 3.960033934770678 2.788046871515418 10.830709102143592 0.2593931986254952 0.16068572005025228 -0.6583420201908468
P 5.999647933542094 3.690712605228382 13.52240257439295 0.5074959119388357 -1.249612443544177 -1.7989126931133084
P 6.8442797749446775 8.358660211280858 9.68242054558597 1.2896193229544177 0.8294124259095328 -0.56432551933337
P 9.02813572770123 8.308394931846685 12.347555719949202 0.9567283122500877 -0.7749410343345299 -0.5775595015251408
P 6.5728679823011475 6.7552750126344865 1.5164059255842677 0.3195757816526625 0.9252402689441357 0.35268207728832807
P 7.880480901624296 4.473572203639551 9.3618922865639 -0.22380707399076938 0.09001380745598692 0.7949007652859085
Ni 3.212646293577292 7.668637890865475 1.4277740566921344 -0.0688734259329459 -0.9311671759515319 1.762003993012417
Ni 1.1065894675882813 1.7376927446504191 0.2946206413174535 0.5112142413306873 0.5160751689674145 0.09896073223662956
Ni 8.291002655504439 1.3975593316789403 0.6556294941498573 -0.6354157504119766 -0.368227738332411 0.9754307737555976
Ni 1.922811727115088 0.2158826894544482 2.361463392807463 -0.38548575408191027 -0.5370576847563524 -0.6816228450956583
Ni 4.159268251418903 7.2692181910229685 5.185959654287999 -0.8205578037323803 0.16624007420957823 0.7024690924170482
Ni 5.488096546269438 5.202767165951928 9.154556012923326 1.9913443381165896 -1.7891815818684738 -1.8589327824206825
Ni 8.738578338678973 4.5754210725717375 5.940827763443638 0.16523245888067026 1.7228424923216072 -1.2443884761410762
Ni 0.7453791016461189 7.8489073755953 0.6268055862540157 -0.6310119649173261 0.49303551353913155 -0.5336347751177326
Ni 4.46543634724556 4.66966140913547 0.8766121602512797 0.021186147159311903 0.2567580749954933 1.4682986513686132
Ni 0.7898127423478857 5.6470188244654915 12.09093536622197 -0.21637915695781443 1.4010064538798581 -1.7270663005949678
Ni 8.112870716378128 6.19300635390577 3.685499630575936 -0.9210812524704395 -0.9048128543277192 0.4783611993564084
Ni 6.441197056424783 6.828083394160343 5.927018465524902 0.8875149864792199 -1.1943980031555623 0.28196182795463054
Ni 1.5159906579141578 3.6361439850858135 10.59877127941165 -2.3247721951609965 -1.3677844586019348 -0.9114586417790108
Ni 5.504848500580677 2.6952001770191756 8.67115242881377 -1.3986292118969332 2.3259983542586133 2.7292586587151257
Ni 7.768490461700989 2.406904599058023 10.110364708609817 1.2922032816315099 0.5096795498537158 -0.16883251752710277
Ni 1.526292309413031 8.614836106186566 9.046794523354812 0.82691948428435 -1.430354568024672 -0.7285920147563452
Ni 3.0202483562601294 5.641387757192798 7.160190182143121 0.5845999533116899 -0.3119735438253724 0.2343848495066157
Ni 3.32911898771766 4.546107506652183 9.857962005436832 1.5822926237892814 1.0965130204816147 -1.123612190691252
Ni 9.0346707790177 2.8905737284804376 8.06776285424371 0.9230203784746813 4.185444585980604 1.1653159981879415
Ni 0.13550720816214304 0.6102240706010306 5.16269618991143 1.5544205799693616 -0.36483593904204265 1.1242215421404766
Ni 1.8490522790431745 3.847986995844634 12.805256024414035 0.9935804480814306 -1.6774203554330662 1.8559279341560873
Ni 7.017496300832952 1.4055633570665476 7.98281001207974 2.9037622584850764 -1.0246619999775837 -0.49011731145107207
Ni 2.8620699816001003 6.460623296865529 13.295123094436596 -0.0539510002951587 -0.6592498767170969 -0.20009713196833928
Ni 8.63178580700738 8.620759084973395 8.242077344085155 0.17924522821999453 0.9621697949806333 -0.3786684740497608
P 9.354925959526545 2.6984300366755862 12.290746914348148 -0.08180684616516233 -0.5537431158318333 -0.17137636699487904
P 3.432248500711864 1.98348223955315 5.223074790835356 -0.3861424138293027 -0.6252966597001037 0.8435468084283859
P 3.139451835532739 1.5086269545575592 1.025409817157033 0.927598484763667 -0.6267207937411401 0.08434555342661602
P 3.4555072568382044 8.105827174037033 7.450149655734849 1.6871509524572685 0.9129316267801115 0.10488429680991614
P 5.247683873127087 5.025445045864834 6.9659324859858955 -1.9980775430753652 0.4938477250277818 -2.1681624449523307
P 2.9117231885046326 6.791321376380087 3.4738637828271473 -1.0457877262126054 2.004993039248276 0.5362079351615475
P 1.7181252567028338 3.7091971956235263 7.797455617103671 0.9052180601859379 0.09673389978863985 0.6292844407032582
P 1.202863768250511 5.244519928973869 0.47484681014518043 0.27086057583514644 0.42786421904812116 -0.6156992458196557
Ni 7.436784816637638 9.03672357611711 6.26600024049061 -0.3518829784258004 -0.06521577457570059 0.08008857792247498
Ni 1.6103534089838178 7.694674514626339 6.757838184058612 -2.4179284049007066 -0.6290818377741488 -1.3356299853565772
Ni 2.505655439340183 9.14587964940316 13.508483103418879 -0.2880198612232524 -0.2661575139325223 -0.19303456869460303
Ni 0.7681576162492031 1.203956082303408 9.36830115677426 0.6291368593818003 2.05927108386555 -0.434476067937684
Ni 5.476288254697605 6.599657926098492 13.432695341148742 -0.15938037097526744 0.2913836354891627 -0.43945372365793356
Ni 4.9721570697842825 0.64235128685684 7.8697564492549485 -2.1288767599788305 -2.14541615239475 -1.5799909722392982
Ni 3.844775969189135 1.4642658209093038 12.435402252703303 -0.062159761358196175 -0.453201155151013 0.5599669852543582
Ni 5.693762332729118 1.7464124240726828 3.9079964699506844 -0.6499609952160031 -0.14759340564266837 0.8687654737858588
Ni 7.631367382060594 6.418220795312123 8.492344384954718 -0.28609564761734596 -0.0463490195781847 -1.0210110334885576
Ni 7.691840147989081 0.1901586935087245 4.021174330581495 -0.7474561986506999 -0.8221801698271518 -0.49367289001281434
Ni 6.689538422951092 1.460951212748789 12.776919891241816 -0.8980385117183632 0.044563645542987765 -0.7477817003109186
Ni 4.217349226231563 4.398259032992396 12.425823788439454 0.009858895071950763 0.4870461287249161 -1.754179354761676
Ni 3.138321855478018 4.880628685351882 2.8098601948217614 -0.4108579142981118 -1.394156006616928 -0.032998309302891556
Ni 1.0182532768104666 0.6960215728559053 11.854270460261112 0.09830330115828875 0.5145782727069137 -0.036945209765781535
Ni 5.423913679161285 7.447416045652471 8.428754757375295 -0.6054647125758411 0.9251723918206776 -1.3314557993742295
Ni 2.258670048879539 9.287532065762893 4.7824089356954405 0.9965050779273934 -0.03665570354982074 -0.3200468077518101
Ni 3.56523773665207 4.302709802865278 5.207639263287867 0.6171035823663502 -0.6742255241903227 -0.0007600180944761104
Ni 6.932738380228421 6.986045189309885 11.38395957838559 0.05024964018417152 -0.27466143763847534 0.29557221964921354
Ni 7.079306209826191 4.167498272817455 7.306927508749099 -0.5209587223119608 -0.7777558780755057 0.8857380970844551
Ni 9.097431754556995 7.3103212155134445 10.079273307404168 1.1939686289276277 -0.5781431419427527 2.207257611181579
Ni 7.203170856824525 4.746857879873827 1.1044302640337185 0.18242388305829227 -0.06294497626365289 0.445345149441704
Ni 4.944830385460947 0.24026577573523633 10.060501513745116 0.5902648649069512 0.1728724919244313 1.8382911949109308
Ni 8.477873107053925 0.39268125211618804 10.624654414215081 -1.4653719646401213 -2.13628179419365 0.5968618013981785
Ni 7.462934438403972 3.0161710115626774 2.757047752014239 -0.7345508034429414 -0.46750805869198836 -0.08187009530292996
P 4.812415556048557 6.0016159821374 10.836511549724586 -1.0470362539077258 1.2422454616561445 2.866506716567728
P 8.822394609237902 6.822819570405435 6.186602191945639 0.08058968592860959 0.3264871640605152 0.08728226745743678
P 2.7680462245468567 0.4973287049839004 10.471619332104122 -0.5426246373211687 -0.6084070830336168 -0.0026626344338276727
P 5.811007179906878 8.662709594504914 4.845310217091531 -0.055017750996776214 0.5049026972903627 -0.9441810717126965
P 8.633330113082167 8.91074963301663 1.9670777541087379 0.4927673474794094 0.5976020219983127 0.42569240820778304
P 5.19554471010217 3.7082649620783816 2.9512771986700956 -0.45069870044413346 1.0515439119700922 0.5962766183186698
P 5.636340512948379 8.682512494963898 12.22129928183504 -0.6475667839522138 0.8547231367601795 0.2727315676056142
P 8.99548872062025 1.243326470709979 7.086345985567103 0.46322794325939576 -3.8279928552177758 -1.25954821460065
