# total energy = -340887.3407080678 ev
CRYSTAL
PRIMVEC
9.12629285796273 0.00000000000000 0.00000000000000
0.00000000000000 9.12629285796273 0.00000000000000
0.00000000000000 0.00000000000000 13.35725209745295
PRIMCOORD
 96 1
Ni 6.746383791859635 2.48842062512416 11.4971740705941 -0.4288306967264486 0.38417294880775776 -0.37850932276407717
Ni 4.861603551117729 0.3414173513728655 5.992237149838024 -0.2660302443260386 -0.20315468784774046 0.05248110061785155
Ni 2.8270425930137204 1.3979381515582987 4.612379096937175 0.5107920661916041 0.3838824141505324 0.9490939356332816
Ni 3.7421633505112903 4.610146805719361 4.929814376101649 -1.4715282140495045 0.18144429275384236 0.11787453842199701
Ni 3.6403230492047034 2.3529043034016484 2.644014790997088 -0.050032639077359 0.7116091070451035 -0.7553970507643313
Ni 4.943311250517127 4.439576393368783 2.9259597427378625 -0.670253169806136 -0.22022321329425298 -1.9361337543827175
Ni 5.784143984658158 3.374848318072227 0.2951351827183182 -0.04278367082442954 -0.5150364432902549 0.24835699541599163
Ni 6.163962038227252 8.295736267190456 12.143799294043836 -0.40284584262691264 -0.0493150441850441 0.49140903367930205
Ni 1.9467386425315305 6.833211341517389 0.2611160136932771 0.21837176190781105 0.02784607567799075 -1.2108682328964437
Ni 0.6636694878748794 0.5224446700086927 0.1448552571402938 -0.9633805274592829 -0.4926215659301645 -0.7625246629480481
Ni 8.20491140128821 -0.13215145756875793 6.373840306277947 0.20956727624230356 1.0603687093505738 2.6111720042823223
Ni 8.593828368774563 2.7222179939629583 1.3645103663064155 0.7295510362355049 0.11817664304344808 0.8043061177602083
Ni 7.111079578266349 0.7897163681926314 4.649646313568186 -0.5923963094276572 1.3776983752815368 -0.6922106479138337
Ni 0.877544159540787 7.812982757179297 2.433731315546266 0.6950090365945772 0.18438203522592764 -0.7908697897496444
Ni 8.147726050630709 4.176739160854247 3.9667568530656814 0.05346917556273372 -0.5900936294364096 -1.7950876629402632
Ni 7.833772452167773 4.2895218872228105 12.771776763424233 0.9439219045140388 0.32842577584412475 -0.0802983799404359
Ni 8.658241743326215 7.551550973755291 8.452842659779622 -1.4279405592665406 0.6550119273763494 1.2736481443371421
Ni 6.977917840085113 1.1789162507556479 0.33554731984670755 0.4980602204472326 -0.8337964139098415 -0.6326345881224137
Ni 2.1244184369699153 6.610484165839707 8.936536177948733 0.05599862685280678 0.8219639400512876 0.6713155496323794
Ni 0.3858176784529511 4.966172613970214 1.2232453927519276 -0.2371361869995077 1.0358586400243517 1.0086985346697916
Ni 6.471965293787428 2.0980799559616883 6.9243994338729005 0.7112218989090138 -0.3622782056171954 -0.0006489464379085597
Ni 4.008587216094513 4.776245334600074 0.5345306195579635 -1.4336363240997374 0.0286999390378538 0.022922670234444394
Ni 6.2609106465953746 5.658949500087519 4.494033895109667 0.1305387641532268 0.6351617254196416 0.3468536435320091
Ni 5.572897685317395 3.120726695177531 9.115122213261726 -0.387804632023074 1.177272142108553 0.5155007845211832
P 0.44442581815729476 5.780055405485709 12.344077614702794 -0.5667279581272755 0.4682451939683291 -0.05017970617818455
P 4.264534097548338 6.430614061130366 12.512940497671309 -0.027522888010617117 1.1674448716054862 -0.10400240842559508
P 2.55024213252185 8.813397847144952 0.8550241194382568 0.4795223095440451 -0.6482039033155804 1.5704390668848052
P 6.470915770115929 7.68022257588107 5.794042361824313 0.6124447434381001 0.86976023359896 0.03956516388713186
P 5.129022182615677 1.3367189794851213 12.507957541804887 -0.5148250986103973 0.06100687870067559 1.173841262050133
P 4.18536350754613 6.325333147439822 8.046676086280225 0.5276129944036848 0.8564532320774088 0.4505369780552886
P 5.13955392450185 1.1302822364476635 3.6731238581415258 -0.8707909888563196 -1.3689998190662747 0.7307735957886963
P 0.4246810836939198 6.047172869321401 3.4364334544865094 0.08888355050628563 -1.2842374898172142 0.5069289836917721
Ni 0.9507224256933757 9.03435452202028 4.686218106688169 -1.1094053030632507 0.9990396714237892 -1.3063890862135887
Ni 2.2314881040484065 6.7240882585598785 4.610496342733435 -0.07746965224238916 -0.14678813613255365 0.32551143041080716
Ni 6.171765018567528 5.655691413559474 8.971197837986587 -0.32646453835269584 0.5277587759529299 0.6081250330168237
Ni 0.05058886622481156 2.9138975215498606 10.446706740420018 -0.7169945397267329 -0.5372322626610038 0.1915667258998249
Ni 2.500330437222475 5.265387249568184 6.878931330535725 0.4510949074412876 -0.13117768328880633 0.6575570623957063
Ni 1.028195525235594 0.43026728751413323 9.037903737288506 -1.997361747955263 0.3300921078029541 0.7571225180958702
Ni 2.081159809118565 1.3565595400228505 11.17776294903937 -1.078947500794026 1.2904513319374098 2.60321726821162
Ni 4.224524429932236 7.2970004150992 1.4640353271307474 0.8990409848409484 -1.1062143069297787 -1.7038410115184397
Ni 6.102268298928702 8.032871655797534 8.08569190061088 -0.42662134777995553 0.08377348297322992 -0.150841737376637
Ni 5.378735806090077 3.058576641239198 4.731245410083314 0.5194245450556215 -1.7494472393933291 0.46527865514083744
Ni 1.047990454309345 7.767150514759575 6.82218951770809 0.19910725725124417 -1.6254730158314974 -0.3056769121833832
Ni 5.332292102053047 4.621746323862624 6.882230485381348 0.5229916935815897 0.8420445128512466 0.08569332570376209
Ni 0.35030636055582237 7.909082620317425 10.967626406902559 0.6512465467966462 -1.4001140239725758 0.17256164555223186
Ni 4.862178507563854 0.6890579218030803 10.473795402696046 -1.0241287531819332 -0.6278366525131381 -0.32833270190968616
Ni 8.21580819488621 7.646929859762563 4.514443936317845 0.4442627150108026 -1.7815911711157255 -0.9144141248629091
Ni 7.551770004782387 5.960171920100531 6.703550449252561 -0.5353034210694071 0.29006388823647467 0.2853909082408375
Ni 2.551337287657327 5.826535614693921 2.3692558822036034 -1.3084346558887079 -1.5506765395458972 -0.09953691645507373
Ni 2.4612972829355075 5.438987591126916 11.396981977766407 0.32114646857389206 0.2520372724810563 -0.25267413473410677
Ni 1.417002977208398 3.786571891254892 3.7031776529468603 0.31291688157524816 -0.5148394967881005 -0.29963610530594204
Ni 1.5658436864125496 1.028889123488063 2.269303810876435 -0.19349119661604744 1.3686617190005652 1.4980640555565037
Ni 1.2371328724990587 3.2104655322370945 8.253285316251521 -0.8413762831396284 0.6787298398185795 -0.9426016430407185
Ni 3.789054242895307 2.9821348127828875 7.01050053062412 -0.08862412619731189 -1.3952263568629715 -0.13544134366116675
Ni 4.501005470176259 6.883314688965472 5.782648185268951 -0.8934686329594935 0.49852404745752854 0.6619791027228019
Ni 8.34994644639658 7.483085525202373 -0.04547357911285333 1.463897436977124 0.653151734239159 -0.4734848451007136
P 0.42023384121460267 5.7969846786216275 7.70416905554756 0.44395881061713866 -1.456898894172104 0.754214600420456
P 8.49834909354654 1.7759218202754692 8.004813781226607 0.5922883230948832 -0.325195184721969 0.23078376241891865
P 2.167403276037397 3.433858927288858 10.51623083893723 -0.5562944214987774 1.7477202293998932 -0.010991980235129458
P 4.1832005761535624 6.352091437916649 3.5703271213499557 1.319562133260437 0.8131005761233867 0.35571957856307124
P 7.264611201967461 4.219924778363232 10.362555932439227 -0.08752549381649442 1.2415677188628296 -0.46365191817069185
P 7.4119004413963525 8.151102778965097 10.126466951479443 -1.2174636267257741 -0.3201627645043841 -0.09573091244542223
P 2.6512519411840336 8.489733873147452 5.760996055611288 3.1926598943275915 1.1967181666483067 -0.05978431914748413
P 6.838066529284671 4.375263408037882 2.0205384092235024 1.0273333761621597 0.8934418934866162 -1.063500570111336
Ni 2.941020863738513 1.6575994341799503 0.1599245918044605 1.0633077373742397 1.0577086460199074 -0.08289956500870883
Ni 1.6883367883156777 0.8976694604137403 7.040380013237057 0.6480421809267356 2.155070387655063 -2.201758535740221
Ni 6.780926810091145 1.132390410083457 9.340218574549157 2.5361425860503095 -0.8957638567515736 -0.6358191564979824
Ni 3.0118317695399117 2.0687480509164895 9.1547266734777 1.3820191141440779 -1.4858181483096153 -0.9944296834556036
Ni 6.534799819685435 2.176611705468201 2.4295642502557753 -0.036760347448485074 0.8702358876837981 1.1644063418894786
Ni 4.504528219195378 7.309603825449983 10.199678072286096 -0.2756888504617252 -0.8222022813143388 0.5644247639153956
Ni 7.303297557128194 6.292350725276366 11.439284170132774 1.0020756300366356 -0.21806528641098574 -1.5182832108168562
Ni 7.739178427340928 3.9733597259033293 8.18159737371246 1.1964348310799329 -0.4313300661095346 -0.28362430325871796
Ni 3.7069449866129016 8.669549220100018 12.273257582608599 -0.893549622709074 -0.7083818583570575 0.43106524248392214
Ni 0.21201017004775763 5.474926932156161 9.91197625504983 -0.5766611580805875 -0.658674206719285 0.6262973330504762
Ni 9.028249032139994 2.5793732591255445 5.9627437094103435 -0.5441302753324176 -0.1671628431341637 -0.5741440480856886
Ni 4.174713123853614 2.9183146472629518 11.26688211081811 -0.590236582772177 -0.11545564456785921 0.8083471205988014
Ni 1.5769503847448478 3.6963037292131813 12.984117305271193 -0.7176748536232093 -0.5142725685410369 -3.114141489105714
Ni 3.3412088028274844 8.719333147300254 8.476070900203094 0.8397726860979342 0.0024924274045505465 -1.04596873187516
Ni 6.066794398832035 8.06464028101917 3.438263276192036 -1.3498569275892365 -0.08452604486853829 -0.25742167672142113
Ni 3.4009768943461545 8.471244003943479 3.223371935508694 -0.39893699449080966 1.128996594931617 1.010144265977383
Ni 3.6243611631051227 4.518162900632069 9.09722372783091 -0.20043317515151932 0.0617211311588808 0.6695605146144855
Ni 5.303389132769245 4.90067321057588 11.457423589693395 0.37479793535076095 0.07779001169628538 -0.4858649639326213
Ni 8.176081442346772 0.16140852701303215 2.3961839217264296 0.16499206073509 0.23824433246202198 0.11117655757653112
Ni 4.970106046165135 0.42759419635428925 1.4832160566993515 -0.47752173417424865 0.5120282525915504 -0.334932723724707
Ni 6.303092371896839 6.1190789302582775 0.30770300052719896 -1.1612325721471872 -0.6868902641421848 -0.03247740380241504
Ni 8.032260194180227 0.542371017698701 11.585545788992876 0.6803162104690929 -0.6585392238033174 -0.6194186036527719
Ni 0.5354295593983345 5.338078171685485 5.620344368932667 -0.8382138262512467 -0.8710750957556419 -1.098902603759714
Ni 7.806256679388908 6.549721308406311 2.11860681371765 0.1714910381958724 -1.0239271786940882 1.623056950190837
P 8.883341755130765 1.8727882920084304 3.632518243605869 0.12234800081231834 0.03951374182390614 -0.009238230768816347
P 2.1322305436029865 3.564875986663118 1.5502961340058912 1.3440066394560466 -0.06831215411283718 1.6896158690579934
P 4.89011408981132 1.2431836046225704 8.277235446435128 -0.3951585012849839 -0.553106253578783 -1.2698580811670905
P 8.789623854412302 2.2494942797342112 12.60764312538242 0.2832512361900154 0.35467648201053753 -0.07964480551683703
P 6.720465120320007 8.182387710668563 1.1941334313631042 -1.3135781477628603 0.1183980150256348 -0.07493865829041933
P 2.0374813717986147 3.144309035761474 5.839055975780266 0.04418877870207229 0.5216871158375531 -0.08062156760780954
P 7.093210296972479 3.889069285642765 5.780430496119609 0.03583860696516409 0.8242277963847999 0.9303601066692042
P 2.3157146602594008 8.6607879790162 10.403856970485911 1.8885521479490117 -3.004214744775884 -0.2766748685240783
