# total energy = -381170.94887560233 ev
CRYSTAL
PRIMVEC
9.14984682213230 0.00000000000000 0.00000000000000
0.00000000000000 9.14984682213230 0.00000000000000
0.00000000000000 0.00000000000000 13.39172570487750
PRIMCOORD
 96 1
Ni 3.322108149924541 5.4799623177272005 1.717635813840193 0.14394655291870048 0.6494825129176879 -0.1277869124397025
Ni 8.670623765615773 5.428338880939859 11.256040219007227 -0.30976548043046004 -0.39195130720159593 1.1187512630545249
Ni 1.636532484995933 5.719276566074047 12.022997779454734 -0.9197512208051063 -0.16375613144545992 0.08176056630825919
Ni 3.548813909102129 4.777080220852552 11.029170677568297 -0.4889993957965449 -0.9296509964173215 -2.131843041696006
Ni 4.097539383680937 9.301551465663824 10.246425056118209 0.7338599480235038 -0.9535396301094611 -1.3588735292655498
Ni 0.5319794245950807 0.7982564420884954 2.858785517296403 0.3489159253776765 0.05936882887662032 2.5082815979739834
Ni 7.418933845539295 3.3223643456406067 9.617642995192213 -0.21670465861803326 -0.05821723177068038 -1.224075475615337
Ni 2.8781575733698097 1.1171688694477127 2.74261173987678 0.22101202774413548 -0.5985355895561757 -1.5410976376082104
Ni 6.203724365461245 0.3316846987898181 2.625742574084977 1.0586524979904155 -1.3777721659422657 1.1236834102488196
Ni 2.7705004735399874 7.767167872602289 3.1912882124082325 0.004751655752372461 0.6685197320547971 1.9161174591617904
Ni 8.250490240808194 7.698699567483594 10.529954110134584 0.3555038630078393 -0.43336278026884717 0.5271262845752535
Ni 3.600483095124482 8.459902789151313 7.953251971028179 0.10273485456708113 1.3854181125232978 -0.062004980947886756
Ni 2.6092161204293065 3.7171070450166215 8.824584581185759 -0.13702411476725435 2.224273943233918 0.13282113242950028
Ni 5.0538996920620916 6.644737841128216 6.3542265388643395 -0.056859175080889175 0.2214627421283089 2.9591829013472264
Ni 3.5864289301288497 6.497837047505252 8.752136092621036 -0.10690672655658362 -1.559419832956166 0.5147937311518296
Ni 2.5880616741598397 7.269754740012741 0.1034088258666242 2.481342093270662 0.672552507363274 -2.122028112488113
Ni 1.4961189328976456 8.786927470862828 11.357027080372326 -1.6674100223849155 0.2030721554362632 -0.03879151894590094
Ni 7.179070606372305 5.773699856044112 9.622530843460876 -0.9419326419981519 -0.12326074243457481 -0.39402310212896013
Ni 2.5357519988473207 3.870970872208385 12.992304206359535 -2.8997058290275155 -0.0791239000163605 1.4726720978459606
Ni 8.397839376934275 1.10585965855279 1.0633165299305956 -0.41453227782590546 1.2927617252381414 -1.261327160877944
Ni 3.5528672913241763 0.7858565694308909 4.921834460368762 -0.6222856407879218 0.095114619017662 -0.06409760181085734
Ni 5.321706563974303 2.406492110244916 10.379257044990338 0.2548824552393352 0.017153628961151104 -0.4064042494021323
Ni 1.7686288261690712 5.083170052622656 3.260965212315939 1.6642375381942047 0.0189513442915222 1.7356273027911011
Ni 8.000360873304553 8.973035358890924 4.713633351768756 1.2484973561031274 -0.023454888588830575 -1.0169746586356552
P 1.34224595585888 3.491581616102338 10.83010294624605 -2.767706678278679 3.008245206091516 1.0465192050619914
Ni 1.8071313823550217 2.5662850382942115 4.187217949135813 -0.22477689410320645 0.7763412571161661 1.121246261562237
P 5.753359746157856 0.9051522746477207 8.93916445525757 -0.8214281221524756 -0.49071303605354205 0.7095249708225652
Ni 6.493701316660183 9.052245584390395 0.33811338129367946 0.2114063863335714 -2.424991225284759 0.6164772616362608
P 4.802562544754139 7.790994074196447 13.265106894735034 -0.6219105168366903 -0.40487444302116726 -0.6701361846122975
P 1.461395263523672 8.886862099822654 4.854286629858506 -0.7200513242751856 0.4394367543770691 -0.5186321310613132
P 2.044881006864464 0.3930518076499774 9.385363149220783 0.3673648761114835 -0.4287196250698811 -0.7869416583398318
Ni -0.04309669436583759 7.211332966902643 12.96376674854386 -0.3084950983584687 0.49892719643321815 0.30043854660257935
Ni 5.262616852033031 6.8223455212911155 10.607317896508977 0.595065371619388 -0.05428241549264844 -0.6851007763419298
Ni 8.026456236955298 6.772799099773311 7.73807410408887 1.5604379898080352 -0.7655709059735395 -0.8527387593402992
Ni 0.2184919415235654 4.690211573412102 9.163140815074355 1.6412850431630894 1.1816455885859005 1.5469733796626972
Ni 5.551404323121663 8.630785331767475 4.6071419424470355 -0.6683094158162038 -0.7672315815054142 1.5926454277785151
Ni 6.429176595599508 8.936399371493456 11.263164289883267 -2.5484111190050176 -0.01526618213045113 -1.2449572041603527
Ni 8.399495499241702 1.1019069246477686 10.551541344167262 0.39143657234870655 0.1854431295005903 -0.30746074355668335
Ni 4.596938033069999 0.9069493045989852 1.0348907002483494 -1.465865359336772 -0.39108767364971997 -0.008450958980830607
Ni 1.3148055646987884 9.199896665467554 0.5197826785409287 0.235711024517207 -0.67970274525481 1.1187468921791508
Ni 4.201783590578877 5.394951089228231 13.078278913747852 2.5685875939528926 1.6525446752373087 -0.5618523752025292
Ni 1.9360893260063485 0.7880324030480532 7.021415997567463 0.1603105960990207 -0.3769244947754605 -1.448225534767822
Ni 0.6892771893668317 2.0569405052135803 8.481997839692625 0.7655552222442558 0.9773961250120845 1.4635886474874535
Ni 6.892689545045295 6.319405881112139 1.3812764582168668 0.30006805063703806 -0.0023181066102153625 0.4168948645208111
Ni 6.7598063170299545 4.812773774008777 7.288995953274013 1.8090850056606198 0.9286868327318393 3.6168420365384355
Ni 3.8114877168460124 2.65577969182434 6.267755909768492 -0.7968242075608665 0.6976207631858115 -0.5537492864794206
Ni 4.471530230055589 3.312738706594119 1.169613047511166 -1.232569372018961 1.900539402217875 1.1803664647631606
Ni 5.1918244857757365 0.8554091314193656 6.769236149350591 -0.3326619254126593 -2.3838746577501073 0.10002774004856321
Ni 6.352574076495712 7.862545877754938 8.597930061151384 -1.7535188383595413 1.814284290473372 0.6253915334067552
Ni 2.7940704794180786 2.1983788401761326 10.620200881088305 1.2024542978011357 -2.259757737962824 0.2469871116516585
Ni 5.590419270739746 3.9721773299015397 5.6449340591798345 -1.0785111845875555 0.29995749320110277 -2.577954122769457
Ni 6.973199048819101 1.789554526263479 5.809009115626236 -1.1612870795342065 -0.36779013657436016 -1.594328471907893
Ni 4.272887051634253 2.7375518744844722 12.408826697881045 1.3045245222010242 -0.9255557433020253 -0.9047526905137452
Ni 7.754550233586028 3.596164367339366 4.507105750185483 1.2218082768477152 -0.3786286219507608 1.335683721412648
Ni 6.559424667678169 4.446807343455199 2.8781228039512006 -2.0739348565253124 0.49578890791455266 -0.5945727482536857
Ni 6.3298275568478335 2.278247854659773 1.5918208426341782 2.9876933500820932 1.374197046996498 0.15508380048244258
P 2.667152951648279 1.8277368378043466 0.48435172599367227 1.1573347797546778 -0.5722290904511629 0.3979070105643986
Ni 1.5474770241219185 5.800664455160081 7.469315648088414 0.6042583509725659 0.9286654925756006 0.6893932330696966
P 0.73872296256761 5.134171299813837 0.9494055096746573 0.824385919229219 -0.5106007761164045 -1.4462056761243158
Ni 2.971513462334936 5.0550525727843905 5.360185330558046 1.156477573960705 1.150702876260457 -2.1882255342507926
P 6.357030051985863 4.477322083208086 0.08629495203340143 0.22963473641613996 -0.5607491148360214 0.8537607728469103
P 3.8396875453073003 4.85670218946713 7.2207920787336874 0.4723257917956059 -0.20529770233267225 1.2328699339785154
P 4.063794747936217 4.369857130165314 3.3430832591927615 0.027204071218617662 -0.6358114431884985 0.8069733801797264
Ni 3.0964454733052222 7.7957885940256855 5.727132624710277 -0.24973510671044086 -1.100692348670285 0.2463037124313887
Ni 6.44783313363733 1.9190065616529337 12.646583642268089 0.051752964202575386 0.6682525944363394 -0.326542956999115
Ni 3.1471996746273385 7.1727663617876765 11.100977761858154 0.17818310550406732 0.3378666095420504 0.38463754714900206
Ni 0.9795277209911418 1.8458352351750238 12.554020130053367 -0.9591672607088835 1.0790354325221418 -1.4903330054608332
Ni 6.653475945015475 6.5739820742589306 12.514741666841617 -0.09099519753264973 0.6442174078640066 -0.5362917531246054
Ni -0.05074779642921488 1.998710878890532 6.144029848633117 1.6720128112642496 0.6100608165869558 0.1430860046906181
Ni 4.7818838905287935 2.3265041477502444 3.4523196226151915 0.14212235522576816 0.5253113428537017 0.9047148952972741
Ni 0.10932877687715412 8.81359012502772 8.736025042019273 0.8121338413347433 -0.4451566875799817 -0.13999476735980407
Ni 4.941265075462984 6.191701466500136 4.226897175646267 -0.4698518763338166 -0.3906945519763594 -1.9499567763087384
Ni 1.7304739641692106 3.7431109101973417 6.5609545220969645 -1.8200155365301947 -2.8758020258267245 0.8655549372683609
Ni 9.364502413040093 6.982001201635376 3.9602413544869552 -0.3200810034238552 1.3068467425762975 -0.4384237397315223
Ni 3.473135524545571 0.3317130633155254 12.351764592035499 0.32565926884258106 -0.26271532102019274 1.5706478404615014
Ni 5.044823043835746 4.63637387365019 9.074046009858229 0.04913480985343796 -0.3274623834895909 -0.008728895232565613
Ni 4.724056857473849 7.579019568692665 2.1005587408585527 1.008182771375638 0.031505783917765096 -0.7909062994145347
Ni 5.945698679994562 2.9045274324306245 7.629547768793823 -1.2261071613333852 -2.297149548347721 1.5342834428998544
Ni 8.894950564572744 4.698702631430297 2.8057941783822087 -1.7654143042455466 0.05549237664034959 -0.12796637544036024
Ni 7.709807481744465 1.1585261778984008 8.192977962490131 -1.3601439113375413 0.3483662235217936 -1.4168166814392373
Ni 0.6185479570538529 7.784570881600786 6.702344362870404 0.5206949271276129 0.5927552354289727 -1.9423293416704674
Ni 1.3155284026119751 7.007135831350872 9.661969428995167 -0.22997437914374588 -0.8049627775076008 -0.34413830148337504
Ni 8.586975864320154 8.16058384416296 1.9203872735655907 -1.761346561934076 -1.184185838509251 0.29355210389539116
Ni 1.3486325490665305 2.908214820772577 1.7479282123109214 0.11906958717136268 0.321044395778389 0.49334378880816965
Ni 0.5135598675946206 5.387805058719383 5.414127338575787 -0.9188778170612174 -1.0469966589190418 0.42785676284895346
Ni 5.924818729135166 4.576195329915638 11.323333683770818 1.0020578894248224 -0.686287083340547 0.5738720253712246
Ni 7.098698350303535 5.852104895007374 5.553722894352063 1.9831376339360811 2.0803207054469977 -3.853090678726667
Ni 1.3673073867983567 6.971286730795607 1.7663816237452905 -2.293775746779482 -0.5450630715593322 0.8888882126776626
P 8.634545918885447 3.6727577365961603 7.635560133259077 -1.1892051461007132 -1.3660862449639053 -2.7607248476442066
Ni 3.660158397273904 1.7844123122481501 8.407566579282488 0.7646327104299863 -0.821442777440495 0.2794604016890155
P 6.795472420645171 7.093153543020102 3.4240630651024895 0.8078598965497377 0.38193737460901966 -0.16484525074458062
Ni 8.520785871105048 3.4554031210549883 0.664212098488554 -1.742996855782295 0.8815011761849721 -0.28002398750196933
P 7.631365843393193 1.7369154564588754 3.43280848886735 0.5366329385141081 0.17890995636776286 0.1305207664310978
P 8.104632529743501 0.1285077711788106 12.404354252666288 2.844441509237572 -0.21721553681618075 0.5590673562582243
P 7.0265518066898895 8.517629173889231 6.520645786112747 -0.48722816282873505 -0.38332397054390116 0.8134235066804443
Ni 8.14112211958893 3.1103806902898237 11.755002420694273 1.01259375595914 1.187280675384491 -0.10964649408524986
