# total energy = -340870.02967764094 ev
CRYSTAL
PRIMVEC
9.24653658292928 0.00000000000000 0.00000000000000

0.00000000000000 9.24653658292928 0.00000000000000

0.00000000000000 0.00000000000000 13.53324094335897

PRIMCOORD
 96 1
Ni 9.200368716728356 6.124711715814875 4.324398080168881 -0.49341912213079536 1.6209607297834407 0.5807065317945547
Ni 6.751016630914847 1.8273653033404536 1.25852946297886 0.5653896989318263 0.9178578604371355 0.579049455807106
Ni 8.603911622013163 1.9056742224354675 8.837950711777468 0.37117190856239946 0.9975995965431528 0.44628643030905074
Ni 6.309734914668486 6.524892576543781 13.397651883274037 0.7135847427142356 2.0513153193535834 -0.25760371082524025
Ni 8.26275140487659 6.33290673557439 2.28598057723654 -1.9070198677358965 0.32804730945878335 -0.7759008271446379
Ni 7.623131476965564 8.207642046297504 4.957524165373516 0.8829841884884019 0.25118340912119325 -0.11668694587179904
Ni 5.122451866072776 0.12004501168199742 6.029884783604814 -0.015122714574051375 -0.5526894777563385 0.3567960994567016
Ni 1.3952653980117145 7.118982557870342 6.631680828595773 0.16491287075772243 1.4780305339443964 -1.29583805017062
Ni 4.398198387981484 1.7016031580327096 1.86747862874109 -0.39164483170477066 -0.6908430781423458 0.27010081485098647
Ni 1.202706271768514 3.4009686541902284 9.212808082516348 1.0900574946642583 -1.3686342081967398 2.241886256999042
Ni 5.849682728973206 6.92320563686447 5.903402333090138 -0.5203084903224716 -0.7691601659866947 -1.393867785952548
Ni 6.235882826250505 4.709704962003438 6.545271018720366 0.961459656287486 -0.8944286828799175 -0.17754392925817164
Ni 8.273828755812454 6.240838969907953 11.380657681162482 -2.570807227312031 -0.26207820165682605 1.4045265512179745
Ni 4.448018727582847 5.528180648806288 4.159861507970945 0.600775534630288 0.7153132953695681 -0.418956117925214
Ni 2.9350819038534386 3.094076101968772 3.647817895863168 1.6388478944765064 0.864091722459273 0.8328649032345076
Ni 3.8580711946863917 6.905184136886174 9.525128351765645 -0.18432778494922447 -0.11533197450580136 0.24320861844583275
Ni 0.6375542516179787 3.2459042341614905 3.4708706221409287 0.8536319605785299 0.7042899476758709 1.045907282509605
Ni 8.693002002870461 5.005649614802471 8.95965547679251 -1.2806389738326782 -0.11354762891186895 -0.7530897427873933
Ni 2.4227035671180506 5.3466064081322076 5.378948944111725 -2.4043732919240917 -0.34689221007942844 -1.4993223534436373
Ni 0.26411807356594347 8.30690361749658 1.8766955764980753 1.033440517501162 -1.3060257893368992 0.9988285838542474
Ni 2.5769912780661435 0.17637121448742737 6.347617975423271 0.584727994249122 -0.954019655069673 -0.3028659250971493
Ni 5.352006385550024 3.570032330743922 3.132864398663975 -0.011187384075387184 -1.9721824204761584 0.4551112276895323
Ni 4.782567670997263 2.60555382985319 11.72951748938778 1.1148434433596863 0.4686272598980961 1.743532673681107
Ni 3.425638414037376 4.523960533289228 10.718123910718763 -1.0606101359374185 1.0085581524371854 -0.9959468914310784
P 7.71843553046802 1.1044248334569187 5.373766260305756 0.1762385801831868 0.20245226246407713 1.3374464697400257
P 4.011258567770238 3.942519814133169 5.478716300866888 0.8245512411624896 -2.0778048810036798 0.6930287729397548
P 5.986531471753488 6.26516660789815 10.994351248713427 0.11740582631569457 -0.22576111239334667 -0.3691422797268804
P 3.1156297789566665 8.904849404616341 1.2395897819088024 0.2822269086905591 0.7280292002743397 0.3785980258231415
P 6.556432513139965 8.19404963738622 7.32094171329668 1.0352030087182236 1.3138380862924663 1.58937961254305
P 0.3330621003171824 4.582047276677453 10.80487214383645 1.1698984753523012 -0.30131709255279077 2.016407194622489
P 6.987126944894205 3.372822196553527 8.30911261510808 0.05339692756390159 0.22796120536845904 0.2239220023020789
P 0.10547709315156947 7.050391748820062 8.436216432887273 0.021606522526182143 1.0747581453030266 -0.9226809928573916
Ni 0.32535048873078004 8.419850062973685 12.135365552444389 -1.098726997413798 1.156509198529589 -0.7463112864129792
Ni 8.57707817258422 5.9501463499399465 6.6950297760053665 -1.040882575601504 -0.4699974007727454 -0.17898194725627886
Ni 5.798077807793696 8.40789429105376 9.759712987193735 0.6054351448894865 0.6999604670625815 1.3707839075498909
Ni 7.8766160333560125 8.815638818782277 0.2941425028012038 -1.0068218864723693 0.43779330523637505 0.19110084200699992
Ni 9.192925254705509 0.05441679298217806 6.9495360746983295 -0.33101590516880414 0.2524833588795394 -0.2619082517378651
Ni 6.559040036482131 1.4386963807711053 10.18304625110153 -0.06817794252781807 0.5269432220301699 0.15869234376930735
Ni 1.6445612732886854 2.138446536675387 5.62433353437545 -0.8837231235369554 0.5866830610929638 -0.9633296196166892
Ni 0.8503457247583096 6.9525818838788584 10.39668193304023 1.4725162889943866 -0.5530951978351893 -1.0406678884875367
Ni 2.132732177010643 2.935969571374175 1.3498232935256538 0.9456882523858424 0.9238161349030993 0.34361302510752434
Ni 7.772980850309972 4.777602280803141 0.12712046154520495 0.8372722882735837 0.10749396651862131 -0.5752110558976222
Ni 4.217539554438164 8.30937244278863 12.853994362276678 0.6495758439624426 -1.2677631463112748 -0.3470891565815829
Ni 4.005285305078612 5.707027161161436 6.901519734402132 1.2526769414021137 -1.101985870670728 1.5708393876470172
Ni 1.454017892040492 3.9359455265577115 7.163820863511567 1.504516496050067 0.6201063737484159 -1.7494158719347614
Ni 1.2522214756596226 5.585925270337563 12.63476914891834 -0.7068744205735955 -1.3161276536575914 -1.2700879377897094
Ni 5.478878115258689 5.5599240092093085 1.9733903091163536 1.446964151556895 0.15875533579675885 -1.520206138871182
Ni 8.514432886615543 1.5478979788951002 12.171458483699022 -1.1708068460991836 -1.6036446071024963 -0.9221603444672313
Ni 3.446618805751461 2.298605798411688 10.011675563647588 -2.0558512595507237 -0.21019899628903155 -1.4163052890204575
Ni 5.604945396276687 7.6082168133098484 3.446822229558297 0.6192393977624303 0.32196845025455517 0.3110317487373934
Ni 5.677262559606725 2.4323939375527623 5.42345992235468 -1.1784512500183189 -0.5419618069261892 -0.5871162919756404
Ni 6.73352218352699 1.1886607825601865 7.527486226259823 0.3812017819945757 -0.4382141948238776 -0.18002890046355446
Ni 1.0766574838238656 0.74958991323266 10.017765332701309 0.9729190630773372 2.665716929407738 2.2808371843409425
Ni 2.237282767187443 1.011663577539906 2.944007585705182 0.5199045700158336 -1.445926454321 0.881634873549359
Ni 6.192969649544878 0.9503775324623583 12.760642252666177 -1.9766000899278797 0.3284170340933763 0.007289848793193897
Ni 2.04356782385995 5.788008329355336 8.339575330181704 0.20036246981458397 -0.19609315301526875 1.8316580058651293
P 4.402377822558288 0.5773546745996663 10.87394562210113 0.15617343400219555 -1.056458318552574 0.4808844799988944
P 3.8141778850932835 7.7597952890123585 7.128296594262407 -0.6132271301300793 1.2433361236171618 1.145398433328408
P 1.2764658948197511 8.224775878755063 4.7455389902311875 -0.7712005934554912 0.28344869691280217 -1.1892172302855712
P 4.224677880750757 0.6639540384768964 4.1951962232182805 -1.3062505037531955 0.36411834414972777 -1.0192012339733287
P 0.4179656493683379 4.39831859295825 5.256148464500774 -0.2532418343121187 -1.6868966703546175 1.6908091180351459
P 3.457298555610328 3.990574065229732 8.537783165679262 -0.8588183898754757 1.0868996657615668 0.7719163885755932
P 9.05280323794251 2.604481231598966 1.740117757242352 0.559270730518282 -1.7747530651479693 -2.3960485741084803
P 3.1364714726206366 6.3850202162709895 11.807170829032582 -1.2283476206281296 1.618470616371735 -0.23857626188014394
Ni 9.120432407178656 0.9490830173279503 3.5636540697459598 -0.5042041285614414 -0.8793404210882275 0.16916110451111513
Ni 7.564443708693507 2.8972543223187 4.285341633910122 1.4099387233724816 1.354922772147918 -0.0759123350575983
Ni 1.8262372258661836 7.515131928609233 0.05649911304124018 1.2065251254363996 0.7914094643031983 1.3735969515186537
Ni 1.7822606974430066 6.474656142792074 2.9430607403497295 -0.46599676425378456 0.09385503557894803 0.933506879828302
Ni 3.692271545578741 6.938175779740231 1.973065755679084 0.8932521460733133 1.4702845714503905 -1.1371117678395837
Ni 3.338646997005154 1.222142491857984 13.169088592528277 0.0886377530440667 -0.2802175915700142 0.1764398975607155
Ni 1.0933197429110322 0.8927642117518598 0.8665114448260642 -0.6496750885444682 0.13935559111390838 -0.8875545814679038
Ni 8.697847188087819 3.0276767221103125 6.74373590793747 -2.06341724482344 -0.1761848441271159 -0.8566239533273182
Ni 5.982222585663244 6.526436748168397 8.556743189130003 0.9220490157003475 -2.276781011993698 -0.7052764799588563
Ni 8.486425127028957 8.95065674730104 9.439950180575263 -1.6566895506436177 -2.18286555549046 0.27100327206059777
Ni 7.756300098149457 3.6344714448274207 11.497259282586953 -1.0798669272845014 -0.04719182719445421 -0.9445525961195023
Ni 4.197714979808372 0.6197352507928516 8.55982875841823 0.07136945288192224 -0.7946835070687799 -1.0392923482962488
Ni 0.45539378051874496 3.2538562557014252 13.068915312813111 -0.23945377938909085 1.1603388566883244 0.8736899076706695
Ni 5.56075619751 3.8692595040623474 10.001268586620613 1.1404205204978424 1.2338202137069267 -1.564311099610196
Ni 3.39756592869407 7.574624145571959 4.8334374925111625 0.4131994179470948 0.7497712199371216 0.021055535118718577
Ni 2.0105946740792415 8.527710913279899 8.709831624271434 0.36712113553179354 -1.478553496327402 -1.4496964628863938
Ni 2.577092989969561 8.381486182311834 11.044964941161448 0.9590788147601352 0.8053980652728064 0.4182992010675054
Ni 4.611654687108701 5.253401318454826 12.696927142404279 0.7214836858463382 -1.4870545918198776 0.37635988052124214
Ni 0.7689271953797141 4.951076555350497 1.4819710970606994 -0.05824319991260937 -0.21547515708630632 -0.5180700879102562
Ni 7.619349643465758 3.9725155791047393 2.200559222131621 -0.8275674022809941 0.6751873738829598 0.25439857362438123
Ni 2.7276635931745683 3.3952820341355068 12.590542964004955 -0.24709329821221962 0.2602478333163067 -0.1581326146110954
Ni 5.542522027188194 8.774075636431103 1.2685157225871506 0.2068164529700438 0.02216522324312957 0.4216647751056286
Ni 6.273451504758362 0.9465217266691571 3.518304430626643 -0.025571934931833382 -0.3469186924419896 0.046014776167217525
Ni 4.937086545362216 2.867073626613643 7.490675763759263 -0.6263140452210246 -4.653696721927469e-05 1.2009787416968736
P 7.5760018795364354 8.611530768232821 2.6835742570039645 -1.0337354230337616 -0.36045195104173405 -0.6176234594255622
P 6.156621513878034 3.375734855605945 13.197886931000518 0.3182508921936519 -0.3487935408671993 0.4100436459269325
P 7.279687365270428 8.975733354761859 11.536533022457558 1.505646238779136 -0.8845109095455735 -1.4094594697432177
P 1.6621111998965892 1.495248199071389 7.79078875529109 -0.7571849959026895 0.34983612319910073 0.8592212817408492
P 1.3613306084168744 1.3747011004479748 12.297521141448682 0.7514630058172478 -0.1507059831297211 -1.697399112547838
P 3.335382969559111 4.764786580972501 2.2674264767458023 -0.9364106837386583 -0.19163126058917318 -0.480397770170463
P 8.742350769101431 6.861179868852974 13.60618532627583 0.8864711185957378 -0.8452460505076799 0.26910605503788493
P 6.753670386940384 5.110754997179732 3.848501953882114 0.3181076817475683 1.1180580936422424 0.8741059121621656
