# total energy = -340873.00825571927 ev
CRYSTAL
PRIMVEC
9.19709492072531 0.00000000000000 0.00000000000000
0.00000000000000 9.19709492072531 0.00000000000000
0.00000000000000 0.00000000000000 13.46087807308270
PRIMCOORD
 96 1
Ni 6.6552571522845705 1.2804471736954102 7.431455191913065 0.7845890989472553 0.579203721996783 0.9235338277759901
Ni 6.693333126075531 1.180677085848949 10.462925349013108 1.2490511717240684 -3.1962920917635405 0.49193970937179143
Ni 0.7577836157820538 8.546796114039553 13.028541485037811 0.8796510103501108 -0.9601149693341334 -1.6270033364330945
Ni 7.535842221509057 6.263065425142551 1.3460003888626697 -0.5627602317287792 -1.4810279260098236 -1.0959568908678288
Ni 1.0016464322704828 7.25077825830837 1.6757990227201767 -1.3467091259888742 -0.8737924946868049 0.1794349756332974
Ni 4.6552292565107045 0.13983355389254923 10.493333704603701 0.1965587797977776 -2.0577261079759337 -0.34094499135705797
Ni 5.145278075714518 7.359910988985556 0.3610963485460677 0.22858135545096117 0.21297964435796224 0.7593922879666535
Ni 4.999274190706907 0.8051339402906008 5.924146032055939 -0.6208509652239242 -0.5294235652498624 -0.10517277458461242
Ni 7.017153648105955 7.101224294584983 10.463584780733111 1.2972066483833724 0.6421715810785714 -0.9050211136837832
Ni 1.666596409344516 1.7055645013619805 13.328032931351029 0.10695737728886096 -1.1847566234110563 -0.1832144972803877
Ni 5.877192102347003 0.9578682595059959 2.3909081171519744 -0.05319998106174709 -1.0478253254679244 0.12352119518481307
Ni 0.36825720680540164 1.0961833729944659 9.676607745625628 -0.49438945646386473 -0.2627973392110377 1.5435736099525288
Ni 5.322984347595907 8.116188120587184 3.9382356772891076 2.385211117173344 -0.5334938786644942 0.1125407849139094
Ni 2.3626969475852126 5.555560488954804 9.880782337548808 -0.8415323491015184 1.2496237563980868 1.2661034992206646
Ni 4.512039682609381 4.585193377182644 11.228660773234694 -0.9312319677511962 -2.7884806776012363 -0.5868010747280669
Ni 7.001702528306725 3.270781331214282 12.539925573253475 0.46649941492181596 1.0194552589656636 -0.3821186373818903
Ni 6.606365394634148 0.983840856120893 13.050805812900894 -2.120748474444741 -1.1061723979482498 0.8889925994660108
Ni 1.6122323800985325 6.287207799828849 12.702250623258534 0.11867672260831819 -0.9123785824901189 1.4864125873605045
Ni 3.9710113651632253 6.657767959251945 11.539836209186568 0.0472789875916218 3.41596560320191 -0.8674840359702738
Ni 1.6801621246444358 4.881045532957436 1.5338133485698775 0.7208817905962811 0.7716837037394968 -1.862099353074122
Ni 7.812279309488507 3.382010999578506 8.197634835828879 1.1136959600188046 -0.8862245498025706 0.23720046457853985
Ni 2.7427117207902194 8.034490324648752 0.45797027113968464 2.752891467642717 0.6039120233767407 -0.17647563589465734
Ni 8.767581579456417 1.1457649127787828 5.602229308715063 0.14970222445555506 -0.4981862045021355 0.5543694365619227
Ni 5.994694189582105 5.433055181975189 3.5266831452129455 0.7111802470378009 0.29560924353473605 1.005197720605385
P 8.810228509521316 4.838095098753623 -0.05210798181339351 0.08185029780858806 0.6907836856593199 -0.0965238406603628
P 8.243852997928327 4.141359960949743 4.588571470219702 -0.5333506682184104 0.44530709711491695 0.7176547990185511
P 0.1359119125339826 1.8496829818702805 7.69084638379972 -2.4185488120935252 0.5350643084754075 -1.3458544912980628
P 4.027591894332789 8.756940540404209 2.2284754611340265 -0.01153653988468981 -0.13795793943543339 -0.4165289965409601
P 8.028576592487498 2.7647663548845975 10.481177903985461 -0.10495294526432246 0.7510606281725064 0.016077622288152953
P 4.555054496479026 1.9529479658618054 8.146496227840984 0.7781592841615115 0.4927943440626029 -1.1782221647266484
P 9.0979136448308 0.7319673697841725 0.7119581696441688 -1.3194729159807406 2.0585198075218223 2.344649136590581
P 1.5015453403463055 0.8741360661273316 4.43208841503397 0.4463792471331732 0.18280260655394967 0.2941488569391257
Ni 5.737764140349182 4.809243811366606 1.4083980806947414 -0.7412099606306718 -0.10889701751373504 -2.221387365714742
Ni 5.859000248202432 5.949085794889018 6.075392261281146 -0.39019061575674735 0.10746619860447944 0.477092874166946
Ni 3.9361819659491264 1.2520557410643236 0.4701922908427784 0.5890572177520952 -1.571094441080617 1.7537600078360698
Ni 8.563093366589694 0.9910881670743417 12.017522293131973 0.9719836957472616 0.6351529836688933 -0.7126866563799984
Ni 5.762577902979138 4.0013433848643345 7.769066758073814 -1.5696602797372514 0.5907562027210729 -1.544377851021379
Ni 8.268206905802352 6.951615148290885 12.792774871382278 -0.6151680559065341 -0.019116666224792883 -0.7432048795735136
Ni 3.2473563299472343 1.7787549843157169 9.87263922953081 0.036412991411395354 -0.6782703836836577 3.7620304322840368
Ni 2.284300908794354 4.075619125042064 4.329596906741918 1.0916320382402296 -0.3433428021652732 -0.6753930621358627
Ni 0.5030176430305369 3.712306276572417 9.479702537684185 1.792056075202791 0.44022068373094503 -0.07130208997909655
Ni 9.029091782058394 5.138665364324251 2.6628312708472204 -1.704475045558013 -0.4302669149523429 1.905497260443783
Ni 0.20681599764123781 5.8164268948984805 11.052592503993925 -1.0045945398037472 -0.33107221232803624 -1.4352396640311154
Ni 6.083308201049715 8.427951250917138 8.604166673679803 -1.2313190445516278 -0.6206308787933181 -0.04706481469828668
Ni 0.3713170803513564 2.7296334515315843 3.547951427674684 0.9412258457391145 -0.4047967957056964 0.3935194230196642
Ni 8.3436782683455 8.468712776482727 8.6505126754014 -0.33184225772484144 0.7589860536671703 0.17883719414829843
Ni 3.5676267732618823 6.0855982777342446 2.2018903379842314 0.6572534151123584 0.8789961503749313 -0.15474235798262384
Ni 2.8935716720204456 2.21826576584288 5.985594583671771 0.06871813130200424 -0.6471870320152918 -0.3528234879621988
Ni 2.006235934978914 7.921016565075592 10.925777438241738 -0.5170663292360902 0.5198539192835563 0.5881825284566257
Ni 3.1272146764130975 3.4886605145736715 0.06622184398238122 0.36853215694670727 1.3486587935160772 0.2406190033417856
Ni 0.745580909978709 3.456397104897659 6.047999633179938 -0.5770517086507868 -0.38733823390961675 0.9294098269407929
Ni 8.443485144572435 0.5819250403099888 3.08003725729278 -0.180039956207148 0.29452552355225403 -0.08941885418446535
Ni 3.510926681855777 4.461244126269411 6.778857833292809 0.728673775836874 -0.9869719416259777 -2.482761599326008
Ni 3.25645225701952 3.7562867854295123 8.8927135768019 0.7885892212455837 -0.7501229468495856 -0.20717640741262386
Ni 8.976199288031387 6.20776329219447 8.521584117190962 0.6477583311377296 -0.43344274157716317 1.5566312144674352
Ni 2.0395937989740385 8.716841205687157 6.310311822476258 -1.4818432228222675 0.521978678936043 -0.020174160955029774
P 7.35290280250519 7.312978212595391 3.083052984782166 -0.3536827506387006 1.3849080056560987 0.6185112613471542
P 5.928180797684464 8.104544598167049 11.896912507456301 -0.24087585654759805 0.8265394752371119 1.272258463078467
P 4.572648539440888 3.9190109893627194 4.650235233861309 0.36442713363939816 -0.559220851116953 0.9725313407206153
P 5.900405570426322 2.663092468348588 0.9549996855385077 0.575984443728537 -0.4175834059474034 -1.1649874112039291
P 4.17418439342799 7.6877322473925656 6.132789492497239 1.440340218482474 0.6025223421180655 -1.0262617403645358
P 6.743319338045066 6.28772283715549 8.09430915100957 -0.08785125258702935 -0.05819254918033204 0.5865709609951317
P 6.758650895607755 0.8956830205711637 4.692704659990421 0.10611945476859788 0.2741659860592956 -0.7948172044331666
P 3.531013137594777 7.5618700006946655 9.367869539880182 0.9452573354960108 -0.029969035558264516 0.9391116276095891
Ni 4.627334467016022 3.052046818008864 2.596831996566709 -1.6892376597829681 1.727155517874664 0.006664813614685296
Ni 7.201766938421406 2.965621715179477 2.9278216542420736 -0.20817630943204793 0.34143478650928294 0.03291243445730461
Ni 1.0530489968882804 5.917824868580932 5.888475098638488 1.6920717867976536 1.098632895038095 0.002044027013222286
Ni 2.0538768876932085 1.4784698286937643 8.154425043542721 0.1859655776629636 0.054342579306622535 -2.038508140286586
Ni 7.089166902884512 4.84300634754695 10.276747632817985 0.4302903119911106 -0.6727651375947123 -0.3314059415183712
Ni 8.252047609678991 5.213640083730995 6.679193512040212 -2.2798151708343317 -2.215196920633314 -0.2646058531746862
Ni 6.909372890411203 8.190850138759895 6.143316487569978 0.3445638190565679 1.0015925197526299 0.1959787389245915
Ni 0.7778755897781248 7.975656507175134 3.905565756008853 -0.9542312568598469 0.14464460742698962 1.1099640037801979
Ni 0.45624489609543717 3.200166034893751 11.883236427014957 -0.690729692492933 1.0666915662448082 1.159766529124622
Ni 9.248782793156145 3.039649133789005 1.2196838056659116 -0.3364239635582528 -0.4477198203214676 -1.027923958558307
Ni 3.926414650933184 1.4141545425294666 3.9065084582585086 -1.2119828061168612 -0.697637732466676 -0.17279895837401854
Ni 3.9057763694870693 5.970947289985906 4.704348182410556 -1.4475866156322423 0.5534857484053887 -0.32663166005817945
Ni 6.039759955663194 5.698363784861145 12.340974011648141 1.7467146709535144 0.42042756026441785 0.9388504035284024
Ni 3.086361179896322 6.502143912750289 7.562133037615058 -0.06555978817868065 1.5578069799430911 -0.49521786590243094
Ni 1.5094824334336485 8.040873108661053 8.629244392939661 -0.2866049831535967 0.7739778990903121 -0.6262281703754377
Ni 4.758393072455924 5.673071773285023 9.128239226565327 1.26938988328142 0.9712457891399725 0.19424632961451707
Ni 1.8281249909123063 0.40688684572250194 2.2266038522773934 0.08090053230080906 0.845206455518996 0.13108666623689683
Ni 5.820951865696827 2.9774491795019835 9.767348125484657 -2.2479476327017736 0.7722555170825668 0.15297755277271718
Ni 7.5163351827625275 8.575334700192537 1.2153620906696863 -0.38242074200334136 -0.036621507877775634 -0.08940805555118796
Ni 6.472308536185584 3.1014444158908097 5.611665528306736 0.12099971431454001 -0.012558553391300952 -0.7316793954324173
Ni 8.093563266595453 6.515553277433193 4.892356120534278 0.19486056615974826 0.10279193305726168 -1.3764279932095456
Ni 4.630231551978378 2.3798679241716196 12.063343140722301 0.6774800265718783 -0.6976714139180887 -1.288286205965291
Ni 3.1401917776254273 8.386932206688227 4.348913565619492 -1.2217812802645216 -0.06948663403691258 -1.4124540335951674
Ni 3.758153795738586 -0.06589626681518314 7.800942050335822 1.0540800481283847 -0.8496529213261237 1.024700566525003
P 1.6502991567943752 4.924327062585519 7.89954318739271 -1.4345061282992004 -0.5856854730663849 -0.8787184712335124
P 2.2603608702006652 2.989432994441506 2.120963258616737 0.5406659709329011 -1.9080267117338559 0.027594878899133125
P 3.6015640542494785 5.607101009999379 -0.1872491777764383 0.6918180404611053 -0.21843809636937223 2.360741928387386
P 2.396873353045892 3.4844850333898316 11.139414921332435 1.6105837574244908 0.10005833617618252 -0.540455654694308
P 0.051626054029179407 7.920565907414782 6.684039461458196 -0.7479354522799635 -0.6430195309011636 -0.21505478171943607
P 1.5767683813212507 5.997278573310428 3.695576760551702 1.3680199716515085 0.8655829622928188 -0.8395325450626703
P 8.980282798264039 8.275785312180071 10.93739428908603 -0.09581781573227369 -0.3395756218133571 -0.623915463081861
P 3.172528764062389 0.2632677674791412 11.991314250882041 -0.9505149843505242 1.099222706103294 1.735658670249669
