# total energy = -340874.2771773799 ev
CRYSTAL
PRIMVEC
9.19683191932411 0.00000000000000 0.00000000000000

0.00000000000000 9.19683191932411 0.00000000000000

0.00000000000000 0.00000000000000 13.46049314394747

PRIMCOORD
 96 1
Ni 8.145496254003152 0.6108876175243221 1.199998975960787 -0.20174546620503964 0.5629232396692048 1.4357212316532242
Ni 6.259308758189448 2.9574712881905687 11.80335872988572 0.4010293582434642 0.46757182205038833 1.882442435506848
Ni 5.88051883376527 2.979865574396723 3.512421933409728 -0.05511211048279541 0.6646417371566296 0.7232500337181414
Ni 1.3423972063691518 8.391217214518974 8.13424392990737 -1.2267915889949195 1.7052016393113925 -0.18133476375917157
Ni 0.8490331474249456 7.5746120971403945 4.525282849760065 0.8797168305910398 1.4089411353459027 1.366238968491686
Ni 4.7910437074599574 9.330094214899944 0.5693859929108143 0.026687022372883073 -0.3157378959638111 -0.4772042029338298
Ni 6.774368144098877 -0.44762913250700515 12.974555986704077 1.418919329604537 2.4622681073583466 -1.3026581584162469
Ni 5.495346307851536 6.999616956321106 12.53570339108682 -4.2288180678702325 0.2677387423767131 -0.19478394728554196
Ni 4.559209963441585 6.493450907069317 1.4738300538438007 -0.1748231878928989 0.2802538441245883 -0.7048453059587088
Ni 3.404428132269783 8.350833924690956 7.020764152092125 -0.09504828455610083 0.11133313775905343 -0.3953222805563579
Ni 0.7775323761273087 2.3154864222272855 1.1931933201938245 0.4543162425920627 0.282004765377424 -0.27004964989807684
Ni 2.549251500990336 1.916509451305158 5.960522076355551 -1.3256289082798074 -0.6891587484613872 0.8075688476718802
Ni 8.014432199496415 6.129633425332457 8.352976786574338 0.16954342755119833 0.1437948578321846 0.22379653246780812
Ni 8.618323786828942 1.7661320493516357 12.451118286735591 -0.5047885403100015 -0.0663437175325567 0.13247454772335895
Ni 3.738061610996952 1.7945318669305284 3.9233566254510515 0.01736780185448622 -1.5989109490722526 0.09623073489997619
Ni 0.6134259431887568 1.1040429083794605 10.136599371247067 0.8223015258963645 1.447194008179514 -0.24129494636288765
Ni 2.6339267342963164 7.890008257778526 0.839949436342474 -0.680482560843628 -1.2007188031672675 -2.220354553574854
Ni 3.1991088552462137 -0.09452320113741748 9.337544568598345 1.4176985698235585 0.9912739114354412 -1.3732670789830608
Ni 6.860726397682362 7.563897787723487 1.5222605717746458 -0.23819265328848008 1.3818885021034846 1.1309326356120653
Ni 3.1281369017953335 4.266300057330783 0.4118019533100054 -0.06037155910952182 0.4619835293293334 -0.0904552658687797
Ni 2.59709342166566 6.255538057021266 2.8015859034818646 0.49192685385598506 0.027914467022080957 -0.5397383169123092
Ni 8.649832133663557 5.811027570285312 5.795738756573151 0.08001838680617188 0.6519973089197417 0.6822892750350636
Ni 4.792533594262995 1.9727388828716577 10.2176317393513 -0.24339708030755502 0.30992720281930497 -1.0455596693621994
Ni 7.421999864982315 6.400443343864866 13.052277495246004 3.461112117831562 -1.3428781822785585 -0.4116259028123879
P 8.369797792517277 9.003845792363142 3.453477597002137 0.11992087942806445 -0.5909204962130792 -0.7107567863471372
P 5.452121196899205 9.060663821185164 11.268142647024328 -0.4427737891701019 -0.20407180034537115 0.34911132921793425
P 2.751581807575713 0.8174190370209806 0.9547268208522994 -0.4025208551873261 0.960277720164243 0.48265828406986555
P 5.421606107933284 7.291919871512153 3.4006454752198483 -0.5389289336371363 1.7621225208681524 -1.7200461605233928
P 2.3780156837942847 6.832308186439234 9.247009113867085 0.35999789422345096 1.6580105834478864 -0.10571424891037923
P 5.367491947753813 7.513416376230436 7.282463688728922 0.6007868474841975 0.05417982847651315 -0.0953897270559196
P 2.311651343234281 4.750430496829002 5.4462904053367 0.598320388221576 1.1137044446592368 0.4144548876207507
P 7.1701814047725785 5.11740249198217 11.268451660583477 -0.3024949149109758 -0.6208327103914791 0.04661924252043584
Ni 5.925491342819929 0.6867265345317917 2.8023400437155015 1.050815775554816 -0.5795580200124084 -0.10667121350700984
Ni 6.8604504927188374 3.5087110116503095 9.504346593030542 1.0505532659220487 0.9754968511068427 0.07783500600160789
Ni 1.2320444177910637 6.036046461704602 13.441204168030108 -0.15147885674000364 0.13649729572950683 -0.25810121928694907
Ni 6.948786065207589 7.309770922652254 10.496291154096008 0.20768600005919072 -0.5192461104962283 0.6008040738753782
Ni 9.055890665316172 8.141560009856855 -0.23437390904922983 0.46986216074646175 -0.6998565944948656 -0.7628987584580151
Ni 5.567697786120043 5.868314637545325 8.85073233285466 0.34759232147024655 0.20044345956416446 -0.004501744525095473
Ni 4.09980980550737 7.290567937190878 10.505659047290912 0.9932950556305279 -0.6120860745471006 0.5876194568643041
Ni 0.7325975740843318 7.510776885412708 2.1568153170701865 -1.6012982183575066 -0.9988013301607377 -0.9979428388151845
Ni 8.368252724721534 1.8909514548505777 3.799089949562372 0.413655531647907 -0.4085567769687609 -0.47234970305500584
Ni 9.274177475625441 1.8826007312878723 7.6724277641758825 -0.050050636799488 -0.4183678495219117 1.11143158946466
Ni 0.3517273262351718 0.5283092619411358 5.824248016454242 0.0692061266820163 -0.6483802809924446 -1.0257215515903497
Ni 5.84511103011283 8.885556137667637 9.165263071590532 -0.6941217488936174 0.4454017137112523 -2.2728330830895436
Ni 5.87600318919557 4.698735103496438 0.14321123036755312 -0.8578082034434065 -1.3569552291969145 -0.5258229923827976
Ni 4.360300878403925 2.2733557342969397 1.5722122457377283 -0.2808997052387033 0.2145583016989918 -0.24280186992571734
Ni 3.3513532141195914 6.947774413674662 4.874784542622797 -0.6301928114501405 0.00804215357818615 0.5072470291528232
Ni 8.750004029087552 4.0975841721349315 -0.1574405690197756 0.060912519214656395 0.433016452673022 -0.5308194171561245
Ni 0.5902333719548021 5.397777115916797 3.8050255850110175 0.37469483411399346 0.02245832900351616 3.83473737303046
Ni 4.709688530548401 8.979308644273607 5.007869141145752 1.2017117632081562 0.23155252226414316 -0.11988179866001289
Ni 4.336711004022494 3.514799314512106 5.845771362658867 -0.19352204985398286 0.9580858547192469 0.3021218478422732
Ni 2.3295023943743822 3.1687133250978192 10.045162626968288 -0.5441570148052951 -1.3128770079307774 0.32190083024141336
Ni 1.0025282754663063 5.2930895759231 8.91827662697534 -2.7843946804573205 -0.8120135137067951 2.8358565957820385
Ni 7.613579074822314 3.1094765294288913 1.907930646305938 0.1728220983024701 -0.312996585773248 -1.6613409333727
Ni 1.9777235658793522 2.668856302678646 12.450431283376412 -1.811828629844028 0.27081121065444974 1.4726913811196702
Ni 6.5832763663611065 5.287433524170826 2.2675010309709287 -0.79288039242177 -0.8861137352563192 2.18914753184443
P 8.690546509447804 3.947409100487994 7.716914680494737 -0.8174866210062243 1.474848536671989 -0.5142352875451982
P 8.71793467549377 7.855520137337837 6.760209621053959 0.22970647019433987 -0.3962707605125562 -0.1597038157529572
P 2.145988806301445 1.5060088497397814 8.382549200248215 0.20772790904071964 0.8476466895293724 -0.5806476535321613
P 3.3762674323259456 6.21989113573377 12.814052872589171 0.652737786630192 1.0966490318388469 0.37869469930200583
P 3.767978905875235 3.2715063176753083 11.862154077613006 3.002308786002423 0.1941846231386462 -1.291657436430369
P 6.278125476701888 1.8741212520755215 0.4418461644715103 1.1283383925223278 -0.33379861012026385 -0.07976024804877876
P 7.197652342307602 4.456030703915161 4.514151004165022 0.32381321677277786 0.7268593483359547 0.5004076376334866
P 4.492045498487358 4.381306442960335 2.101519363963615 1.673365211527086 0.25369203447565986 -0.9790267186369721
Ni 1.7824196390317584 8.19066189653228 10.910349090324441 -1.3880138982749322 -1.498428380874458 0.8453039003288086
Ni 7.266950472313094 1.2171271560964507 10.51107046330886 0.13442601502277493 -1.121888780242242 -0.19119648704459977
Ni 4.923174594492326 5.294239179937789 4.100577740989183 0.2123157855217182 -0.40260930113607435 0.8318426326175803
Ni 6.743347229366492 4.872389687539396 6.730596741318766 -1.3970711233811939 -1.1885819106944175 0.13086735113723913
Ni 1.251008285617384 0.5328736497210596 2.6676809475340275 0.33960416105844743 0.4504019951393211 1.1064367073532302
Ni 3.6363814351056822 8.678507856205973 2.6526864324496273 0.5955186571067228 0.28056571893805227 2.348415802721865
Ni 0.9380952696509814 4.684627163028167 1.9567382343536015 0.4992755809115724 -1.8615460516738134 -4.1572292998886535
Ni 9.047098493811825 6.122174794485151 10.974367319011268 0.09181923609584187 0.5103233540853017 0.2997273794681677
Ni 4.072863087403045 5.664135767704327 6.8461282660622285 0.3603452502605407 0.4141844075681834 -0.48107319897093276
Ni 5.005743753243395 5.004980416177641 11.222215506795871 -1.056788191088167 0.03385242977307073 -0.5250190084242635
Ni 6.29263807778333 7.097737958182896 5.237787185034046 0.4961663458586294 -0.47388953673830003 2.504750187781957
Ni 2.2180275922779566 5.608678870035699 11.143430844461161 0.1331854577474545 -0.9046357053199066 -0.02295429480332821
Ni 4.382667574113727 1.4610915216778277 7.4513929404298995 0.8025659951406501 0.03654128945914352 0.874128794980301
Ni 7.991201001567568 6.865104089770301 3.617144421365472 -0.9751263551413014 -0.057331743841933513 -0.5944274809250729
Ni 7.664400769103714 2.3483283097189394 5.941286901981766 -1.3817020971242915 1.6174043798907498 0.6119978857086685
Ni 1.6464352793421502 6.397518751251495 7.10743693733403 0.5802481041008974 -0.4049042678178382 -2.607940127608586
Ni 1.72014788876405 3.855164874349297 7.440960973759001 0.6743823614831612 -1.821978573793836 -1.343847488170363
Ni 1.4653036707876506 0.5273261205877733 12.76069561169297 -0.641360912251818 -1.0583632488847707 0.6072094631810897
Ni 3.428165155965095 0.5634163291833338 11.49411708930063 0.46963641788890087 0.8199042293087815 1.4830367289097364
Ni 3.0122108329540307 3.9128841927188347 3.443396029634915 -1.1536491033729743 0.2859755770997139 1.104863192218523
Ni 0.4900440025497823 3.367291324179249 5.382245505836734 0.22635195189981014 0.41857302355418236 0.4580885651503014
Ni 8.386775144606213 8.576818483482587 8.889996368213975 -1.3894876546069812 0.6771218719015112 -0.5400067400823475
Ni 6.87421815039876 0.2794006794133819 6.323658992515715 -0.2541478910661558 -1.7318814625954237 1.3212387496319116
Ni 3.247281861877768 4.933916494405585 8.957325456463106 2.4474567533771268 0.07242463361931398 0.2969765561959079
P 5.455082576841046 1.820687657472747 5.439910562896778 0.7317292748337463 -1.2157330171879126 -0.6119266661511009
P 8.839709929561815 8.614893368449108 10.983627609270394 -0.7305059439496064 -0.8842576558841869 1.8127452281210266
P 2.5630191586702593 -0.12343896099810306 4.9736523272525295 -1.1999078772301979 0.20813260067830605 -0.531612345371065
P 0.3828236549909207 3.3121471188026166 11.2169116937137 -0.5473477538284509 0.4083114937271742 -0.7647170426136765
P 8.359856016998242 5.840135543937253 1.4314161034842352 2.1500377103271617 0.19044109693581396 -0.5738938797480956
P 1.0953702956926419 2.9745406086006807 3.396527133797624 -0.5593818021748496 -1.2178302660365736 -1.5097558900721355
P 5.064005684707865 3.6834324282189 8.424545614429645 -1.6137685829103756 0.49761413404874943 -1.4068726828526479
P 6.8277741482052985 1.6707700971251005 8.35911475232957 0.32476375361150517 -1.8198515001485047 -0.6023212818508531
