# total energy = -381165.4892190544 ev
CRYSTAL
PRIMVEC
9.30088894064415 0.00000000000000 0.00000000000000
0.00000000000000 9.30088894064415 0.00000000000000
0.00000000000000 0.00000000000000 13.61279111289964
PRIMCOORD
 96 1
Ni 0.02153992882257226 4.93544233786752 0.8585222790012788 0.5227996321754416 -1.2184424456992757 -0.04848663474647779
Ni 1.324641911498581 6.886154990258976 2.095893018974717 -1.7829404860547682 -0.2496698006901442 -1.946702531037499
Ni 1.0880179945872028 2.6668811049749275 11.091034819734993 -1.280324270805737 1.3242898777534096 -0.20898389293500783
Ni 7.934532595951233 6.325674118555954 2.1221391976285524 0.9990692391101438 0.6047849128999971 0.45875422375875835
Ni 8.564677126223737 8.181294481866715 8.454114668478342 -0.5396154181811997 -0.3981301823187982 1.0552275314692665
Ni 4.085703818432732 -0.054165587237797005 9.37497987632146 -0.832665899849824 0.5232048380336602 -0.03282758805298218
Ni 8.35962042656 9.057614942048042 5.800151568228 -0.33779641842574726 0.8290427012749401 0.5292361318294047
Ni 3.682008032511524 6.837232314147428 5.134635757109067 1.2239723743785693 0.48738834255568325 -0.02243107531000653
Ni 6.3330683253066535 3.717323508023984 7.657303787956171 -0.863729454023848 1.2899769634041525 1.4351262783817025
Ni 4.369204215876847 3.6390658280234995 2.0262907462725983 -1.0355544785203712 -0.10713864006173161 1.0846836319468545
Ni 5.198071540407773 3.1053808175138937 4.74235588233982 -1.0558206849685752 -0.7195075359565738 0.13384134616389853
Ni 5.7749312776302695 1.47629290655538 2.175228672009675 -0.7549774467284094 -0.8933403349117454 0.7856422228021179
Ni 1.529056849821692 8.175779054692923 6.2994418912356105 -0.2644279328359252 -0.9659256624786396 0.7002605148015038
Ni 1.6220471379896086 3.438185227518333 13.196225937437603 1.347454488795331 0.16515815399930908 0.3000413111641607
Ni 9.090661000645822 5.802313094830343 9.817899371310656 -2.0746689064778594 0.2779401083897471 -1.329891540210903
Ni 6.383060603652578 6.690547993813741 3.748785625225986 -0.5471904023149803 0.9919974198650271 1.922241312671341
Ni 2.746971060107347 1.4244218486325486 12.04244693730305 0.7214569463734607 0.14046296524547422 0.24397043631252177
Ni 8.746453700734016 8.34565979217912 0.8558919875936085 -0.18052075249830846 -0.5346179649666083 0.39156255640360954
Ni 4.6315357899692735 0.15166308621249192 3.756667198560002 -0.41984520539838666 -0.5548898278417669 0.3267049364982761
Ni 4.576055987116541 2.726276582094383 13.344265397297802 -2.715349504833201 1.1682763663678462 1.1308027949024204
Ni 3.1829502317287792 6.59039602111999 10.28283035019445 -0.28959286213732705 0.07210838793047582 -0.04842621382218757
Ni 5.432695766185315 1.6999699859862882 6.703864076587297 -0.9900842620027143 -0.05376922330165578 0.9672652072256697
Ni 2.3676901077969386 8.761614149795198 0.474429976813969 1.218520607235379 -0.3451603149899862 1.9937544902199795
Ni 8.555413440785125 6.788049213144034 6.477946412997591 2.6472288979058796 -1.5676687032285195 -0.5660484155617477
P 6.482394098114804 5.180046417536257 13.35156194471406 0.22949949638985634 -0.3653113360165644 0.5921286575885674
Ni 5.8094747793561785 5.580579901199305 1.7570979063688623 -1.4062504758876169 0.05910760479543368 -0.23142936642271755
P 2.8723935481994003 1.587122299814921 0.7389742323982086 1.0387110218714821 0.9467676014929501 -0.29718558688292046
Ni 8.678073564845786 1.8756358764271202 3.849629584060935 -0.20657656904509583 -0.04144849695277378 -1.0517478004507823
P 3.158507495450995 2.10290309900994 5.167946891043194 0.07232101816191416 -0.8202209892182519 0.7459518461910314
P 0.5057404895253585 6.8546156756783185 13.526486554302023 0.5182505793521784 -0.3579402403634739 -0.4179580156780027
P 2.4953913136926666 8.598950902168804 2.7368107689696557 0.6813870749357684 0.5705131362013206 1.102315486096005
Ni 7.44893318154366 7.429485022655971 11.108759523891985 0.9377309452119785 -0.6233883869337973 -0.3159052747796108
Ni 4.674515198013277 8.474039962971453 11.636608226557485 -0.9755323323304682 -1.616363083110429 -0.6240864414420865
Ni 9.188338936867012 3.981022312798616 7.628498934739924 -3.2089177509473505 1.1246066933940373 0.7059241408451843
Ni 0.17160047186129626 2.109357915972186 6.160659606191727 -0.7735824634241064 -1.122020934944732 0.03538069349213907
Ni 5.551821552428031 0.15488026371572078 -0.14442606448580103 -0.024592087517067325 -0.8099553456261858 1.6513293147729688
Ni 8.24056904742924 0.09957345739828753 12.502015023592561 -1.0081717156320444 0.11856050874542805 -1.0883834493959448
Ni 0.358567872519455 0.6034519089469291 9.96523010342947 -0.7806123736876943 -1.0131486000213454 0.08023975878835858
Ni 6.555061943829541 2.043916861006247 12.88423505682526 2.690666143153908 0.17167384363063984 -1.2849717968800773
Ni 8.03670286155681 1.8842112960801325 8.209833329657716 -0.2857009832820886 -1.2940953564479003 -0.2956202992783296
Ni 6.420068840962053 5.125106066245211 10.121545494317054 2.016479956841953 0.31030566920464625 -0.8952383232654065
Ni 6.754640419875464 1.2081947812863072 4.886366197087563 -0.63698618022289 0.13301062273248704 -0.46569851628707537
Ni 1.1403168934037855 2.6089644692056124 1.5691194990769917 -1.435304970051412 1.0390378090832815 2.381250589863699
Ni 0.7278987337834502 7.636587917898519 10.871106928657804 -1.6362780768668013 -0.08397711434360376 0.35614046815057376
Ni 0.5563075628111485 5.281063372906505 11.92153817064007 0.8674796650948996 0.9990856941703761 2.9044603129933657
Ni 1.797034063533835 2.0187021509419116 8.983530570939429 0.9454509395640556 1.3444699522457104 -0.5937157995700292
Ni 7.12477859830419 6.142474508029503 8.162842448190347 -0.6950373187293514 -0.1754407668722398 -0.16529776490096695
Ni 7.867054646295479 4.417987378653475 11.887832679012572 -1.9186731357041087 0.4409678463096147 0.5313210393828913
Ni 2.5960362335031313 0.9019490598059215 7.1900038726454545 -0.25414943372805265 0.8680337378261567 -0.6329379782954454
Ni 4.3739290674861 7.265631261238269 0.29994994971994754 -0.00091865515952745 0.13224211999757873 -0.40103270067757385
Ni 6.079823719761942 8.970623727281637 7.852565721419705 0.3265851230909601 -0.28992684843797806 -0.7504682460041463
Ni 1.413056162281159 5.768067221552261 8.126673151068184 1.2626402232624125 -0.414309363181822 0.40649140979929993
Ni 0.5557281174267855 0.37828482709908745 2.2382691675261106 1.3349944086551073 -0.20405997327082923 1.4564065279167175
Ni 1.8124177339308882 7.873490861479735 8.751718003904953 -0.2838181644370789 2.571739509318313 0.4715338920219298
Ni 3.5924404714936173 5.007291705350732 6.66126972534767 -0.6264654831972244 -0.34059994931281345 0.48632724828102053
Ni 1.2728452606877063 3.0793755318850184 4.358747226380229 1.1207608372853861 0.7650484578111664 -0.2949219876597243
P 0.3554641658619601 0.3708552769702086 7.444155314867139 1.147440146348785 0.39874570441561 1.2062865270630323
Ni 0.9235429337846625 0.9920793246080013 13.480420181200714 -1.688665589329582 0.550507125393039 -0.6825417573655019
P 1.6262325380371743 4.7897160091002755 10.277453506266676 1.7416305715623877 -0.8221847978128419 -1.774284610151983
Ni 1.3490288424423975 0.40746078578621864 4.546876308073812 0.5783807118748555 0.16057310573178796 -0.156312273572905
P 1.0413833371683259 5.3830662225101795 6.1069432518923685 -0.06878292310166863 0.08217451391722622 -2.022478083406917
P 8.315757434061512 3.611749117046387 2.551009699791419 1.708736134827212 -0.22782030891522057 -1.877540627329857
P 4.078002682345211 4.86602980330089 4.31914776139686 -0.3304368927368825 0.7354622595136173 -1.2846586365150328
Ni 7.512383846264758 9.12592997171331 3.0428397797364677 -1.0888477906268732 0.7302357210073553 -0.4595517799593892
Ni 3.6486364427989333 7.332086113104619 7.495379961004846 0.7478058686806347 -0.881648500396114 1.119523108223543
Ni 2.2530659518276046 4.664265618341238 2.7271452851264777 -0.2453698877632097 -0.5385874911373175 0.6115037196810694
Ni 8.76818057742538 7.720686556187607 4.043611715198813 1.0716052014963415 -1.5140470612483214 -0.1650177717667029
Ni 7.960212350465298 1.2626607872386295 1.1872910332709652 -0.4604784055387166 0.5957755103125352 0.12815355175050186
Ni 1.8325541586041767 3.5285619658787692 6.9340155048473395 2.9041949751471208 -1.4780071369056287 -0.8624945531754823
Ni 1.6610364646549323 6.8447660342330465 4.324825024039158 -0.20581963627441327 0.30580752422397656 0.807984337942744
Ni 2.9030399774365763 1.6998118708733803 3.024122670723754 0.18032020645172817 -0.012306842391811065 -0.7234801474510766
Ni 5.642914459241051 8.23173320288438 2.018341276448922 -0.4287767035600615 0.18312065201500075 0.36818325824772075
Ni 2.3601563877113203 7.304341561233755 12.452586379119708 1.1596677987632287 -1.7210985130473067 -0.11224459382972928
Ni 3.572090126373453 6.617610422318162 2.6137237341041444 1.733894893481027 0.45686909092090355 0.3483361416148065
Ni 4.990075759821745 3.6912903197281253 10.980404465499937 -0.002840297662272528 -0.2578739337674914 0.6304789752319916
Ni 5.408262330796526 7.307373651045992 9.445507587478541 0.8265716140266282 0.6147831617632895 0.7898824861357105
Ni 7.03536915239919 4.271154244095873 3.955822484156672 -0.7547894990873195 0.6503214638792154 1.1253805954455844
Ni 3.1532617940580456 4.582036458740062 11.924886490678123 -0.265349159098614 0.6923145204815495 -0.9774004958874586
Ni 3.1267635613124574 5.3220988951506385 0.5389641951029355 -0.3612219964385392 -0.43143316734630216 0.2654993115232331
Ni 5.624312681251869 2.041833461871459 9.444472398533444 0.1937521635869179 0.15171257001736455 -1.3718249472198956
Ni 9.308701741346008 5.316685777755787 3.940658314739892 -0.2498415503813181 -0.9791233921158362 -0.016573330977648876
Ni 6.436894149153268 3.3172271661436827 1.1477036594432892 2.231064998013822 1.789926430454298 -0.19084784545592937
Ni 8.056904392453061 3.5969979071009663 9.793558944811814 0.39298309090022 -1.183581886376665 -0.5765269464955685
Ni 3.9769392225299907 8.967173097464643 6.0196581290337345 1.54595573703146 0.6457567273266686 -0.8792244643356535
Ni 5.609226639302643 6.255554716425735 11.7818704409639 -2.1927884710311267 0.158003802342715 1.1739284224473008
Ni 4.591960507297291 5.296549353082498 8.942174168024982 -1.4183282329877573 -1.5784657938440234 -1.6568890682489337
Ni 6.837269517703407 0.12606238925488142 10.200717451705708 0.22714385167348625 0.532464151848399 0.07986232084428181
Ni 8.66728453361206 2.773469292852935 13.191965200189182 1.0125945272900885 0.12689088298799436 0.1893326943629836
P 6.672095030048474 7.512895395159459 6.212905489941041 -1.7380593092713614 0.557327233638666 -0.10273356901550047
Ni 4.981993287285445 1.3750899334052402 11.54834372008772 -0.4440760529212932 -0.3640525239087989 -2.005099482919153
P 3.9580212143149938 2.6986622426694433 8.183547157181204 -0.524042246333291 0.31016580119267223 -0.06166430977901639
Ni 5.623438397686377 5.5737437477882805 5.882250515383252 1.9210460068116595 -0.05601688168525191 0.17685230250778575
P 2.3748610932117677 8.96358295431273 10.93839514017807 0.8847052849445667 -0.06946066589498359 -1.0785690344086845
P 7.485346161957483 3.0612015947895883 6.116785452626445 -0.014749390395032664 -0.7264484860507812 -1.470636041252538
P 8.235537266483167 1.8160822841947566 11.07964123071662 -0.5580700253419615 0.2395512241989036 0.24963843323157653
Ni 6.776599818791693 7.330551466420511 13.9178540118609 0.23105269980958915 -0.11566570369613627 -2.118150888920894
