# total energy = -340891.59853520716 ev
CRYSTAL
PRIMVEC
9.07308067463919 0.00000000000000 0.00000000000000
0.00000000000000 9.07308067463919 0.00000000000000
0.00000000000000 0.00000000000000 13.27937068838363
PRIMCOORD
 96 1
Ni 6.731599949813247 1.9309330669823142 11.250827123071124 -0.9288770943657744 0.7173766056565001 1.95603075041696
Ni 4.733253892098489 0.5688694671247876 6.084701080050762 -0.37052604744828443 -1.4384833677793936 -0.28357185275422775
Ni 2.9179935329018982 1.6980724469085375 4.931693058034885 -0.2540887556934463 -1.5272813005504084 0.18567041502004797
Ni 3.3007777409787558 4.215915894982314 4.972526458410572 0.5523331228581843 0.6508835070302725 0.10580320907975972
Ni 5.180230147205231 4.533836648046218 2.6471094455923856 -0.1671556440453121 -0.05576208536196847 0.5706884854369204
Ni 7.194445023330626 6.229423070801232 2.7245817610657515 -0.5612993309125366 -0.07082515034267801 -2.790422374708639
Ni 4.982210157604212 4.652503472513194 11.605692554057429 0.522938471746151 -0.8032362817347972 -0.5129759612168004
Ni 5.722918332222679 7.746233508442911 12.432492470958929 -1.2150131083027527 0.41207841696877423 0.6747986230849734
Ni 1.89288056588785 6.47387001512337 0.3977384599375862 0.23813454635703504 0.7091860994259076 0.6500368427592612
Ni 2.851496923335535 1.4517655210116818 0.5164134501773285 -0.8838084841619102 0.24124763806472005 -0.44630751335497326
Ni 0.6186062817408183 0.040509491389261514 4.9487704108150465 -0.020235610320584504 0.1827236736868982 -1.25177396997187
Ni 8.663413105638233 2.2818344689442585 1.3494229836141294 0.03818113905541166 0.17903568331234973 1.0367204738040146
Ni 6.759109530957361 0.6657581756220344 4.622800927727083 1.0882626075473645 1.0279031326227006 0.16532424726352818
Ni 0.753957594587052 7.716791361077262 2.6014019861828523 -0.004870183608107742 -0.7795008857910705 0.24891286791946163
Ni 7.661382056312386 4.159608355213061 3.683352360887926 0.4558205950517311 -1.79720445217295 0.9602949465554236
Ni 7.674601535114157 3.8376954465741533 12.626782517021576 0.5894472541016623 0.48429144879791436 0.11747241788757187
Ni 8.016357271577004 9.158277081483309 6.740741078771919 -0.44122238552258203 -0.6246482274828274 0.3721281018280817
Ni 6.7920085221277295 0.6247215382352553 0.13838988762366244 -0.04590653272412739 0.14953073187469731 0.49106064920094783
Ni 2.0465059708786617 6.521603493487217 9.142634182785892 -0.16294263440522905 -0.6986890565493258 0.6680435637493269
Ni 0.33481120037851025 4.810910391113158 1.3662481047465982 -1.0636077851131618 -0.246380331305595 0.30548819321134485
Ni 6.323129849843583 2.034184727081265 7.034999236973077 1.0086234584574822 0.6884033583526015 0.7415796852652647
Ni 3.5761185256029093 3.9141996643205816 0.1830040407904956 -0.6355471337835183 1.0295982609369363 1.044059430667589
Ni 5.963082782382541 5.716349421685627 4.98168936276329 -1.2138969924204384 0.15748341106287073 -0.7440960239292153
Ni 5.053451988456318 2.76772516782643 9.598382292460618 0.7202891513176047 -1.6688256717855194 -1.0842097776342297
P 0.24843819258905658 5.569628631223401 12.507480576894942 -1.3314437151893714 -0.29281985371505703 0.14096587302382174
P 3.9060066723109723 6.085324400705314 12.799533976448995 -0.5795083977213955 0.52900267566236 -0.1552432088784423
P 2.4221678104864792 8.60233312534068 1.5327845037902046 0.6644792434368362 -0.7148926628923817 -0.2790665086847065
P 6.170956137789137 7.914893008405952 5.848301051136511 0.6408158383816255 -0.49778536951929103 0.840677714410707
P 4.633450002723405 0.9177512012890144 12.572005605992103 1.8954840991821549 0.8760743487424459 0.40574604699284317
P 4.054396909650018 5.973126682886015 8.091545892599852 -0.9524255711096757 1.1373786483477248 -0.10261838359387489
P 4.724761488420755 1.0914825534484796 3.6898595744751814 0.2865823574457774 -0.8189027846274606 0.3355065939503061
P 0.06228488543473446 5.754302118890717 3.4993802223704917 2.2330951410699735 0.021147580611892612 0.5261322960931003
Ni 1.7414417733824379 1.1725505308636046 2.8477343167060947 -1.3744662414974846 -0.004284743418282944 -0.7014841027959597
Ni 1.9923396781905478 6.483932061788549 4.522754787093243 -1.564658455647286 -0.25432812539776195 0.49529088523221154
Ni 5.930347106667512 5.708936714629314 9.220159122128203 -0.6472754779640401 -0.22767735557945307 0.260358647862558
Ni 8.958016040911776 2.267489928116803 10.336675212956209 -0.24937746626070598 0.7047383480671991 -0.3979700025918501
Ni 2.0862369919307975 5.445781077589774 6.837800361189188 1.1744521561612546 -0.9439697270328388 0.7323936478906226
Ni 0.3012607620029478 -0.048720629560575275 9.26878811357217 0.732502662664661 -0.07995025257239778 -0.2668136594592824
Ni 1.4822419995944915 0.8570677146247074 11.413446673110801 0.7407409914140534 -0.17129434880403402 -0.810915652656926
Ni 4.130175280928264 6.917997322842496 1.688950371419655 -0.29036624996824184 0.7422887955171474 -0.35416046160606746
Ni 5.801572870131097 7.916290262857203 8.18665264801771 -1.491490001883412 0.5198531479526078 -1.4143579354860996
Ni 5.38624352103711 2.846443217300815 4.845921595505937 -0.9160879130209062 0.28121466537596085 0.013468723910396158
Ni 0.7545509740747911 7.47555628737683 6.646802936167835 0.05376253843343644 0.39715933376509666 0.23304813297306318
Ni 5.130101375496382 4.330282079125308 7.1598384783438584 0.863219861377281 1.1010831563508003 0.042023395619637305
Ni 8.017028679560072 6.993521647856878 9.397372722718773 1.3331735533962847 0.031584459674500444 -0.2627310047494765
Ni 4.616655730065834 0.40164986509300427 10.421424139273105 -0.357904502029532 -0.9702677414974192 0.1663701720295393
Ni 7.898534243629291 7.184646096010164 4.637794193835478 1.5478200439337084 1.5197783073051438 1.3476015558961565
Ni 7.303358285881401 6.328138190474043 7.024561564760614 -0.08357576514012703 0.23529913379076897 -0.24636799001042087
Ni 2.5719734484384804 5.101357855356357 2.427375758895688 -1.0887002093054152 -0.8241277804718259 -0.28427864901326527
Ni 2.173529102810587 5.193041337368651 11.599862192301755 1.8204274272566325 -0.3917001104227383 -0.3097947910064987
Ni 1.1665078590159859 3.29482579993966 4.005111027152346 -0.42464134123544933 0.9821356965795986 -1.2885528293631163
Ni 3.555377462774596 2.770982403852399 2.954115282390997 0.5569127718090667 0.6515517367418907 -1.3334643451638262
Ni 0.9444532782372757 3.292884160637272 8.235759790822591 -0.18107199701608814 0.43794988541889734 -0.37743640141487256
Ni 3.6295861910653975 2.7244647183227575 7.093043364417455 -0.47293540035514675 -0.5613767211176912 -0.22080145439522617
Ni 3.959610433986245 6.943991699484279 5.977788431827917 1.11769762497903 -0.2712400706617522 0.1596559932341573
Ni 0.7032200191530148 7.372477015814073 11.403248530232837 0.8777350242743207 -0.14345598643552712 -0.8043994488049631
P 0.2325993153452307 5.881760758703551 7.986479616330444 -0.15719364773659378 -1.1412674418791702 0.3394542657441444
P 8.356969799852463 1.6623880199165189 8.194979014315848 0.7745715668102531 0.6798940353300097 -0.4827629279685299
P 1.8809676107288058 3.288901078143121 10.286705220162276 -0.8385169593139624 0.30001174347780585 1.3542262603015258
P 3.9489949293890767 6.0256144556164575 3.729896358352039 1.2220373621393856 0.5807204157516257 1.1919901650450182
P 6.634091549893789 3.917683727367857 10.258845418097263 2.076558153080772 0.720281695118437 1.0930178628441627
P 6.270859831053596 7.782035885486009 10.28466014773817 -0.697351825795141 0.15245896126508582 0.399605481312744
P 2.623426889951763 8.616468985308533 5.735254092949439 -1.5402913396568312 0.45219791069747933 0.006713150354117471
P 7.109212501804304 4.164081384073236 1.5765530458216053 -0.16547234280561826 -0.6422309735615972 -0.8446130449093712
Ni 5.690282460397025 2.7652935821580193 0.4167774127980114 -0.6679710586401787 0.38027181398113863 -0.992747153546858
Ni 1.4521738096500343 1.1575980936190466 7.078993698717699 -0.4932334884825505 -0.7149497413825622 0.07357391673240878
Ni 6.773063929308168 0.7698454664674803 9.354480640297702 0.23334509538819165 -0.6330472501798001 -1.4642298806158782
Ni 2.859054799685485 1.768370677352006 9.115358687127767 -1.6820691670589867 -1.2757523351643385 1.0601421951620644
Ni 6.227690112358446 2.1843986536716193 2.5497716195929505 1.3569793975666309 -0.16841317060149705 0.6705185076523807
Ni 4.208575772572819 6.942612591194732 10.636338205421069 -0.4636467759643692 -0.4727770204004116 -0.38773109847266124
Ni 7.9354707557789235 7.224758186458096 0.16928009869333627 0.6712345598827989 0.10075073425751681 0.9582748308016011
Ni 7.687331067549907 4.238943374185402 8.284627404292975 0.007016026306516948 -0.7232379495332835 -0.12523792076560367
Ni 3.2456043363160387 8.35942860476343 12.564901383684768 -0.27999339137435003 -0.8519836263418294 -0.11012291950103614
Ni 0.2987157628238832 4.932244701350704 10.28618714724561 -1.380361523935997 -0.13483096377067746 -0.9222392773342827
Ni 8.732649785621984 2.405591291769363 5.700036929621312 -1.4087071649582255 -0.08993770280241285 1.2381805475581515
Ni 3.5643507397375016 2.4754177220085127 11.576544374511395 -0.2284926523918968 0.528630894145238 -0.710016822857319
Ni 1.2063659032000538 3.0085973182927703 12.67458858003224 -0.19346805668759584 0.7491479845308259 -0.38234309468787053
Ni 2.8894133282172154 8.41409391689842 7.95407782999078 0.9572389333379191 0.12443265125548893 -0.3703897789807363
Ni 5.734577241117859 7.880923393695014 3.647830342043163 -1.5840265757612526 -0.07780440987398858 -0.3940580691319536
Ni 3.2657647219698056 8.3173385826897 3.5556977425286815 0.1230403988936526 0.5440320591916566 0.57764589059136
Ni 3.5742494709473394 4.3528196119623725 9.51219891206098 -0.7945302693203671 1.6675254649168572 -0.5061481396616896
Ni 7.132584758079779 6.0654362074771155 11.529468694509337 0.5149461975692938 -1.2462031607523119 -0.5821502062196168
Ni 0.8924645249537089 -0.2489272316469945 0.10300305768359842 -1.6418028633397723 0.25722421599863443 0.5393099711256388
Ni 4.68944905774368 0.4553842791325497 1.5422930925233944 0.2685190721861634 -0.8601782463374797 0.5477434466049729
Ni 5.766069904756124 5.608416051866899 0.5845740627719999 1.1213812444782043 -0.04874477350387089 -0.8387460446056331
Ni 7.866397391250513 8.697890812876897 11.422409969684768 0.5304149826288542 0.761512676743766 -0.07949156776842438
Ni -0.05355839627101118 4.919360926540465 5.869269848294216 -0.48883947317991294 -0.24126357890432 -0.6343757391832365
Ni 7.8676131840847185 8.96204448881019 2.2118782936489207 0.3053087302106871 0.766509358627409 0.8314870490503744
P 8.649331684155493 1.6479164559571318 3.69122688775962 -0.44056186912044765 -0.7792877413389999 -1.1838875905425417
P 1.890748391887564 3.133524568547819 1.521311593052496 -0.159679390272925 0.37613156656052 0.5294209941467012
P 4.569076494076476 0.9590790845711515 8.205349545730003 1.7745260367388276 0.36361929302612217 -0.10248931421517832
P 8.604574176311193 1.602786951797889 12.568047928124338 -0.39015667719501834 -0.9190760491149527 -1.1956781554195666
P 6.153817088059179 7.871550901174608 1.4771837570193451 1.0411795380166327 -0.8337300794482803 -0.9312201406766543
P 1.698217616202174 3.0697045178328786 6.112627115605997 0.14314231184985024 2.08376469813154 0.2424807391408727
P 6.835595602542084 3.995158764765479 5.863081099844876 2.059500426267537 -0.2087560931949179 1.2317124233353045
P 2.554798106385114 8.409965665110631 10.134643107002312 -1.2625777454555933 0.5552826924048114 1.0856434247569626
