# total energy = -340863.97194848175 ev
CRYSTAL
PRIMVEC
9.29102509646033 0.00000000000000 0.00000000000000
0.00000000000000 9.29102509646033 0.00000000000000
0.00000000000000 0.00000000000000 13.59835437988200
PRIMCOORD
 96 1
Ni 5.691208153230382 1.6312067002743482 12.509520785281799 -0.06863148512546889 -0.3405215306663942 1.3943046163796504
Ni 2.2997331225810353 0.7145151385022237 6.862246173487882 2.236348100789632 2.3099292166108927 -1.8759599131062983
Ni 7.507427036946833 3.347844376632166 11.628619181418443 -0.12892231159572637 0.10119399244252249 0.49756296909583986
Ni 0.07586772391569217 7.76377571134803 4.78492068140043 0.3069071850460585 0.583120540552686 0.9424761732064478
Ni 6.902237532961083 7.277130397014155 4.522322863495833 -0.6987592476656288 -0.19260673712856508 0.7021075953125714
Ni 8.481860461705748 5.6519814451254975 10.070642483024976 0.7123943219505602 -0.6482231865892901 0.2278100245025754
Ni 1.368298562130363 3.6179716413032703 10.720915757358462 0.7110894870962076 0.07002836547299553 0.33379166814172834
Ni 1.738815353346534 1.0739217218662345 13.47112794984678 -1.014712859184672 -0.8974682410371898 -1.1662917318376493
Ni 5.965627871512205 8.138761485652418 0.08288058968489316 -0.7681142412206836 -0.22607478697902353 -0.05570140732736213
Ni 7.045421521261502 2.397353923636937 6.0887451037337685 0.47353678138457156 -0.15152745058975195 -1.6064090572215108
Ni 4.040583210431352 0.8150830527298142 8.243540092469571 -0.17411099231722274 1.024000969354817 0.7753655234664583
Ni 6.6853942974187115 6.82479683849064 11.208796778034817 1.055240386985073 1.7665497034015707 0.01715748561589303
Ni 1.2322222080554852 0.6212694811807108 4.838213072451781 -0.8600293794644414 1.3681780944959276 -0.45065884834513353
Ni 3.7582196656621587 7.945266596265323 2.046783105172913 0.229762777353572 -0.18336079305026484 -0.6680132247320237
Ni 1.0475537925432452 9.097372294612514 8.239664805887253 -1.8028112568367662 -2.281981582358031 3.6474052540372734
Ni 0.7670177924174036 0.8358949490242104 2.294097186736312 -0.9916444074009825 0.22675227266202239 0.5869885081485244
Ni 7.7943896391560825 2.069882451854667 8.09773882238963 2.877346230385393 -0.1606713218725491 1.8958350547636704
Ni 5.712828368711212 4.859670694992811 11.875606218897216 0.17744956977215248 -1.7310905912630123 0.5984376305257307
Ni 3.7317216619873292 1.7875932352865247 10.964217045167597 -0.5102253950548568 -0.7627246947739961 1.512498742924595
Ni 3.6288978868578283 4.420948488286835 9.936861941260073 -0.4670406321372666 -1.2723697918453505 -1.8304043359636866
Ni 3.2304336920463252 5.884888863120106 3.4260237076005575 0.2121036695109121 1.0617820447583326 -0.781497604506125
Ni 4.780501869847923 6.317404665038288 10.020464443597678 -1.6363582952854336 3.4468023860771093 2.7068049576972997
Ni 6.8809982495106405 6.739700339311901 8.447855309724726 1.7857609862226986 0.9267572198092943 0.6739689280948263
Ni 5.691059496828279 5.117580261616088 3.1969599867028204 0.8136623621641278 0.8372954282020355 2.5680456054064935
P 5.404106185644161 2.8670616991562214 10.592928169763004 1.530421903061919 3.4752110191267898 -0.25975443861965586
P 3.7949749610820827 2.2887697129259514 13.389810110588991 -0.1757287304263038 -2.058289436678571 1.885213313383766
P 5.202119299286941 6.008598862745054 1.4044378625840739 -1.127989493823341 1.3161582497852107 -1.8994225150046127
P 9.137444486004357 6.382748444787613 3.2679833701149863 -0.5757571582090794 -0.9274498750009447 -1.401278219484006
P 0.17387317341203512 1.0666654312385904 6.748291750250932 -0.7346945281096573 1.608040936397979 -0.35707917791475924
P 1.8983236728028698 5.196851288037422 1.4080548586677382 -0.08706372368872747 2.7575197104433475 -0.011493602461896336
P 7.257489169886319 1.8231128243639696 0.6570111257587967 0.35460706222518285 0.1319238174262115 -0.21038565837854087
P 3.0889035062193 3.09163506760794 7.957159108433548 0.5275191491382979 0.2519645102615919 -1.0113079472681807
Ni 4.399895025339021 6.385600789502961 12.756901762226143 -0.962025298982969 1.4562818294133952 0.7571245749783994
Ni 2.617894987181616 5.5671822587509645 6.586430943231318 1.0397502617692738 0.40006082368260776 1.7649363361678636
Ni 7.144120081232649 6.819826140045326 2.182196080053407 0.22474655508590327 0.5564358321726481 -0.5721437298262082
Ni 3.936607348185554 4.424404749635726 5.232021534569926 0.907985595628746 -0.9327730869860711 -1.2811591080022064
Ni 3.595069264354303 1.9253048097845333 4.03038909765715 -2.237270869714218 -0.7242350233392302 -1.3962650825401308
Ni 6.6134631808512045 1.2135565385664489 10.331077350278974 0.6467849114808667 -1.7169135284316819 -1.1103350139663717
Ni 2.1809752393511372 2.9164342067046234 5.550480711974712 -0.8205192371849611 0.3177906647277817 0.9129069441897633
Ni 9.089437759150275 2.892119593935679 1.6976458918866684 0.2834479255818538 -0.6097000908134275 -1.2569596279378674
Ni 2.2338318813238245 3.8354466665545783 3.054870481162883 -0.6662345355650461 -1.0661732318474928 1.7644123453435936
Ni 2.9271839227816843 7.886974704590751 11.019167884204908 0.06132286727919761 0.0990905729462745 -0.3111137669282384
Ni 8.958759490676757 5.253275683660577 1.2853194875790763 0.6411176858927604 0.6993760553140214 0.8624433882225727
Ni 5.551787030108191 7.583650607125059 6.7736943420627655 -0.7567831324785805 1.4652125562441218 -0.39384543890051527
Ni 7.853675670519716 0.45165531368892176 12.343035835054275 0.3952073522450484 -0.692519180293188 0.8953990172129869
Ni 3.4668066624149554 3.8428144494837997 12.069573092360988 0.043720323706085994 0.9709675957779215 1.7035959853871694
Ni 9.11662329868483 3.708141040203768 6.179745120281016 1.3682724539819469 -1.9964392361409937 -0.24239537851591805
Ni 0.574165841969403 6.760828130460766 11.912090216383303 -0.6198934864066614 0.6167384857174476 -1.571080814233862
Ni 4.541360173990127 3.6575142442626225 1.977159879248053 -1.714054461716332 -1.7806632599848173 -0.441992173809071
Ni 7.9194932925507455 7.101214127175719 13.315753207471417 0.9671695621880699 0.2797658487445763 0.51039585919445
Ni 5.514864496235901 2.773064397901576 8.39112338116972 -0.9040471798062882 0.7310739006379345 0.12504585935945559
Ni 4.7240217280739785 2.084339286959167 5.97733363407529 -0.6351527265585771 -0.16531139174772175 1.5730639061021618
Ni 1.1325666724958008 4.668777292642514 12.707444706349044 -1.0363762030907184 -0.15893505590773274 2.224389642876176
Ni 6.3420258816365696 4.275200177050142 0.6706670744969678 1.0116612168425414 -0.5529098212972607 -0.08444608356022232
Ni 2.6790856786971933 7.959537610867194 5.811025213325263 0.7560426547681302 -0.5291800817804886 -0.8682908481422852
Ni 7.915656099171465 9.11974508312899 1.612574478475785 0.20154569148940774 0.20135363008325968 -0.7235271986389281
P 2.387403235721179 0.5839539369453611 10.02083143909037 -1.2070000081902892 -1.4059483712661656 -2.092057791378268
P 2.5919823180900665 5.792554655363986 11.495613511149502 -0.23375852877652648 -0.08107151066103457 -0.5493544998458345
P 8.86051619093705 3.5482332066667803 9.476353209723415 -0.9746219047010568 2.6368269858462656 -1.6475590490972591
P 4.500377462135403 6.597250341996864 5.013223467339902 -0.07070276583220081 0.7258113666874145 0.5062599826492056
P 8.017940994843343 6.693115139302927 6.413812987314539 -0.2060060412536065 -2.32148786798277 0.3011170607268427
P 0.3861721685626253 2.51165211480375 12.631524952692617 -0.21014037513695424 0.42572043323224096 -0.04858819332134858
P 5.965070410004319 3.561110567498938 4.717174242552117 -0.9889586330387031 0.14711158091024343 0.6228235155692629
P 8.010266608084786 4.98787755078137 13.025469063777681 -0.3224273921688447 0.3028121890410785 -1.9336097024092824
Ni 8.958824527852677 1.8992063201903555 10.63728538194546 -0.43053842344617466 -1.9818443690459546 0.661013653485739
Ni 1.2589153232580745 2.1827219520758456 8.911559224804082 0.9424790014199251 -0.35732883203172006 -2.0381209321504965
Ni 0.9050991497156432 6.975683086625011 7.061612061655526 -1.3675219489691675 -0.27863147802981686 -0.08966362320541978
Ni 2.878991375424973 1.0307184550050996 1.7904678784621884 3.300980727622883 0.5044954345496151 0.36918496003935775
Ni 8.255252358750248 0.8564466966149265 4.029015884142725 -0.5904088466839833 0.1766620408738506 0.04764639823336955
Ni 1.9344843426143832 7.3026528430501845 0.12705105226220953 2.4242661741932765 -1.342005806975934 0.8690878901222839
Ni 8.164813520120939 8.616087901779473 7.019089826936525 -0.8631381002967522 1.9387974172578093 0.9127488213453442
Ni 5.421796297494398 8.503657206664077 9.0940628314607 0.6848616637479302 0.2253440794605861 1.1932019259649322
Ni 2.1406707723310077 3.2605644865475423 0.8690276737453915 0.5990726930065683 -1.799829805610939 -1.6330058338734328
Ni 5.704317789690824 1.6111009218899404 3.6711070140299 1.800743318564144 1.849866558453356 0.4440212884239579
Ni 1.5283829251448473 4.815473288442614 8.584600617609066 -0.18211715045115087 -1.9519684074221288 -1.076684672901778
Ni 1.0021578437510936 7.784466824315719 2.316425378332157 0.8732044833938186 0.2869651947064929 -0.5585137977475995
Ni 3.751743821145554 8.979376275443393 13.079876377844803 -0.7987862163832437 1.2954189603553303 1.5538564799357755
Ni 7.699230959760008 4.671629637357863 7.6217419519588825 0.17297713582309565 -0.09239670586586668 0.9456347734400875
Ni 1.1273729894473332 5.279318427103966 4.904178421782397 1.7320215877177139 0.11302518074949568 -0.7949473022531276
Ni 0.7327013910944787 9.255421923123217 11.226923568066232 -0.08824951646671254 -1.3549898779404277 0.0870945769266629
Ni 1.0734014244588748 6.765315695599245 9.40501671876432 0.780953559077197 2.231602615684847 1.0186373910500586
Ni 6.0915119710179075 5.382105038132942 6.0207663892571714 0.36758239143892824 -0.6383372949341458 -0.9395240325566593
Ni 4.889522758740085 9.04804624218977 4.783520523913123 -1.8738089282015666 -1.109129937914677 0.9884932633665104
Ni 5.59612380203536 0.6886916632519359 1.5961888265540005 -0.8321506507763023 0.2708081253306562 -1.0595768095768978
Ni 6.380137666725682 4.862783188411838 9.683401846572236 1.0084223981902698 -3.152478951233332 0.3034073994229161
Ni 4.961500330433249 5.383489400877525 8.099112035904055 -1.284713401012368 -1.322878856338496 -3.4437522863968755
Ni 7.473301101639102 3.3969195713763627 3.2322612366896766 -0.12323091763790389 -0.3047364026469848 -0.22494787246343192
Ni 8.24301607865216 5.229434913173336 4.694627711865683 -2.725676340680506 -0.5428969171459489 0.524930048254883
P 6.255572892788643 0.7432755067965555 7.518720277994081 -1.9006898117528104 -0.7451460624602845 -0.36425975482359846
P 2.525495742249576 9.003913872815492 3.5387953833382766 1.34060275598082 -0.5515016280958244 -0.5275500023762334
P 0.33141922836061377 3.009743972099543 3.8984853429687965 -0.09692518986383952 -0.5061905628638508 0.8231682447720339
P 3.7823763310038685 7.21073673142498 8.250583618621706 -0.9187595463157983 0.2517752770689212 -0.6023678188180722
P 5.10906039157057 8.541620335351086 11.608316433301251 1.4731564936815467 -0.6349802055364548 -1.2250257553437482
P 0.37023713135971514 8.537708813770754 13.365659019862363 -1.7799356377901732 1.3354338101853709 0.11431227499203539
P 6.398951992616822 8.957858261239009 3.3908172260700415 2.007798369907555 -0.37900837388768277 -2.0010831626709082
P 7.930512448356617 8.549248266983987 9.870733069887144 0.18316873164411682 -0.16093228884341962 0.3432762105933959
