# total energy = -340862.3740554762 ev
CRYSTAL
PRIMVEC
9.32752971794595 0.00000000000000 0.00000000000000
0.00000000000000 9.32752971794595 0.00000000000000
0.00000000000000 0.00000000000000 13.65178258336648
PRIMCOORD
 96 1
Ni 8.545024754270933 3.4157601014984307 8.448760914773867 -1.4163384562512382 -1.3289638861903112 -0.25187555009221135
Ni 0.23041983642726155 3.6757556697071436 1.5235391447412645 0.3726418082397066 1.5881261997519232 -0.2190271361036228
Ni 7.927122536577519 8.638150812712341 5.261806987031387 -2.2862411289653335 -0.8457756977589046 -0.3116171889272182
Ni 8.458092175677793 4.2350716721491075 3.86036893958794 -0.6003662150070113 1.1729645158721347 0.04062702949274293
Ni 4.414066970775971 6.5287299276437984 13.50207708815401 0.1354721968991022 1.1073337652462025 0.2211102438848966
Ni 2.5256525789677173 3.118836842447416 0.8750892666516557 0.3628209654945429 -0.7994367054830489 -0.9375483968875272
Ni 7.3246480533254195 1.9826877364263735 3.884368673999974 -1.6605541758053466 -0.33425575226234044 0.015443845358895982
Ni 4.601587631724094 2.1382989176140743 13.492794330405523 -0.43468329885248363 -0.15460480396349502 0.8106086629394685
Ni 0.6849988712182957 1.568750614880622 2.6714903743346134 2.3849738043515574 0.8359383999535087 0.46911294128526304
Ni 9.049886637203588 2.315913741816927 5.209029024643666 1.1093847342379604 0.9320310666137239 0.5257831402837977
Ni 5.282842432443753 7.556642376798446 3.6860635229907577 0.6971618212715218 -0.08110210678865387 1.0451259242588904
Ni 5.1286956734490925 3.0049290474067045 11.178366464100387 0.43578013146108824 0.5151683408824289 0.26235330969508364
Ni 0.17779111451781102 6.0919776679822935 7.133165990432179 -1.4051194476069673 0.16786372585593026 -0.41526709910940096
Ni 5.729239358013554 0.32273439976806784 5.245520187087022 -0.16968612377664968 -0.3800260165189197 0.7478752884659894
Ni 5.899886517387106 5.092299651810633 12.067165334187257 -4.116700743646987 -0.35543290056058785 4.191112840009975
Ni 8.552290900056775 5.609100773005007 9.578855521142033 1.4249159135076042 0.7770881625845197 -0.6404178316122584
Ni 4.297687380313888 8.809553502007143 0.7219853254989161 0.7663052130364029 -0.338205738049024 0.23764269432228105
Ni 5.086302050090098 8.877644470218508 8.209663677288109 -0.07946405696459863 -0.2324755482990448 -2.202928387678606
Ni 5.128313244723521 6.864688899292698 6.119165552111402 -0.9952650348727052 1.0571113787555406 0.14049561825562254
Ni 7.588020187355026 0.9090461392233647 7.23757462903091 -0.5648438537306854 -0.12994303955075684 -0.9032159421542445
Ni 2.57311105105805 6.0934420901753334 7.593162454584468 -0.3060669485329503 -0.650424565115983 -0.44361248302131345
Ni 6.289861214640393 8.175029626046243 12.910013061014336 -3.1109034417843904 1.941792495330391 0.25491202292569004
Ni 4.339633282238068 1.6563734306857683 9.39553877791622 -0.5383789746709373 -0.5625663705504182 -0.7697031829743582
Ni 2.513013775964101 0.7363525197915143 13.336399636706897 -0.2826010042005262 0.8680013419263244 1.985574268402032
P 5.727364524505268 2.437339525950565 7.366201266241148 0.24307260708860073 -1.539065180559214 -0.4142265736600285
P 3.887574546023843 8.78977913863617 9.895822709177898 0.03784818119602514 0.9252564668940516 0.9056844582993951
P 8.919730285091067 5.715024202458196 1.0227496613594427 -0.33218447155560854 1.349645582909379 0.44976101912121247
P 6.409738628811964 0.7840376508582217 0.6981124454934134 -0.6782045634427287 0.12243464698885365 -1.4016597711931407
P 7.259942978464839 7.296525550701137 11.235089971632412 0.6007822194985072 0.3830066964137984 0.682151978126251
P 0.9311859641749398 4.590040149717837 8.4965561106933 0.9966521450282191 0.8882220398485736 -1.390458760270999
P 3.025309700220654 1.287115177322543 6.793345421408004 0.4049837149055219 1.03287281792315 0.16981519315534627
P 1.1127090234025272 4.290598457595992 12.273294417269856 0.18717013949402606 -1.5873839222692598 0.9193899808109456
Ni 9.146389261465888 8.266420763927744 8.5932919232029 -0.4835859380904574 -1.3383684673336629 -0.6690555499536089
Ni 2.379368927671985 8.718516810261535 11.65761215169073 1.260383566017752 -0.6881891854592663 -0.45223416325205346
Ni 7.011718752979789 4.358997234293793 1.177398241462292 0.08866886339231826 2.318325668204704 2.1339996830276924
Ni 5.815127253258795 0.49837645139876946 2.849864459470673 0.2811632433127352 -0.6564671717656372 -0.8215535919867464
Ni 2.520326559399404 2.523078180717534 11.705761793746058 0.978962698168256 -0.8879245632128128 0.5342538967589703
Ni 6.972291284126441 8.644017829014388 9.47095185709278 -0.3214966528244592 -1.4119413556248068 1.4824937119220727
Ni 2.6536635992050845 4.529103396933611 2.745046342309683 0.5099369172801604 -0.5634881110337392 1.4180945197103962
Ni 0.691673651608988 6.314178085068753 12.00611478553835 -0.07774990248696932 0.018308825611516855 1.077810301865789
Ni 4.822081110840323 0.716231172308561 11.61305267589082 -0.9080933248512038 -1.392148489268596 -0.23848241661475703
Ni 4.662197920962101 2.451993075410847 5.0917054881565145 -1.9156394910841077 -0.6431712259876794 2.0697992370903835
Ni 7.312942003311 1.029339561228118 11.946538919365361 -3.061027125779238 -1.4948486339429998 0.47734869893149406
Ni 1.1905659154107833 6.43455918585449 2.6991894071018017 -0.4285933839046619 -0.9079963942620232 -1.392800521030298
Ni 6.608694841407639 3.437390643317904 5.563183208852828 1.3206723356054804 1.729298532359596 0.9276954153528475
Ni 6.304981140595273 5.8185038190796865 10.153336221682359 0.10479585086116791 0.5493822677599765 -3.2145381824579218
Ni 6.847507589231694 5.598318148449892 7.780970403453264 2.2563949921381785 0.15662414838636898 -0.6400761320021234
Ni 1.9465995232743496 2.2047482405644536 9.221710930849506 -0.9743424257874254 -1.8046997321087304 0.9958008527715172
Ni 3.414650125441286 4.694816292994314 12.391982571380202 -1.3489346728852831 -0.5570744941979114 -1.8120991098965953
Ni 0.47676456463907985 0.2532946707343236 5.77489481857577 2.16229493042796 -0.2540699866403689 1.2717362720264098
Ni 8.81523396771135 0.6335370232983304 10.173567634018037 0.508024530748796 -1.0213609606288088 -2.500033241922262
Ni 3.78551271394593 6.341013388567945 2.196517628187781 1.2786828785475721 2.0352322977487916 0.4238720671695926
Ni 1.938717760515637 9.07856879162139 8.4059764679124 2.121492551699617 0.11684918248127618 -0.22821548747111017
Ni 6.784798605767993 1.6006974047606122 9.353873634641788 -0.6339790179654501 1.521543626735683 0.8277221826913036
Ni 0.13366536885787847 6.9013927294175925 4.646247844846837 0.08296821346311518 -0.5514435211643792 1.985147979497891
Ni 2.3549774370044885 1.6228223056643598 4.660063782122819 -0.4343148597694714 -0.07801575455384628 -0.20975625232465814
P 3.4764450109755733 8.479582804548887 3.102436246638369 0.0011621386289012246 -0.2536616954583567 0.12110024444814628
P 0.8287127880287912 7.829575228967318 10.649291246321173 -1.7889568674521772 1.2732190272195234 -2.431902607692612
P 4.194487589589155 4.88567620964376 6.4196006261667415 -0.5560550517944617 0.6748906685781474 0.9822588524210245
P 8.625782508075591 4.218916390376219 6.29730831450614 -0.5715343783769834 0.3985988944251006 -0.5761785620172142
P 4.0524479643942675 5.055866320052607 10.319136796524043 0.985335177353503 -0.041876328518811755 -0.7131288861237396
P 6.5490079776289365 5.618176459589892 3.5426508853957723 2.332605832272802 0.8628524507355333 -1.4357384580444048
P 4.7112514006639605 4.430110322190156 0.321369782144873 1.3341472301634638 -1.118361998035906 1.6479660547276909
P 1.5621094135975409 7.693794376329942 6.573388275260562 -1.4562926280466726 -0.4348635331840898 -0.13452937336985865
Ni 4.7666382731624655 5.103380757322292 4.3367753270791685 -1.72190455388837 -1.4472821970179461 0.10696586192929322
Ni 3.3992223909999715 3.6984122398147337 8.383873953080393 0.6758540609326812 1.7923630649202489 -1.1848023890473272
Ni 1.3291823371353182 2.8322484865167024 7.080032649155572 -0.30546428195194486 0.1592358749776032 -0.9379024377928363
Ni 8.125173978773674 7.354262960732418 2.7235855615342435 1.2086689112522797 0.6439150461322395 0.6701940344334264
Ni 2.5473204309067583 3.967194341181681 5.2371655185627874 0.21354040195743865 0.37293439977946097 -0.08150397021276286
Ni 2.234540371039399 5.550598505522585 0.7044616950908759 -1.7193295940723423 0.02527214430322744 -1.940747341895329
Ni -0.06994155014193212 0.3012810810165417 12.28585393626939 3.51345797842313 -0.9869426310499388 2.581786352031354
Ni 1.334256513396549 8.585039857507475 3.4819146745042238 0.8481745370083844 0.9213856710847358 0.8175035902870887
Ni 0.3216747923723403 9.167842580217414 1.3257180925334413 -0.24444660461799195 -1.9498349060188935 -1.4734501136625657
Ni 3.107559858808027 8.765844696933382 5.698472500664898 1.3608656199949143 0.39978622986498247 -0.7794875160546317
Ni 6.365526137124036 6.828871184507542 1.5375453636270433 -1.5564561223421518 -0.707785105313323 -1.0176392888028476
Ni 3.6116195741699726 1.128164740433518 2.2874787669412626 -0.9139410418812325 1.6259193593402965 0.23815100141726725
Ni 2.534551042484655 6.504711538171981 4.92271023432683 0.6039860711477856 -0.19318600667080277 -0.46995060669521
Ni 0.30545794890216493 2.439083774040363 11.000169602032276 -0.2474594233023867 2.263137710178651 1.0187536049129486
Ni 8.160012302920174 7.493028622935225 13.496002067935372 3.007037816046976 -1.694397606717353 0.59634500966276
Ni 4.748869328718268 7.256920858779841 11.217861091168958 0.45205470025139566 0.43292929227585436 0.3197691286103912
Ni 1.8775291644243275 4.375805443159119 10.25146463440483 1.042729399002256 0.9182916055404443 1.498576219306232
Ni 7.957409026136739 2.0609270571602005 1.721885336882005 -1.3289790556989627 -1.234393055491261 -1.4449669186212082
Ni 2.771367698911828 6.939103932770818 9.945937661781462 -0.9291041227749159 -0.697253866764696 -0.5372677438846295
Ni 7.258086800016337 6.354622254680326 5.6036880074086985 1.17385077513183 -0.8411641671288224 -1.3176165794982921
Ni 6.828423463072727 2.8850143231155645 13.344412917637086 -0.19849070671316782 -0.8896780555688096 -1.6485406962842386
Ni 4.783334551669089 6.136395365327845 8.348775390849907 -1.5037901594070038 0.10177660441886989 1.3104815111154076
Ni 7.88778834302309 4.884836731953484 11.679400328765377 4.424269730646761 -0.2317276143894267 0.6390906281604026
Ni 5.771894152209523 3.84016271158297 8.919351587377452 -0.10974111068158521 -0.19784844514347863 0.5701254138445987
P 0.2209206799852814 1.1451501723667916 8.028654564957568 0.22174299237288908 0.3130300101143448 0.3080703521162243
P 8.628254303496963 0.2818098623670587 3.486487962410256 -0.9246586854090527 -1.3298668576205548 -0.29281085485399244
P 5.159802985638805 2.7778410046568536 3.1725512888362917 0.3836384164605264 -0.20336166165222394 -1.493681867328408
P 2.392250246452792 7.655113109867951 0.1875327867369823 0.4769519777137076 0.9516107885178644 -0.35415171985531907
P 1.1531998306635598 3.3727135510469983 3.5464192074721277 -0.10511569609443187 0.5421818933567952 1.8706973791557784
P 7.470474655656447 2.8950880553988902 11.159145223252008 -0.6774985385146397 0.7673830194816138 -1.1583693916667792
P 7.141212850469979 7.968098375392934 7.382856503616245 -0.6810944833960142 -0.9131774242423305 -0.8333289873551196
P 0.6936147105795065 1.8067705226638588 0.3465653058890567 -0.2688098639537048 -0.6136012256400465 -0.2600922815750488
