# total energy = -340853.74660431535 ev
CRYSTAL
PRIMVEC
9.44723889134991 0.00000000000000 0.00000000000000

0.00000000000000 9.44723889134991 0.00000000000000

0.00000000000000 0.00000000000000 13.82698905902796

PRIMCOORD
 96 1
Ni 2.8637792780660516 5.961472188139451 12.65602270803324 -0.3958496138147376 -0.9998865928051165 -1.0828738324316254
Ni 8.694142686520609 8.761652654788966 1.8052520731136397 0.49453626645437404 1.1522355108548994 1.3679461809907794
Ni 4.753453766298596 5.9421998210435305 7.851323339737041 -0.2085329214405183 0.16256828178494584 -0.09379255777212879
Ni 2.8694854102846477 5.499823418281976 9.953136519330176 1.6625943461638268 -0.993597160251979 -0.37921791879532757
Ni 7.173250611011766 2.689931190174322 1.5658099169766186 -0.04996990416022362 -0.9530902012768683 -0.29532925040047203
Ni 6.016672404287227 1.9644021469230981 4.658727247850514 0.8807678975633735 1.6241632958811383 -1.9418410891801394
Ni 5.888700107874807 5.192703133026448 3.9175450746771183 0.8220305316231649 0.22473678489389037 -0.5575637751295044
Ni 7.661833458609666 0.16054543097615798 6.807123817107018 -0.22566958112080487 0.04404736802820156 0.3016238251599322
Ni 4.070579006105254 -0.04080262425847076 0.9820357467830301 -1.667341116820193 2.5624462569418447 -0.4403713503761964
Ni 6.510659072463003 7.6250175691131945 10.27361897910554 2.0321207487030035 -1.4713600639027564 -1.8529338845247705
Ni 4.024854370446305 3.54355534394201 11.924229200751963 0.8208141427175606 1.5230070986550865 0.1747126304569636
Ni 0.26526429387392253 5.985581541486897 13.349957350657558 -0.12368574578713536 -1.9907038763191134 2.2406778385132378
Ni 0.06487891227021254 0.548459446938069 12.800639149715069 0.8903285446686151 0.47604694940093495 -0.07621675367189455
Ni 1.9394897782799891 7.535722268235431 10.516516935185546 1.8862906056083448 1.0646346837157794 -2.340173103097099
Ni 6.150086310232614 0.5843740698556431 2.5188483090713065 0.347803151929472 -0.06602490074055727 -0.9599247077001983
Ni 6.699613295151977 3.756042638413305 5.536146161914524 -1.0383158433155923 0.41138627599775607 2.8876244723829494
Ni 5.643071899789546 2.0896536385690356 13.567788003378585 0.08421159895191305 1.510339273379431 0.6991202305494734
Ni 5.077786920597637 6.987961916966527 13.040952341266914 -0.10581246505114035 -0.4595098709778602 -0.021001541952331573
Ni 8.510214394858611 7.2662303350108095 3.7235800365432064 -0.8202299880793164 0.20312512016138567 1.9464719030839317
Ni 2.494486714448635 2.0260831688688157 12.507105883262165 -1.4965962127617258 -0.7009981642984765 0.7225203546409685
Ni 4.034500001233038 6.731629987352013 4.206819525891375 -0.5655118263319874 1.1244277446140118 1.9857048804426252
Ni 3.1710034829480773 9.164955277987417 9.03129102021456 0.3187399160149285 -1.2476537771559093 0.34996133592305534
Ni 5.394458364252173 9.465755360504136 4.687639577389905 -1.0934130414000525 -4.55161055668798 0.2786186225140105
Ni 6.542458478171272 3.324171565166782 11.711113664902298 -0.6621009730126468 0.7510894245279129 1.0789667840677355
P 1.1853733905031494 4.0423412094142215 12.446682288797067 1.271418997896307 -1.2691402291644596 1.6764019414708804
P 2.9050448170243754 9.00523081206059 4.24593676275283 0.08436046582495149 -0.3750987544206314 0.7140516550483251
P 4.299863491114072 4.786471865808518 5.937405347366482 0.6227404689371533 0.6332364833724708 0.48240605884974336
P 5.489582611452576 4.705178376171069 13.232165398746396 0.2511307015063869 -0.05839052412375105 -0.1683740898334455
P 2.5242549638208143 5.981169680980135 2.849134168520907 -1.878185202892391 -0.3513371332246594 -0.17297533605088275
P 7.860782859919955 5.317255529003221 5.0440716148663025 1.3558977344666778 3.0908298109629673 -0.9301323069291143
P 1.7894014959011224 0.3221206109785195 11.357087839141256 -0.7429379990653722 -0.22206515159899823 -1.2906842738838225
P 7.95519856421242 0.15155921745574646 3.7676051139469804 -0.8475608146837854 0.020701494213409506 0.7270095007605738
Ni 1.146412977805318 9.369922570395795 6.574636718154319 -0.6455011596724366 0.23847084665053123 0.5620683478680771
Ni 3.9370422860558247 2.780596340674101 1.2095554875891432 0.6424855127745644 -1.2129983918655691 1.454821699928101
Ni 5.300174921302522 9.109490539154011 11.00888245718796 -2.7235644365438256 1.6835814899384551 0.9950971418362734
Ni 0.6773651305412137 -0.002242774484593878 3.9866525710219065 -0.23995771560870288 -0.7720457150646058 -0.4117817116639618
Ni 8.705271533794626 2.3354046607583387 5.438168848604822 -0.454174831918192 -2.4046915944954588 3.5615116393972466
Ni 6.166817370098729 7.597129320256745 3.3622401585244885 0.05388929381928784 -0.04232755712361743 -1.4126944317407477
Ni 7.583629216050829 9.466227722442763 11.32498139817288 1.4779027501172806 -0.560554482326712 0.5881362485997226
Ni 8.53888676453318 7.490951803692505 6.2347411274253215 1.3838777646193716 -0.30512129679022937 -0.7006847468231159
Ni 4.508373498062141 5.941085046868375 2.0989090983944636 0.23302756414777284 -0.001186306998617312 -1.689993049891754
Ni 3.079185769318052 8.479463632654092 12.66483036874085 -0.08073495325722224 0.4963280682474742 -1.3187278102845998
Ni 4.289622684284671 3.457075320218453 8.055299616798182 0.5857055276710429 0.1535802193537226 0.524848030064038
Ni 2.612227651270427 3.8476997489841973 3.9378849797543327 0.5388651702787365 0.859018935922056 -0.270049907008393
Ni 2.6850375204901624 4.534362851925315 0.8922501342129722 -1.5746466772082495 1.3775212262737244 -0.25836784268477436
Ni 0.6190057577479103 5.414401485300941 9.065762105047694 -0.4375899309763174 0.78893349195888 -3.5227962251049205
Ni 0.7391991977550463 5.543394083500793 11.130657364965613 0.7221765981483047 -0.529946784743184 1.7001111121623622
Ni 3.1858545422984634 7.997673349733626 6.566395891773058 2.007121912665821 0.839709694070483 -0.5317213601451036
Ni 6.6363923732863395 4.1946779346209455 8.301931121641083 -0.4334607392992922 -0.36029974173458595 1.797460276937498
Ni 0.2919546328540178 4.645500168845123 5.78868313571412 0.3453091818630247 -0.6266320906820757 -0.2632439398301531
Ni 7.0886694822814835 1.8274549736767927 10.008596534544195 2.140251063254043 2.028662357840758 -0.8520970119912422
Ni 7.720283524895186 7.632735963190336 14.016695282303576 0.8194548004761887 0.8508379427731605 -1.8493945039129438
Ni 7.2298868074529645 6.196972956260581 7.684694831715264 1.059771442086207 1.2261696391402044 1.1974321619961958
Ni 1.6860959399237252 7.211663083860792 4.804408393342006 -1.0519925694717365 0.15985679639105374 -0.9684378873775321
Ni 8.083936086965414 4.236481966189302 13.720424206054398 -1.7355036327290432 0.39469158895089446 -1.0562474880933486
Ni 6.705442241474615 5.94049931806448 1.071565339182353 -1.3512748909826857 -0.998417721569074 0.5504562175504455
P 4.355375466141341 0.7628286313728484 12.54029119889836 -0.7133880533223972 1.2077674824839328 0.7958150495700617
P 8.96029029721976 1.6383779368837772 8.165279646968358 -0.45107562416757796 -0.6328865562322197 -0.33147716107593883
P 0.6227808743614053 7.995302092801726 0.22817537917692543 0.3534608644358816 0.29226732364569663 1.7227710156537233
P 5.371227604110571 8.580974213264712 6.904644828784006 0.9611266984280996 -0.01598326280213376 0.04308963210062256
P 5.044230328477681 2.610366545232243 10.193712344119897 1.16984808173034 0.9218512978672446 -0.771046327265814
P 2.949938095671343 1.4358480320787075 7.900852378449679 -0.948383025609186 1.5312623966853434 -2.250675830266214
P 8.699395351278124 4.4337781007144015 7.690695717783561 0.20289192110465704 -0.0991913601901969 0.21675222402651703
P 8.453228650582831 6.738876019490528 10.56397136026374 -0.5731387467496258 -0.1507643471714823 -0.724034734402966
Ni 2.9044590882204795 3.104258741020294 6.171856527259986 0.9097676272298332 0.053463004915146634 -0.3942951248434241
Ni 0.7021329564311033 4.254242775081621 2.7785888024349426 0.1855935390355255 0.43621413367471323 -0.18667880167990428
Ni 8.176018323281069 4.337690235159202 10.520997760535348 0.5774065208870443 0.4376668069608398 -1.1418423405460336
Ni 3.034018520746682 2.2379847345362154 9.811341023145816 -0.791662717964585 -0.3675289124931735 1.3696158553837186
Ni 1.5500273598832635 3.4985014622359096 7.936940830560667 -1.02151162727406 -0.518551655532365 0.6176355436104202
Ni 0.7438170080670493 2.587107443374323 10.272097973663167 -0.8085096143185947 0.549573557835176 0.45836367318855903
Ni 6.162858977053046 -0.12963501043638245 13.368596752755721 0.776112943155444 -1.0987064285885078 0.09201078328135767
Ni 0.4443055289189006 6.44372538575977 2.2183051914492 0.598398549757679 0.9522684767065213 -1.8218615885999978
Ni 0.45048213362836764 7.6560706429584355 11.974310902932794 -2.0423146585168697 2.790204345160562 0.16497432012327717
Ni 2.3356786306827417 5.742173434513176 6.611789874074969 0.6542634792460991 -1.631776589452022 0.23857060545318912
Ni 4.560333311310945 1.1934507796536453 6.465527723398968 -0.5802594169548071 0.26177609703537497 0.8675161747597898
Ni 8.721898674034243 8.07665226587181 8.711542610891817 -0.4637668464820013 -1.1579305043571477 -0.34919951805636634
Ni 0.7498131705159613 0.159830275001079 9.399005894956968 0.8145627624912101 1.0568730374924895 0.1678390432655819
Ni 2.642392684671052 7.358586541250868 0.747166054211904 -0.1549256776380235 -0.8797615677860462 2.054397300713017
Ni 0.12004322891065303 2.817279968827757 0.5054622291127442 1.8105983569813529 -1.6885357486199373 0.01419917431851748
Ni 5.841265521998033 10.060647986009092 8.888832327868373 -2.4450067491747376 -2.9088129335351063 -1.915107015619405
Ni 7.217444793989569 5.958108971136438 12.390060263214028 0.2685170153036343 0.33333452599965174 -1.2801689761747952
Ni 8.284803277746523 3.191050523623344 3.6365397915604394 -1.2321839636550844 1.215409572410223 -1.7042819557106004
Ni 5.802427923404245 5.529969557205057 10.300194061772611 -1.150908821623676 -1.5032983073722497 -0.183381104765239
Ni 1.5593234428354135 0.25200414953282746 1.3982962026818575 -0.0413497665913804 0.7925330363846802 0.06856129400916579
Ni 3.522072322973322 1.6405508018014545 3.987717274831568 1.207798078611552 -0.2728624367565236 -0.5035839784789392
Ni 6.573568235449147 2.230200209787667 7.4321172347889455 0.9378888109460816 -0.8483725119518035 -1.0662781328564732
Ni 1.4083565672507032 1.9517806359230245 5.011385113437296 -0.32330362412621094 -0.13583189423136607 -0.662943266408284
Ni 6.195385820146799 6.6874735933293 5.739707705193552 -0.8339139133243122 0.9808164635475429 -0.15780942694372174
P 8.49293539514369 2.1862327605404057 11.618887830557298 -0.3658836635802666 0.5510704540956767 0.33002962999613483
P 5.362214938321595 7.9500025828875405 1.1735907943060748 2.1041777145702536 -2.2988395344556345 1.495908699776398
P 4.670261381667872 3.654144721013012 3.2627824628991347 -0.4746978915722082 -2.226207927031837 -1.2507750963937103
P 4.11911891891841 7.380617502068361 10.355737212687828 0.6016080578339122 -0.9487427229414498 -0.07887373167876738
P 1.5116054397954655 7.333135679997726 7.704329028056171 -1.8700183508108827 1.0255850260124852 1.2200041337594407
P 1.2500302926622078 2.3376247618698787 2.301516470557468 1.4213775613370423 -1.7707508859671115 0.7676941229641295
P 7.963549923287319 0.859501281008066 0.35655485158044137 -1.7357859398561524 1.0763100631711786 1.4793219990623103
P 8.152513593215065 4.671839070542881 2.023690183287739 0.2810801966806256 0.5373926994982681 -0.26687330905262424
