# total energy = -340898.9916147294 ev
CRYSTAL
PRIMVEC
8.96868893959154 0.00000000000000 0.00000000000000

0.00000000000000 8.96868893959154 0.00000000000000

0.00000000000000 0.00000000000000 13.12658283206962

PRIMCOORD
 96 1
Ni 6.3067731403541565 1.9211649346045474 11.169501251322368 0.15624311089786638 0.11332934225347578 0.9259290674810441
Ni 4.482837763264024 0.2572040633150452 5.8332828635762946 -0.26202935069676164 0.12923264374729357 0.006808281171085048
Ni 2.5573319831805565 1.5424171978797283 4.666474361269274 0.6974904082555342 0.5545676686156578 0.18298361221650422
Ni 3.3979223602711004 4.346953156133601 4.721251526242527 -0.4094623195021658 0.133266447497035 0.27773416302652815
Ni 5.118260410652533 4.634552106490096 2.7242643979120675 0.2844923076859681 -0.6531355362892429 -0.06086623935775323
Ni 7.15283441773838 6.109040453838123 2.598918897232636 0.6777001130024844 -0.6509837800535627 -0.013907354109711534
Ni 5.043291139251093 4.432299200715022 11.669833917426388 -0.3248344589484406 -0.419156149751162 -0.3976010492882056
Ni 5.605260223680183 7.926930934538188 12.357023837757726 -0.07412696102240136 -0.5198048112131758 -0.45797106573583063
Ni 1.7751008654522762 6.34172412141067 0.4123883923175522 0.6309266042923716 0.45570695229200225 0.004477061934747128
Ni 2.741773072589647 1.559170708943 0.3943209683148966 -0.024141887353526167 -0.05278269101867039 0.19829478865227784
Ni 0.4580264631936572 8.97828550327053 4.7106577107886 -0.05520441308628557 -0.11901302290181441 0.34509115231494764
Ni 8.671529433197149 2.311374655879078 1.5132985552838374 -0.09521232093779086 0.29256737138461875 -1.2777241141787286
Ni 6.722489813161848 0.7411599032940477 4.762704806828417 0.08212026364052308 0.6237046326226355 -0.33487487390357806
Ni 0.7739996549585418 7.35166128431315 2.559040518436206 0.23293243333080532 0.11096187046256374 -0.20423557961674502
Ni 7.67816640757782 3.773477243709771 3.9033079857611206 -0.47444463791082164 0.7772038622267776 -1.4345616641274843
Ni 7.4401732761137005 3.843208800731686 12.488105711925416 0.6518078186167549 -0.6672917731849669 0.0964744754796661
Ni 7.800822198424343 8.978913311500953 6.762736805076425 0.7747430593911109 -0.8825476151716155 0.2546561981611421
Ni 6.850428161832924 0.6978483103461078 0.43536437981321036 0.26098265459980213 0.5947195582441952 -0.7008382416818446
Ni 1.684965540941634 6.487877877453003 8.995634535283806 0.9624019655960975 0.3408303201560646 1.5694080545171294
Ni 8.946285220897003 4.733853431164905 1.3480872319725845 0.24716323221820657 0.3619056527691251 0.13044671866005275
Ni 6.377383628898663 1.9897036559886596 6.906302197471615 -0.28374128845255653 0.3711922202773736 0.39599025315765995
Ni 3.650202613321833 4.535788903155649 0.7672444383991971 -0.08717968044130148 0.0007353355041277658 -1.1825174496678925
Ni 5.946482965603756 5.6043095426455425 4.823244354488048 0.15285259715907867 0.10769708366836289 -0.03595559215900259
Ni 5.284665466470488 2.8070830659315873 9.127490407312715 -0.31883247572873474 -0.3490167126215989 -0.5232673158404795
P 0.1764742029650307 5.491438591504604 12.257524305055883 0.41057046496468 -0.4852550982627642 0.23012993088500364
P 4.042277821909618 6.173866137973737 12.437227236063086 -0.3295796869429098 0.1364741558010553 0.5927292672870438
P 2.4497884333092017 8.426226820193111 1.366188736993463 -0.5640367844483576 -0.17208547724676168 0.5048944697602465
P 6.275293041942977 7.770212062846748 5.746975375533428 -0.5620891738036836 -0.80332575612481 0.617883397955168
P 4.6899965419253995 0.9834974677126908 12.4738114153876 0.1832926588164908 0.5735077000532703 0.0024937129561311893
P 4.037282262133258 5.9734069699998695 8.164157243092292 -0.9788925070519527 0.9622911510498461 -0.12656460999682717
P 4.754373791610712 1.1604855765577673 3.737663474770876 -0.8548966862235664 -0.2945139535880283 0.560152618902603
P 0.14497975465144144 5.541806748962491 3.58438409531325 0.7074709165070139 -0.5275829124966979 -0.11477893021580877
Ni 1.2969800545405996 0.8964007350372927 2.6238859336876335 0.9028313051213162 0.13742983484610524 -0.7280888498676815
Ni 1.903945051712962 6.413052105075661 4.838419376286257 -0.3277038100764356 0.01818052756376869 -0.8025881066278371
Ni 5.912823475764109 5.647135032649357 9.255881674778598 -0.6557554904105931 0.5264901936531513 -0.7644792155712576
Ni 8.60497279208337 2.2346295840544443 10.216445307833958 -0.06825456140202438 0.40975285415939106 -1.1150591589149186
Ni 2.2488718621960264 5.192879903182736 7.062022854076683 0.936871939645793 -0.3425082220791198 -0.737403185290072
Ni 0.5447716232600188 -0.1976322371991657 8.789599533354885 0.4073961810017564 0.8586774934222374 0.48220911234758884
Ni 1.5277175165988384 1.0920993228867573 11.415663961602084 -0.08870563016752465 0.2581140748027555 -0.4630636497673896
Ni 4.151076988241818 6.886930726087482 1.5472701555008934 -0.26360980781000404 0.21820309754043066 -0.11475501895640881
Ni 5.5842376166500385 7.79126157594391 7.908189065122278 -0.6828194365069208 0.551101050223296 0.2115344272710034
Ni 5.256127098053288 3.0096050323768426 4.908882778331065 0.49511116512123765 -0.6834848380050615 -0.6652672865557704
Ni 0.5447626545710128 7.268404944270136 6.78650921215582 0.5721136479192211 -0.015623308359553742 0.2102928415544185
Ni 5.085686132182617 4.5328382044726645 6.9531375883300255 0.1266625690272722 -0.24063520129170168 0.24532257946504202
Ni 8.17423356519057 6.986922639815757 9.208179908562203 -0.5707080258209462 -0.0479958111529883 0.01800594965911738
Ni 4.634641793380157 0.19390843752386033 10.300863093103255 -0.5547877550462639 0.5797675649200531 -0.6117078652720755
Ni 8.077479348193476 7.05971251978873 4.7713030889785015 -0.005181029980307206 0.04795853015714966 -0.3536408416571716
Ni 7.201462649529097 6.149058744183046 7.0322252817230355 0.11814244737140299 -0.6223514610288509 -0.3342123006189147
Ni 2.2758227726591587 5.250503730046505 2.601951210985576 -0.33239787311799535 0.3803777434313836 0.13020580629384026
Ni 2.373868480873123 5.274611566094725 11.258867062316293 -1.1570571006132588 -1.3074998027792644 0.7054250897215787
Ni 1.1473912906089574 3.309464180604586 3.5335181756155283 -0.37550935959548876 -0.06316429136331057 0.45523386931032567
Ni 3.623431076638821 2.740634049085881 2.6097351361739127 0.028227884497441708 -0.3940009906417731 0.5394043306116582
Ni 1.1853288451044817 3.2423873555284572 8.225721015036411 -1.2291127809289284 0.2429455945924332 -0.7486247650375042
Ni 3.645296740435532 2.64622065991936 6.866542205370066 -0.6084844732387715 0.39702923594513556 -0.012674510143874945
Ni 4.097892662436036 6.752633576911128 5.956527897290513 -0.03215138792156398 0.32964293608067746 0.2684635363578796
Ni 0.9190664058933419 7.3970697567507 11.421794060537708 -0.44903391114720087 -0.4259155799621826 -0.24394369683964442
P 0.225193915383609 5.3809084681942405 8.000862528621628 -1.041763949765193 0.03694032466977509 -0.3080662383511662
P 8.565806527194018 1.626830498804521 7.979426465028307 -0.39644868085131724 0.6196787992926941 -0.00787451765207031
P 1.6903467543452544 3.197597722632323 10.363975757638716 1.135007062791755 -0.4823469234770338 0.16636168738910706
P 3.9848244001369637 6.219758919617614 3.68515718185395 -0.29325154193583686 0.2424501430132534 0.6898938268551991
P 6.680032039407282 4.009362733257473 10.34840701039314 1.0121882929906052 -1.030793052575986 0.29062207473278984
P 6.270629323659839 7.740489827480751 10.121330567187165 0.40293685967882226 -0.49560173160441096 0.20070005565966081
P 2.2708541189498157 8.346405488039407 5.737130445611505 0.6856589628382449 0.3014078524943841 0.3612965584302165
P 6.814750716966921 3.9534339886158447 1.5267919478934158 0.4940613837004845 -0.14668374934420547 0.4597988629731887
Ni 5.1937947094613515 2.711718995730427 0.6294315631324774 -0.19549588575090204 0.022796686179541385 -1.0366240574354664
Ni 1.4793135020332726 1.1081981196525885 6.8258360165783785 -0.09466287619222406 0.4138943871315904 0.4398229340718941
Ni 6.87524452431262 0.6655780704334966 9.045357844002158 -0.3274328158032361 0.06554616133192584 0.02793760695053253
Ni 2.629565804435155 1.4260843327824604 9.05925841509261 0.3673445643965093 0.1387387834655159 0.4399910842186422
Ni 6.390128135976237 1.9699994462424026 2.559184914329203 0.29306590828759205 0.5188131367238679 0.5058938575590385
Ni 3.8420966832949377 6.774579958908894 10.298867559799412 0.8689786182379292 0.8049509504330589 -0.6754691667894367
Ni 8.115560401713097 7.072654338024436 0.24061826673618641 -0.07138565083183836 0.26511390315935635 0.5949049347821238
Ni 7.394065245933679 3.8958370678190937 8.253430676589455 1.0426111282568367 -0.5291160613117727 -0.5497422222025564
Ni 3.107309930408578 8.278620136531803 12.356827423468493 0.19555270713076647 -0.2953104813473946 -0.1143061043444483
Ni -0.025350896344455916 4.703978728085806 10.11734039744838 0.28803580206285234 -0.036067949367150784 0.4774831676268293
Ni 8.5699410928258 2.3212402137857153 5.615525785116489 0.6604330983919205 0.1475144727756169 1.261771190393898
Ni 3.7187413347059453 2.5225334698371444 11.15982672649156 -0.39385340932031526 -0.17850166518575064 0.22167511524943115
Ni 1.0545922654635227 3.3159485427559487 12.48097829477232 -0.3533546778753205 0.5328248776219274 0.2589298858358315
Ni 3.0242867762797205 8.215471597240315 7.921604430137504 0.456730251350194 -0.22658180852242912 -0.3013165783321585
Ni 5.701736411318092 7.844320340103608 3.594846071038789 -1.115656426179285 -0.17782700771622922 -0.18880176156017808
Ni 3.1547722326285106 8.408244598736012 3.60247214730062 0.15689102889451043 -0.7999702093890159 -0.03200432082073843
Ni 3.3103700181941957 4.129561103316342 9.22832896528316 0.4067084109061124 0.634744692486881 -0.3444625175920132
Ni 7.202189113338586 6.013766070527023 11.302670139421764 -0.2246791921830776 0.7047303776473992 0.20484235996280847
Ni 0.5490604503427043 -0.048876664476183905 0.25232061215125967 0.3461946697917715 0.6853607148715357 0.6396292742726919
Ni 4.581950745469706 0.33495183457055344 1.683956563428455 0.10842984806932938 0.21892609174938427 -0.643748181537072
Ni 6.039425489773286 5.679987340478458 0.3921119802127104 -0.3911910319968037 0.29281471150873445 0.20934641848074914
Ni 8.034967762304873 8.808920780080586 11.142696530490033 -0.5683354118237115 -0.24284917822388496 0.24113219553277826
Ni 0.16254582893865976 4.829127814476006 5.844991487073672 -0.895147049103181 -0.2823163830805719 -0.5284712286389222
Ni 7.835710398657815 8.788140327653604 2.569318636037121 0.37096596319918046 -0.3880866820398671 -0.059817743488580856
P 8.415616861098972 1.6272340898097926 3.5815751019165605 -0.1332006272561061 0.4217925589327445 -0.1386945604911418
P 1.934510343845526 3.3365227153357906 1.4289991567094213 -0.976457672358215 -0.10236435860153983 -0.05027689387768115
P 4.542533357288187 1.0528523397963523 7.9316457743486595 0.8261286129519385 -0.9364325381155292 0.9858578826261924
P 8.444899630703674 1.6758443842224973 12.277805201505227 -0.4489655198031106 -0.6192957049216625 1.494319500912407
P 6.314504150277358 7.74607732073151 1.3809036650456632 -0.25330636900146697 -0.2920366956921293 -0.021266879798576277
P 1.7816569771156872 3.3225225917973717 5.865167449861646 0.10343805128169282 -0.9733764623297301 -0.2773865498791223
P 6.980644557511533 3.9820261691670815 5.961464263719434 -0.1879964920500633 0.14799012686045482 0.39265758924000116
P 2.301473223216416 8.435904035630621 10.163519280271549 0.5406536296377269 0.16263873001156506 -0.8880407770757028
