# total energy = -340860.6550447371 ev
CRYSTAL
PRIMVEC
9.36656077676134 0.00000000000000 0.00000000000000

0.00000000000000 9.36656077676134 0.00000000000000

0.00000000000000 0.00000000000000 13.70890848326151

PRIMCOORD
 96 1
Ni 6.187241063426618 5.883052630192982 9.641092035816705 1.3576882507081973 -0.33121388011222314 -0.6518091041683355
Ni 1.0399879947899067 7.8921518531057515 6.415151970952611 -0.3834661525487202 -1.3935674811033094 -2.5214181353559413
Ni 0.7543771985335957 0.4273596463099265 10.41169680118665 -0.2869957908341122 -0.9759627349996675 0.026122665228980813
Ni 8.88077362767601 6.1260867870199665 5.935820087929927 -0.2071645803380819 0.9838467657334347 -0.33362968864256737
Ni 5.842804517814459 6.514911464948119 3.367799440336855 -1.2164683526920403 -1.2989310872736468 -0.14523287583029182
Ni 3.151491828508912 4.058446558204062 3.842538898528449 1.1568658105380591 -0.5882347218507998 0.04455593223350391
Ni 7.336115329196357 8.215429337544283 3.2782391945538145 0.6311909136973517 1.62690203496854 0.3509481253163569
Ni 9.012383175507203 7.528841687190422 9.810164080801526 -1.101036362273265 -1.3159026821309787 1.1078153328683116
Ni 6.710991051760317 5.032681295163567 13.162266101651491 0.02111364205016364 0.617909108986781 0.6762278993323322
Ni 6.300988579536646 5.198413224515579 7.1422453141109665 1.6344078564272817 0.6434170234498984 0.038576574721617435
Ni 4.620206050850548 5.949929875336724 5.656734038027556 -1.133555675057209 0.8176825390671143 0.2969585584737789
Ni 1.164291625084388 5.132697432928956 3.0710152735298486 -0.2835057754029827 -0.2723423025869955 -0.08384778785459109
Ni 1.5627076614197097 8.009430562691858 8.341418948808773 1.2133516614399296 0.528996762125089 4.699802000925964
Ni 7.006890078558068 1.831059632479682 1.1462347688955776 -0.39696830080021306 -3.368679930742069 1.4466070253277923
Ni 6.642811854645289 7.22187138535627 5.56868180855658 0.6744772351898126 -0.38047878778562216 -1.1658122210980697
Ni 8.960848357190557 4.100418117796374 6.867422922750533 -0.16479357157103874 -0.77076633413155 1.2763542304143953
Ni 1.5842039187873411 1.8302634747993993 6.686616450214439 -0.8774344623147663 -1.8854182303057205 -1.2253126904565477
Ni 7.826913756127298 1.1663335353702893 10.595122164162825 0.034486720922959964 -0.1360208703137206 -0.4080885790830907
Ni 0.5728654239583817 2.741358224432019 2.099505269149099 2.4123956480079354 0.49119306101375404 -1.0505609792315325
Ni 5.121757289745778 2.918564190941045 1.008487313677453 -0.07408428070992402 0.8124775978274072 0.8657693672720121
Ni 3.9255163252796947 0.9902515561746028 2.91691286624653 1.066565582189905 1.549336480578235 0.5927845460050114
Ni 2.655597992424162 6.2229182940642245 1.129386199068608 -0.940559158689393 -2.1233725423311496 -0.0805943139142999
Ni 2.8634700794654866 3.4890533183878074 0.891472741109983 -1.9552509348281426 0.46119137244534125 1.1953053454611802
Ni 3.556792287138443 5.756529124954654 8.812360266537372 -1.8428435901683038 -0.2229002459057839 0.1301484706933436
P 5.7536161245009145 3.23733635956527 10.663598281259794 0.21662212620655596 0.4262189701352143 -1.9873485866936353
P 4.64713491356599 7.321700191902767 9.531598811687669 0.6314644790737125 2.33348129289922 1.08001579415754
P 0.3536326351474707 7.909021029366799 1.85441796216308 -0.3842775927064221 0.3466978346804352 0.2948188864229568
P 8.180454598977512 6.921270344964378 7.785810476734541 -1.1623625719865724 0.8433195229089283 0.15244379175643424
P 8.971535603228231 4.350449095648901 9.270868411268237 -1.045341382703806 -1.3225957778804383 -2.0363890370610545
P 4.104117909369452 0.30194982516789953 11.998791240681465 -1.4128286433257669 0.18069455907201137 1.661816330347222
P 0.8079632936970896 4.742168040908904 0.8979403514421613 0.12376776397798041 0.5092995408064777 0.6022734593320531
P 5.95422912681025 4.629450846502771 4.830374818635464 1.0817145220162014 -0.23193844484865217 -0.301577545303029
Ni 0.37244162618012444 7.235237467824073 3.9391043952418836 -0.595448980211052 1.3667007386194527 -0.3579212142000804
Ni 3.3135614325316243 3.230967098123009 7.137049682755051 1.2339549395125782 0.2318962787568071 2.5624030624087353
Ni 7.0904023359392445 3.1021956182580004 8.708762355866806 -0.29894550699682065 1.958973120874736 0.8480907190453265
Ni 1.121739338713517 2.447341876384112 4.320979084949215 1.26293924256007 -0.9897543894671212 0.6270684068885458
Ni 5.789564985405912 2.6737972203393285 3.803523425570222 -1.4654190158279732 0.07877294443484498 -0.03708276378491033
Ni 4.915599283357297 1.1158384053184809 8.463454934698591 -0.7319761007372296 1.2193837265666225 0.4290279003389192
Ni 2.519895257460222 6.62136243008238 4.816378366616096 -0.08247404743551603 0.24137233656804238 -1.3766419089925648
Ni 2.5296364808425036 1.8955765042654094 10.90824723319361 1.300149018841148 -0.3627016663078592 -0.5056377756841742
Ni 7.928700173911197 9.121306912730814 6.243106042867909 2.2055467991380597 -0.5312390211920464 -0.9970982314267021
Ni 5.49177391329737 3.1404580197162897 6.449013025423078 -0.16228314644435923 -0.7544174604598815 -0.4619789013436431
Ni 1.8700900919354204 4.265728551905884 5.846575495250716 -0.7627367789588542 1.7826481516253299 -0.4875294961192378
Ni 0.6649621344451943 3.561747197878084 12.818186422011317 1.3450919021004255 0.19035856452433667 0.08388995394643617
Ni 5.995563760258336 7.249240476436103 11.747369328528677 1.5502008854610592 1.4377819708369948 -0.2235237384223957
Ni 6.140736088337167 0.5718276090057309 13.031017166416662 -1.286936633915932 -2.302579718224357 0.49694050502049253
Ni 3.52490851368336 8.959583871463048 7.323121099198049 -0.3097027455133247 -0.41596875316211585 -0.4174584503337649
Ni 7.91717930394946 3.0757631832726164 3.015932401927423 -0.3537046050155715 1.4511018278743524 0.7496012700181606
Ni 0.6595847918069557 5.087101014251122 10.88087064886502 -0.16568574436800496 2.327842349445888 -0.17258864213542535
Ni 7.617224556262739 4.2468455650417685 11.177134034883512 1.3372898895575032 1.7704719212741122 -1.9804968538791248
Ni 2.7571689793063374 0.10116354148109001 4.722060844529342 -1.1273685724098905 0.8566812889278148 1.3897123690232775
Ni 9.135066390758286 2.2018349474677796 8.143379877446986 1.072841645006604 0.08986031259725814 1.1033956065340609
Ni 7.841741022102444 6.651035695154562 1.4581478049401437 0.5452178519696417 -0.4412190430884724 0.11593875485186485
Ni 5.842514154425179 7.67979318337201 7.627170907329706 -1.3977941175901474 -1.5524333743360037 -0.5676707816565191
Ni 4.9586667305801155 4.071981238768867 8.699920322335196 0.1726395499780188 -1.576249760029311 0.5796446661889436
Ni 5.033692883745573 8.840909544296213 1.591302835327179 -0.7195592151301156 -0.5886880073381345 -0.018760568436954787
P 2.3499202760003506 3.875517622957945 11.55522557062536 1.223895498394047 0.38268042342263126 0.15978557683348613
P 0.6012713933347719 9.338592393521362 5.135261060659466 -1.1618468086924183 2.2500752205677377 -1.9793159461971463
P 4.233095453575239 4.912676916342613 0.3079228810822082 1.0074389512310777 -0.01159438970581874 -2.111681736256783
P 6.628584048570591 0.8594091296847649 4.639478686649954 0.6410284686130637 -1.170509626573739 -1.8960412572372054
P 9.325497941320949 4.150163922972622 4.761515609195867 -0.10085383549428438 -0.6957148044123502 -0.08746121623746228
P 2.2624646964615387 1.32692322276377 1.807437165777649 -1.2187260383779657 0.10781766840662721 -0.8098985242463212
P 7.037293935383921 8.707754513909178 1.0641593419632875 0.7892723633555374 0.7253889344380152 -0.5944441930956214
P 2.2407998409969063 1.9880993932751967 8.673256533294483 0.07242617628121076 -0.9901595953253399 1.1395034080002115
Ni 5.751096519606843 0.2548566300511341 6.451604752836421 -1.5127663947636851 0.7500586692705534 -0.3151573408699927
Ni 0.9690269290743622 5.824024563120734 8.025016520103508 -0.9854277370673094 -0.9981433848617648 0.5643951962290409
Ni 4.6817162565730905 8.44288690352056 4.167549196741711 1.1536596448959358 -0.4000988760093948 0.3690556335503451
Ni 2.3670236162850107 8.492539043087364 12.256189018716842 -1.4945383017914324 0.4262709064190724 -0.13093497115038097
Ni 8.340435459909601 3.318666208246378 0.5000160595564258 0.2120902997744734 1.8605114397617122 0.1847921261801527
Ni 4.935100463243749 5.314193284350565 11.536608594092069 -1.736936765631144 -1.0816263331777694 0.2628140513815861
Ni 7.912851952793101 5.371647769184137 3.9138390337501847 -1.2839382134092405 1.1689391967628255 -1.1437894369700752
Ni 0.4735611448247753 7.271841987995185 13.428356048243367 -0.536430849805631 -0.6832809495243716 0.6646227109932361
Ni 7.609871805921306 2.272608681964434 6.041187341962909 0.5069217846029205 -0.4484214743741825 0.15200798977059626
Ni 8.410797065724697 8.833509961150057 12.387246876108401 -0.6127057104089706 -0.05753177566788156 -0.41535631638909754
Ni 2.1899581481901516 6.007384360170297 12.400968887892097 1.200412070560126 -0.8251904174083853 -0.028356953876138256
Ni 4.1028721567638335 7.334579213201458 13.224875004972823 -0.12389040559877373 0.9750453653917209 -0.8857321835471843
Ni 6.723729574644839 8.350879175362719 9.439529264227595 1.1326287923675655 0.972664780974686 1.6572145699091523
Ni 2.281085419619208 8.434147902159339 0.9611852442516253 0.159617426686738 2.2151902357650948 0.4359202565833783
Ni 2.9712323631319784 8.975750555653258 9.961057504305257 2.103178840992094 -0.040439338961969065 -0.4686280312290445
Ni 5.44761994500499 6.452043107888623 0.993576685309901 1.1332111472335966 -0.22275986367317763 1.423378136706839
Ni 6.815034810731841 2.6060957178324706 12.444440033891624 0.827555318096136 -0.6278387093956671 0.8511140792526826
Ni 8.832526472250883 1.0672353205774618 3.4203177475526765 -0.6861027352438829 -2.4984741249652584 0.5229610974539703
Ni 8.835420739582734 9.292883576112194 8.399873782351218 0.04460838273799414 -0.16510390372260597 -0.3494717978811465
Ni 2.2061248323803615 1.6769047724550739 13.405983080771328 -0.05497404224303436 -1.6924574522718467 -1.369186224045468
Ni 5.580831174757693 0.5799109511008359 10.672495577500976 0.08308159911252788 0.7307764240021737 -0.5370350590485332
Ni 4.5767171083852265 3.0871903876249083 12.344022070661717 -2.982972033347024 -0.6554844961373937 0.9971992757809406
Ni 0.2345143329918655 2.777054188191515 10.692578420822082 0.3130996870100156 -1.028853412351112 -0.7342476703802259
Ni -0.011249239694346476 0.7528935352799866 0.8216281694590232 0.2929602359476632 -1.1927054459444877 0.7070160883577824
P 7.0371066041650305 1.1353770514487114 8.17181207319402 0.4546193756547784 -1.7589580070972417 -0.8700399696229081
P 8.853479469083734 1.6243958318001976 12.646125507429106 -0.06666227721424003 0.3260932710562061 -1.1983698433191166
P 3.596937367346577 7.059380286091055 2.7914084428389634 1.1371359362092994 0.6768274805895441 1.1795740507688526
P 1.5382515707936162 7.174158123904978 10.60747384808034 1.522951819937119 1.0285783043128542 0.03693132580871059
P 6.824991465015846 4.4598598940416245 1.677531395382261 -0.3756034619711918 0.24301758548094918 0.04148809194145758
P 3.3840822698827773 2.226150539679706 5.24523385270886 -0.022893102548089603 0.06469255508237891 -1.3769812946098545
P 8.242882727672615 6.5156233235799 11.892245673281664 -0.8286261825628116 0.05971695624465844 0.39090718220779774
P 2.77028216462864 6.194659379694664 6.898474008937651 -0.17891098480902737 0.23806744056452547 -0.3675980751682121
