# total energy = -340872.6374301366 ev
CRYSTAL
PRIMVEC
9.17044163017211 0.00000000000000 0.00000000000000
0.00000000000000 9.17044163017211 0.00000000000000
0.00000000000000 0.00000000000000 13.42186828820143
PRIMCOORD
 96 1
Ni 7.9206203869508185 -0.09719384150403947 12.506805877878485 0.46789218150428447 -0.2037766377024555 0.8915878709970129
Ni 0.6332822630687358 6.3383890886905805 2.6100837293422257 -0.3912987612192616 1.452782558010885 0.9451238952419401
Ni 7.970388373085064 4.04156947579263 6.083314174829249 1.4882966917570948 -1.3705579075820138 0.9421750970262612
Ni 3.779698347720115 8.073189022535018 0.9753388147563664 0.40764789200124635 -0.47845478751147913 1.007913319764335
Ni 4.729132499268076 2.4451698453825097 5.805897314290404 0.2851805920022443 1.4518572179831382 0.5561069880783197
Ni 7.09462037827497 8.317278664498392 6.605894536033572 -0.45458826530652674 0.05225870019440033 -0.955537120155464
Ni 3.639830773642444 5.4534048001519215 13.023090730978668 0.5258163075145783 -0.4215801858116223 3.0620820494063135
Ni 4.937989304907924 2.096674726703014 8.302874652001423 1.798669980974883 0.5393953317505936 -1.7976214851057106
Ni 2.0487499993144804 5.09595933054797 9.171471361542126 -1.2363424659081483 -0.6882979431229888 -1.5131428042664972
Ni 0.964207732838226 3.0069969451640826 6.754220008326025 0.16010799316991137 -0.14278364295885085 2.0207798697688877
Ni 1.7144415536679083 8.893347459962015 1.93719157821201 -0.6780366704062968 -0.5936774901329259 0.31826966124672923
Ni 2.514892712266364 8.31504107676728 6.274199666220474 -0.8667438153701396 -0.8326779840346822 -0.5965252439943661
Ni 1.4366505391150084 5.430011003831955 12.192827384039726 -1.482108560668512 0.6962436803326267 -0.5744584940023139
Ni 1.6018927248811745 0.5376868295217996 4.34230952025173 -0.295667093355865 0.4522758151232662 0.24364776286578038
Ni 6.088366171063145 8.407534149947674 3.0992433334675646 0.22023375481721427 1.3931841296219618 -0.6063355452165687
Ni 1.347678915478661 4.61589588736727 1.028244925979085 0.4060239832445782 0.023799416412442882 1.1822477409462735
Ni 4.602901371732071 5.598792980025212 1.7655126595422828 0.19872339154926422 -0.5030070229295466 0.17300618928881817
Ni 0.7544045376334144 9.170404839193239 10.343280466575981 -1.9133296120040082 -0.9835215211835319 -1.0826619735311356
Ni 6.542614821362345 6.124240938293138 5.30175871098473 -0.5724489197714528 0.5341672505824349 -1.2074787475989204
Ni 3.006345843816095 2.771793461034518 9.205992571603625 -1.8555391833581012 0.9623387164583297 0.9432248784470143
Ni 8.967820615553727 5.989582174999372 9.649021186701932 -0.2029086332752054 0.57728593614878 -0.6594514512049418
Ni 8.040056217319792 0.8186113839424112 4.473535787284201 -1.7396677914090621 -3.610667275186292 0.20763637776817787
Ni 5.886267980824243 4.310437650745636 3.529669010783616 0.537786335392261 -0.5530496893092346 0.599150083211723
Ni 9.013856231988942 1.8368210957651103 11.425217410616131 -0.41825523520344743 1.5479858800876114 0.4777060822709127
P 5.137363874015101 6.552922397631903 3.628024747228361 -0.14016831682319086 -0.2375082256269458 0.02215005373447798
P 3.0476861941925795 6.668699221834014 7.679106722010681 0.13786743660415612 -0.5964573668709082 0.584274194541155
P 5.300276767634943 6.782339333161742 11.258572147297258 -0.2933253325965658 -0.5191386383840866 1.375954910227869
P 0.27632099277709 7.589108925968139 11.62255889283811 -0.08897456755819516 -1.3455680704058957 1.0816404742451566
P 3.0570217036609155 3.1505235254086172 1.2256377626735822 0.6167264015325894 0.4431838801243271 0.023365157088501697
P 8.455926569853776 8.302468401442043 3.054803373856996 0.6164093845128029 0.6586672647407495 1.1329530084762036
P 5.938704565441089 0.5928653761534118 5.595281617966836 -0.5170910118264385 0.6426948005718932 0.15957937435995098
P 3.4452615158922497 0.4478155855722461 3.235623388634815 -0.5366236825427273 -0.5578684508541166 -0.6758126661717845
Ni 1.260669766327799 2.3327310618940276 2.36957697888109 -0.02200658617807823 -0.8109943284136614 -0.7677162344513165
Ni 5.824367500557769 6.098435315853159 7.5210780055449025 -1.0862658888323098 0.902629473523155 -0.4487600886605239
Ni 8.264576137077439 3.6772736863725206 13.2087288957316 0.15528666052186804 -0.978723071353624 -0.21529492275470016
Ni 3.355482893402058 4.859600370786763 11.005448703391588 1.114448779024429 -1.1344478478541755 -1.5745374053238947
Ni 4.416649704441387 8.415200639059197 4.900042017894195 -0.3887546546411692 -0.22293109914371928 -1.7095691722514685
Ni 4.667149485027911 8.246070186088144 7.140258914592328 0.017593030491414863 0.37643392829228717 1.218884675443017
Ni 8.413394062079567 2.237129209038027 9.086698883078226 0.9776807461320389 -1.032120256027842 0.6505909154905183
Ni 4.888120443916947 1.549630378653227 10.631448752753998 -0.24849326388353976 0.7892988457180987 0.23515592334468535
Ni 5.9806409945164365 4.767061445398763 12.602369214880097 -0.6778998877181165 -1.6274193409245907 -1.1251345408730493
Ni 1.3637180176988188 2.8967590676406307 13.139459048658882 0.8444562076165327 -1.8595369916635844 -1.4758530666771035
Ni 7.007941365018862 1.3125652948949078 1.8629018314507186 1.1341585987485305 -0.8153420638593958 -0.9944235128080164
Ni 7.363479382786455 7.629862368087282 10.744661521506849 0.007473939779541967 0.08834001929798979 -0.825711580019178
Ni 6.956990391928413 3.7573132999674534 8.506820686206796 -1.9405802201898448 1.1196051264143878 -0.8344546163191306
Ni 8.407057286988584 -0.062000438079053886 8.35501869953375 -0.3614657370182291 1.754692289842352 1.0949338489199532
Ni 0.20525190507795946 7.899904359554971 5.542734988051739 -1.0204471905652877 0.663852922706747 -0.5946267414200727
Ni 5.686159776395391 8.983116912010686 11.928215210996598 -1.7361852321771 -1.603302136161413 -0.2857480344699401
Ni 1.0388734677018767 0.27716375635286616 12.983617482495852 1.3233784216827338 -0.7623233455705194 0.35537376518787833
Ni 1.862122343921437 7.179025122033879 10.119175967819235 0.5407942689806493 -0.014596152646620023 0.4581387016619465
Ni 8.711295854887931 4.176310773060084 2.5206673392921117 -2.226926550365416 -0.324731357711673 -0.16016481454977577
Ni 2.8113180639898525 1.4262329175471986 6.843327354496882 1.3404217503182658 0.14045499482567422 -0.865003178529949
Ni 4.049905407135181 2.7024832640191074 12.686336528578456 -0.22949409707321766 0.11944445401227816 0.08640346439690925
Ni 2.2696017424637436 1.2947654679027258 11.148136188236954 2.3458110181091665 1.3815151779244659 0.3459524718739784
Ni 4.271793410176313 7.504630818677062 9.509984454626059 -1.4105532170280288 -0.6614389139486156 -0.1787551759574534
Ni 7.270839582541725 6.4695447433233415 3.0381067509797854 0.5512136645417605 -2.3794505605404828 -0.5577964599656006
P 6.028629914995617 4.316196688020798 6.337376671946666 -3.3539482809588494 -1.274097830280051 0.4504349052597855
P 2.3915594442509818 3.1186379002402416 5.173566026007392 0.6694594702602471 -0.1908319046163294 0.5579571539131811
P 6.056242114415225 8.977688010630278 0.6861296834657202 -0.03058430054476023 -1.2887333208050384 -0.2678608697768741
P 5.386240486452416 3.680758454150485 10.64242760534289 -0.12598534045458948 0.20838251190558307 -0.19004077617360174
P 7.41830028219875 2.5650091751784063 3.428804241538736 -0.10518794409326401 2.487170784137297 0.882652516180596
P 1.4593382114378617 3.422399605180498 10.855929239613104 -0.05597291582119393 0.3361910216118404 0.248525659783372
P 1.534086480275201 6.375648592590239 4.803069184030811 2.172254355633517 0.6091560453844993 -1.7626881635636353
P 1.6431230299594075 6.649340419783269 0.8221768516057602 1.907575226018734 2.2809246018484264 -1.1750630502723762
Ni 4.596949755184968 1.3328503115392698 1.425241592818783 -1.737536861108988 -0.49149670829710196 -0.5694661829940451
Ni 3.252627221302978 7.495111900378306 12.154870926584476 0.032307968104086295 0.2545590104616454 -1.6584196459608471
Ni 6.33464754855003 5.642646031378439 9.673972123992156 1.4465167796068312 0.881243037427579 2.7793339781049617
Ni 3.56093746523763 3.2709589339033758 3.4310051475037664 1.9678485689874947 -1.1012273952381486 -1.2973449737334497
Ni 8.07455541832164 5.833611305610896 12.351152305766634 0.857425366182691 2.2572349715409703 -0.6263482408930696
Ni 4.483254621208115 4.7354142517099325 8.859251758387089 -0.7391749324785141 -1.072917749660178 0.1422192858149486
Ni 3.77687385173166 5.399005741049591 4.893988609446209 -0.2393288237754523 -0.1072258004588992 0.11083742906955751
Ni 3.0238797280041685 6.967719808507935 3.1634400922908883 -0.593257628986688 0.4050875874732378 0.12315635564622661
Ni 8.833051806961707 5.4408596361512505 4.669159645809306 -0.1879062463291022 0.6899650464127666 -0.7157827788068188
Ni 0.8663811308692404 7.654961866530147 7.854437310494054 0.8136379366840955 -0.9644336513141455 0.8102014001987208
Ni 5.7253909252220545 3.332886925494414 1.2239724104933762 0.19172382030297946 1.6390394416620224 0.4306376680282003
Ni 1.2678960742463148 5.466683599474271 6.6664542977496835 -0.166751466628358 0.13656337308075192 0.9848584948274007
Ni 8.187425212561608 6.163811393456078 6.995785944782831 1.0905012670698961 -0.4264966492766333 0.24912884058500964
Ni 5.320625977369952 1.506171656285401 3.692637844096736 0.6992919802406472 0.2973884469223459 -0.06439893510136006
Ni 3.2709039112542504 4.324651835103123 6.96040638139497 0.47391524776991284 -0.9924280796445424 -0.02668933636572823
Ni 1.6489646012082586 4.410120350078464 3.416094009590686 0.15640817572082094 1.0096318451173387 1.6565250000412957
Ni 5.92159252156298 9.010105521406869 9.109717608339986 1.2949034541714926 0.8888666154111078 -0.09923404050267426
Ni 8.23772508430407 7.450882860922719 1.1324459018492896 0.06444855739237287 0.3128428338042032 -1.991072572512442
Ni 6.506052271018279 1.9040037503476583 12.769833398626792 0.2693503098382071 0.6132674964497117 -0.2914620541355819
Ni 0.07640445057602469 2.5575352653388244 4.758025809368163 1.5465424627728657 2.1741826830044815 -1.7480668141060347
Ni 5.866799133475247 6.894227890158967 13.425760232943231 0.20225865839603233 1.0520499050722332 0.4639992742077815
Ni 1.2387340702096643 1.153082146403904 8.394438759455744 0.7933794435453756 -0.40385037263202705 0.5432136770554193
Ni 7.1498722884387504 1.9152742229769175 6.99891398238563 -0.13946769121174044 -1.225808913366676 -0.675589751527701
Ni 8.16592969763648 4.132751175835528 10.76867340558533 0.051093733352021685 -1.2566616370814745 -0.11370575175628804
P 3.5300147364289556 0.6668213188433404 8.99449009358498 -0.4618796567616174 -1.4205776911435661 -0.10799276053191079
P 7.41457708294124 7.301340471040435 8.538791596481317 -0.8947004484840656 -0.4479280796775318 1.4173116187977848
P 7.476926914842243 5.2145056280894115 0.9159675422613716 -1.3944144024846372 1.2760801508174024 1.506761840440818
P 0.04335784751109568 0.8519725331515091 6.495741026572113 0.42234586033305327 -0.09943664343178359 -0.5118809283804088
P 8.702794855598002 1.6373089700351193 0.4063954523545292 0.6048623031051519 -0.3609923969262363 0.18835079006568853
P 7.127340513621753 1.0838178015960984 10.51933551993951 -0.19286770409943557 -0.5823227272417391 0.42716642165014823
P 9.114951179315996 4.17884181491987 8.272930409303033 -0.008338087552050157 1.0659104651044093 0.29129338976820157
P 3.5213211578670864 0.34703976961011995 12.823896819569455 -0.48865641063482934 1.9332926853894965 -0.48489257271702296
