# total energy = -340897.0555299375 ev
CRYSTAL
PRIMVEC
9.01589143495619 0.00000000000000 0.00000000000000

0.00000000000000 9.01589143495619 0.00000000000000

0.00000000000000 0.00000000000000 13.19566845533759

PRIMCOORD
 96 1
Ni 6.275899040581382 2.0571199257761417 11.490010049734911 0.44155277227880724 -0.07932084651851501 0.4326631830986613
Ni 4.651100133541124 0.29925637600849503 5.98356236138588 -0.30877586282368114 -0.1287994128646169 -1.3684992252807722
Ni 2.4634932084497567 1.5592894385800598 4.650193134844856 1.5308988426983379 -0.1252453769647714 1.1848921205476564
Ni 3.4081873475535227 4.25688027276186 4.892570955434296 0.16048723088620104 -0.04637627327169432 -0.2905081748627449
Ni 5.097936737773971 4.615234916704535 2.6604047892239024 -0.3060594923337826 -0.35476338529738904 0.15293230135707855
Ni 7.243718941672543 6.099962931644926 2.6190894659072423 -0.43906960084563734 -0.16946886555952104 -0.33533458714881603
Ni 5.0614494244160815 4.583210469695091 11.46892278084122 -0.04817784525680735 0.008540176260527228 -0.026778810755740977
Ni 5.633282349971824 7.720028495588347 12.42942267953177 -0.7368447416834406 0.6540066260402866 0.019452195187340694
Ni 1.6706988112421381 6.530002929802715 0.39673799930678133 1.0209022758248352 0.2086553059509955 0.12375645112407074
Ni 2.7159471895059077 1.6542538249399912 0.27754160105853826 -0.1767180909227666 -0.5399452907167928 0.3432538419958927
Ni 0.600226673012625 8.999924468972555 4.741691812468742 -0.07965174749537249 -0.2377987602841711 0.5114245575692804
Ni 8.6586188760701 2.202411019119946 1.2349598679957583 0.07308463580081608 0.5656244406504517 0.3354153197880804
Ni 7.015355423006379 0.6136747769426044 4.843153951914177 -0.3270646338305399 0.4274664693890703 -0.4318579135885465
Ni 0.7782409449658828 7.641707445146049 2.6518279715324375 0.21441920501796619 -1.0517326309421307 -0.27811262941186937
Ni 7.725041331325186 3.7789388424640986 3.8723741336064617 -0.47069956904609256 0.1590903505386744 -0.8745049473727972
Ni 7.602398157713286 3.789027625179067 12.835387542315317 0.15376662433291582 0.037113359912529634 -1.1280915666188445
Ni 7.9199558921070485 8.717934426992153 7.034743196331015 -0.9473754102802782 1.1238546457193612 -0.11283440489492826
Ni 6.834649907406636 0.7097147591719689 0.4285000838702867 -0.42237234269561447 -0.40328215883338286 -0.9301847574336044
Ni 1.9348283719371488 6.487141381074423 9.081140522211793 -0.012749843466500623 0.1951307891019994 0.02175616073016898
Ni 0.1216415080536939 5.002314191326288 1.4717397214826755 -0.23475123170709894 -1.0854871016847565 0.06171290362876468
Ni 6.349856399482979 1.8924446654643456 6.971865466632658 0.5112391810313518 0.35681975360578544 0.003731442017974218
Ni 3.345878520615947 4.190622485297782 0.3576081281171166 -0.04611427785955929 0.5241350631574134 0.2109191622845077
Ni 6.071193221507781 5.739651839222226 4.89196418592874 -0.4894825060805505 -1.288274636001065 -0.40701360085135707
Ni 5.348677699423648 2.8229297593859934 9.371840817079534 0.27651057503207216 -0.326154977532077 -0.8243828339054253
P 0.1574895946962196 5.512532513598659 12.326601845220255 0.28530451917461835 -0.03335594975262642 0.6891052695156326
P 4.002496890900523 6.146737377333269 12.760805382124937 -0.7551810780987833 -0.36396150685688927 -1.0519370336434528
P 2.4365537243100555 8.438838486219531 1.3432263008415382 -0.9383500668532163 0.6234470080858747 -0.06424595446326355
P 6.280993019342739 7.722805390205158 5.702957160357238 0.03642841803036307 0.22771077992054978 1.378634513942561
P 4.590819882216478 0.9494545298754402 12.628677490536141 1.250804149859433 0.8217952756839072 0.009908774473279707
P 4.00678845530832 6.163389729142517 8.155331971269819 -0.011835044961715103 0.3838034812834809 0.661507305292706
P 4.689354561655166 1.0946915278695666 3.7096454042939166 0.14706684371523704 -0.0499400793635527 0.9227725241299334
P 0.18331651781087444 5.66566743264579 3.65011978309728 0.6819452614320836 -0.8419031021773759 -1.5576354873622333
Ni 1.4692387131492237 1.1271667694596619 2.3756820304955943 0.2244879021078779 -0.36329790513096144 0.21180362177199005
Ni 1.755186731547741 6.356311777877901 4.912799911446427 1.0908874467647212 0.9864800895912236 -0.26168816530725897
Ni 6.093516569141617 5.63362495385312 9.207779538986584 -0.9236590404999447 0.5211178735976444 0.3747308295582514
Ni 8.313878228463084 2.074214056274426 10.023364307013592 0.3816617523501298 1.3982600014829727 1.6015861819115706
Ni 2.4039252125625383 5.134883861604123 6.97492726342444 -0.9412201893121596 -0.3227989165756505 0.32808639022683495
Ni 0.583435476472538 0.04482971786741543 9.161871520482253 0.03512718272043628 -0.30992488882645974 -0.3332360527485745
Ni 1.3992663783405819 1.2463027612340978 11.165567780505446 0.43963215821732676 -0.12911771543598408 0.1619612443285662
Ni 4.011071003824504 6.9220499607032435 1.6766150393186012 0.3392704318681125 -0.43447709637894844 -0.46148936330173423
Ni 5.586372665909286 7.829066688756202 7.902226141250047 0.13965718151472722 -0.19779033821203357 0.4410007564300792
Ni 5.477758219647243 2.97638023463958 4.605539226863893 -0.9316397447125762 -0.5681549203817893 0.18275401270420139
Ni 0.7655195218999127 7.482748260116908 7.01750931951273 1.3826037830029543 0.06252125846267297 -0.7295127267984017
Ni 4.985030727104131 4.6091041104076815 7.022088490862982 0.5038030364682807 -0.7394472123032942 -0.045890848994843546
Ni 8.2323114570401 7.076447104576197 8.930907818674893 -0.23250845841950923 1.3285147144680347 2.238155586312016
Ni 4.717745604344564 0.2991445789524935 10.568516504518929 -0.6059462801979499 -0.3663117522566207 -0.8838660768727229
Ni 8.066941973074101 7.187658127622789 4.61241384421882 0.3312118232296941 1.0175151045201571 0.8263353296461059
Ni 7.199117325862937 6.167113292378693 7.168705821863061 -0.3876439380754937 -0.942262514533745 -2.264119614475946
Ni 2.3795282098577086 5.154087710739854 2.716104066019974 -1.1260552529151058 -0.2368520801001856 -0.8274522168593684
Ni 2.340687748788822 5.332034363506015 11.459409212011163 -0.5188421901895903 -0.6465496555416091 -0.1998654755735074
Ni 1.0307598404416474 3.1445807085720667 3.723382016755513 0.294029557752442 1.5241790074760009 0.10347790338069277
Ni 3.60027993426051 2.6354442932932587 2.585756813024749 0.17024945247928744 0.3608736119601849 0.055742544977942704
Ni 0.9787020822680745 3.161927284035516 8.426490321066339 1.0018185197205067 1.4385666715218193 -0.4339916721020977
Ni 3.768768916724613 2.458967230860021 6.858514972506297 0.19630064104038453 0.5983371003921244 -0.03410414077256062
Ni 4.073965863716927 6.796359415726143 5.978984091624788 0.008531177399462726 0.5021367045094514 -0.5608596722719565
Ni 0.7692043168021536 7.306325293033348 11.154668469134469 0.1484045886900541 0.2540231925628335 0.14611784953840642
P 0.2518625385663369 5.567637643137432 7.797742776525089 0.5112831468954099 -1.318034383762001 0.6867732789483463
P 8.506926499681052 1.682365374989385 7.964800035401045 -0.6762842064915644 -1.6682093783577592 -0.9212681716702651
P 1.8454628542689027 3.364307003072958 10.450890674589672 0.1643695966597427 0.16308018842435784 -0.7358420114505393
P 3.9190998934800954 6.131166932517585 3.7808628337343166 0.6071284734315092 0.4488644754488721 1.0302639195453933
P 6.91860589010707 3.983139771607371 10.408651222382678 0.2940876646838871 -0.14081854881268005 0.3734635328100536
P 6.311520828344421 7.657151667479152 10.27920195219211 -0.6177928951238909 -0.5719020461290474 -1.2687370801887696
P 2.4284845013164027 8.431959360918796 5.803824250956213 -0.23063360999429955 0.5028463289819662 -0.32453723942299595
P 6.986089838830519 3.952278374616006 1.7235788187308185 0.004115821940586461 -0.0816626072778142 -0.0037486684091548343
Ni 5.334432590675077 2.8689468701788434 0.5766203640022567 -0.11928993071228489 -0.29539172820729126 -0.18625328410671146
Ni 1.61764028909952 1.1791073210422656 7.147552736960596 -0.5673072276695132 -0.368525729188804 -0.8674236150459835
Ni 6.759836038801802 0.579723633895458 9.197407657274965 -0.4219830776769959 -0.4121331814661096 -0.5927493218917018
Ni 2.983998663052582 1.8507461667541316 9.210603316239782 -0.07770490818164683 -1.3499235191611139 -0.21238211998327938
Ni 6.498393213807471 1.925415781093157 2.615408277361646 0.02076860000591907 0.19736867729358265 0.1444062661639384
Ni 3.969246282631708 6.831467297667239 10.450731994897284 1.000547109207251 0.21597703642338933 -0.332145390787557
Ni 8.149293127067418 7.2510127979874754 0.3532759921970609 -0.37886439211065076 -0.3729595965904416 0.1543338096902955
Ni 7.609484648521119 3.789766928291335 8.24718767820158 -0.2493306721831706 0.3314437367348421 -0.8270637231716983
Ni 3.0249217950840754 8.324354694517412 12.28829512493486 0.1834474392268002 -0.3088367979686036 0.5916527463934133
Ni -0.021414545759243234 5.009328555001217 10.05595765678382 0.4371947524204277 -0.8532573508479306 0.27256521723107896
Ni 8.639369947476304 2.4443344387720907 5.868496143085561 0.5110967419162166 -0.2922557536814709 -0.015777317438914765
Ni 3.7263942261434226 2.6248776683228003 11.416971410188681 -0.16426726675392356 0.1008443224125876 0.3029335451102912
Ni 1.0401904630688656 3.257649005290941 12.454402108834802 -0.38350780441993304 0.9088867672867765 0.7824229445338718
Ni 3.232783176222234 8.379279506223925 7.83822683463503 -0.9291794560975416 -0.24595969882840862 1.3680492822275472
Ni 5.480426923564698 7.886687252055008 3.6196118090571456 -0.10397181229797577 0.15473207356997867 -0.2559828873923656
Ni 3.0464066647979005 8.533712713663332 3.5163816532663983 0.255059861357464 -0.9073250792266115 0.49722512614044684
Ni 3.5739535307504937 4.320703769490423 9.311748096300438 -0.6611954304792419 0.6355368493708732 0.09992515303242791
Ni 7.1925086773105935 6.034651812800215 11.515688210637952 0.3794423761013078 -0.5221139189623266 -0.424588633620643
Ni 0.696928421686385 -0.006965677860218644 -0.0002596576784549533 8.741750748372042e-05 -0.07315277003459016 0.4134274747975009
Ni 4.605452674304409 0.37694992039452674 1.5864489104751187 -0.10561886098309553 -0.27904799674194525 -0.09173593235341619
Ni 5.948640206812011 5.4695808059542355 0.4376025280427909 -0.16462002210765198 0.8314636520116068 0.4355333055576048
Ni 7.8817285116678475 -0.31594388979503224 11.23058317810525 0.5076038982716097 0.5174494236071218 0.7234966025113089
Ni -0.19329350346984148 4.966313736115503 5.650728100243017 0.23655948856043127 -0.49602904894981664 1.3044368475832244
Ni 7.746796677787401 8.816252725032127 2.46273407037594 0.17327024158348223 -0.555933952835565 0.13191713255799214
P 8.64291319288022 1.5008574450360823 3.5398572318483774 -1.1635087697758737 0.5033104131025784 0.2665966583524699
P 1.7359918983036233 3.2928199984733286 1.5657844868980788 -0.1683396370510843 -0.18555394404684172 -0.35513439548356257
P 4.767017452009712 0.9318104299887616 8.184006112955865 0.30570056633246706 0.7446704083754465 0.1875645467189673
P 8.423565565827076 1.5555117799942046 12.260755182413732 -0.155776455674093 0.6164422946332674 0.4528684544019426
P 6.172676097503926 7.611405033434692 1.3647751833858153 0.7923592298109773 0.43569374239486897 0.6577432102645833
P 1.8396295723952791 3.2161759038710525 6.075787719873776 -0.5682816757676405 -0.5607812536255374 -0.3149701645598511
P 6.813228148934101 3.8629218728393724 6.000175944861191 0.5618449190033614 0.7909682630007215 0.3455452091332307
P 2.467469216651098 8.565719128889551 10.161575220673694 -0.09180843746256447 -0.16669335969691293 -0.5103963734150823
