# total energy = -381165.87681623746 ev
CRYSTAL
PRIMVEC
9.25775300978620 0.00000000000000 0.00000000000000

0.00000000000000 9.25775300978620 0.00000000000000

0.00000000000000 0.00000000000000 13.54965731784095

PRIMCOORD
 96 1
Ni 1.3776647564677735 4.964608973921394 11.490326008048733 -0.19464973570052282 -2.3885252691482415 0.15844886029993357
Ni 7.192672415976465 5.565548244086678 5.770988895000097 -0.1804626455668634 -0.8632532857183779 -0.17969748526606472
Ni 4.977384673219338 7.11559236354554 11.943454140438059 0.5335573849125778 -0.4074807702957628 0.5508544814301287
Ni 0.6027010205829633 4.821687781340491 7.221425145599328 -1.5943459554093897 1.2258999304185856 2.28742152242668
Ni 7.389195999090043 6.551295280207257 0.6958830830058531 0.1585463051097463 -0.7268709183001804 0.26979305380258056
Ni 4.829529098228431 3.095283465051325 8.224872079899427 -0.12804427986614722 0.5066564467566758 0.07788668517514973
Ni 3.001881993879622 1.2872257662926958 6.972870212656598 1.2261536983006045 -0.19568460472294041 -0.38047158869677056
Ni 4.594437715640047 8.562255153975322 6.129512974088153 -0.1187505132690471 1.5700068644433929 -0.9320809460150529
Ni 3.0451619896896833 4.4356487342209725 3.0089178862466057 0.4831305957205938 -0.7896310322465369 0.584776073878238
Ni 7.532848554166988 3.0139448461877527 10.61016734929972 1.2616860868792594 1.1180712062683646 1.893049007378101
Ni 0.35138264833556826 7.846019826522658 10.397099235595306 -0.7617551317718751 0.8916986855432644 -0.05653007387624457
Ni 3.7427984911354137 9.066080593970009 11.549036826749964 1.6685299949219716 -2.033453608581814 -0.49748377911847225
Ni 0.7564722998140047 8.692632091086145 7.177131425823235 1.0779509412087112 0.3579708364910932 0.831311956925091
Ni 3.308258075449284 8.103690868957191 7.943784476737202 -1.2418852501032485 -0.10713272652446065 1.3408752929159165
Ni 5.563344898845438 2.9282921143728466 3.748187429223336 -0.7343857386199868 -2.608791162754972 0.874736603767629
Ni 8.248907984310478 7.5803778586565835 6.393243215936093 -1.8225046215006357 0.4726685198470053 -1.1805263873797927
Ni 3.681734351592491 5.056769906175761 11.493483827636073 -1.462396169841249 0.8071155621845454 -0.6500044468594289
Ni 3.283799091720903 0.9170739492928883 4.546045588560186 1.0068062027430853 0.10259447233447491 -0.827635279404452
Ni 2.235441871287288 7.2708171100155505 11.831005768008684 0.9700669383405229 -0.8958885552548957 0.05827996668781575
Ni 8.076547136825617 2.0818372316123064 4.179744071080679 -1.2953860502348657 -1.2646929920263832 -0.9308802408387323
Ni 2.4852808545869935 3.538359529108979 7.917444317575964 0.2835816229462407 -0.905658490157466 1.6205701792132412
Ni 1.1810208225637067 0.0538412405630277 12.458273162256155 -0.3277351775350033 0.44142498845169137 -1.2177186801593738
Ni 6.457504983404748 1.4746860091072262 9.27625843715209 -0.3872772987646943 -0.5488271665874548 -0.9964410574586776
Ni 8.970957180719017 3.58425946905043 5.517135749949965 0.8814646665200819 1.5624485924801608 -0.6822530224804895
P 1.9020701816358851 5.338335209398692 13.467695976191633 -0.03896635396086838 0.3166326398639385 1.1548665207198432
Ni 5.802824456410073 7.441483788680467 4.398340914945044 0.8295438092810746 -1.2936981210094816 -0.9152152806079658
P 0.8679476823910509 4.656233217679012 3.5758358394915906 -0.2642723810946675 0.11168357911993669 -0.18760825547270915
Ni 5.395057462730937 4.712575903133564 12.825618028511661 2.2260891420657853 -0.5076190677802612 -2.392955279895137
P 1.0814166568053218 0.7929172964996662 1.221272607330031 1.6161016019189265 0.7999306144003321 -1.581811827498121
P 4.849451782930731 1.4213243201555272 2.1694081698725274 0.6449740835243731 -0.2831355365477575 -0.6040778595306435
P 3.5366283292765766 3.2867523149644127 10.178083015514854 -0.2975681670333198 1.507985428435274 -2.0653977655885787
Ni 5.588729657885265 4.921495617667393 3.1045106675804988 -0.9774701727831295 4.689685738427569 -1.1175670129384365
Ni 7.246839529449121 8.061790278361181 12.574772727448414 0.16672575559674513 0.7773373024808484 -1.3417476682185407
Ni 5.53756205642169 1.2852353493730886 7.098896005803627 0.0037918629422644375 -0.4596371405843439 -1.2239731457095178
Ni 1.0277957507664182 0.9815532739597322 8.906338989755456 4.228149323937982 -1.1026080776357592 0.5065083512145857
Ni 7.683425908573545 4.0887792405287 1.3348893082024498 0.47649586401289545 1.2573913161586474 -1.8732738816337027
Ni 2.6123805470952997 6.476353768745771 2.21450175951771 -1.5763487475010205 1.098931143004804 0.323433721946172
Ni 4.807884471446844 5.0232660976545604 5.167690749341251 0.07116376462901938 -1.186909150977685 1.4647487292338257
Ni 8.695918593441775 6.936232654706155 3.115188560022707 -1.775042314253614 0.8960487349818439 -0.5990634370351876
Ni 1.3870706336320562 7.863100381018822 3.8876267808578953 1.0810660897989253 0.5246497980103029 -0.06927940312211293
Ni 5.457028862079076 4.383157274062032 10.205737775618344 1.2026640998190965 3.066601534543222 -1.4427943364499218
Ni 3.765248542437959 0.8869677361646916 9.149365192538237 0.7107837829303307 0.5927066415792244 0.5134099634304254
Ni 0.6944731272065221 3.5175388423545773 9.400819653756413 -0.1907804825531037 -0.3198231217767782 0.24671071806182027
Ni 9.232414644177359 8.2756351175519 0.7641664184274254 -0.5156748482052022 -2.029424432817763 0.4735612068646038
Ni 8.387783538780367 0.874307758780679 13.29140058363313 -0.17119124756726647 1.0530644623796768 -0.937411871309663
Ni 3.8473740703162593 5.334076642966044 7.8211738687140935 0.77079024539095 0.9476186366393358 -1.4009108088422582
Ni 0.17526685618748652 6.1320857036786585 5.106323881271486 1.2169926006266265 -1.6104294912348134 -0.25551083285195353
Ni 4.340414227932609 6.605342042889426 9.588794627644107 1.4762665000654382 0.6609786864827455 1.2895450180730568
Ni 7.487189315806514 1.871602916136225 1.5509884102765366 -1.1556409369920226 -0.41705118759301724 1.644472696862452
Ni 0.9076282637902133 2.1079903841606327 6.778324085608266 -0.2002909931467002 0.39280208523766547 0.5651942950915686
Ni 2.0916134189011673 6.619321250092248 6.53089396966894 -0.9564987127377849 0.06466992937455959 1.2678508209290746
Ni 6.50338640783997 6.2950499317523505 8.188545582453632 0.5274271036451239 -1.575977480204531 -2.3854324891555305
Ni 0.5269253855658654 3.106809367678817 0.1266673554378613 -0.39058116632694667 0.6062684394240591 -1.7241162168277082
Ni 9.145002939270707 5.595580395189959 10.033954611927825 -2.8036938950065653 -0.097943860936341 -1.1324447013812176
Ni 2.8761894798447125 1.7244972191475887 11.25797677193285 -1.6189308438376053 1.0619931323278742 0.5435119250221284
Ni 3.3780893071915927 6.6965679420792315 4.701636016278217 0.009464230736693379 0.871787291331318 -1.2551989364930187
P 7.235350657834087 2.7974615473594167 13.015041840761766 0.820239244050697 1.3315295900349584 -0.7880703726276364
Ni 3.9699467215515987 5.754591562683779 0.5672660447620883 -0.37745619890921445 1.0398767600448091 0.09315595262939441
P 9.073477538708454 6.837137665369065 8.255318052566924 0.2926769003792895 -0.6218387830584904 0.27599018375222795
Ni 5.654024590601492 8.47925013955115 8.51062096175478 -1.2120691951830804 0.23364591445806213 -0.23770954300447447
P 6.335024909700552 8.956561374626045 10.581415545452169 -1.4038490655349758 -1.180969388454482 0.7197314790419217
P 3.88104451839352 3.1558939746916392 5.838263135332193 1.845563560202628 -2.4919946878885018 0.4702789365689062
P 5.800713688699978 6.809216281975879 2.036473315576182 -1.4594915945999445 0.02300880219034747 0.2760693737295955
Ni 8.99968398863316 0.3326792097184416 2.7199713764655216 -0.823878126354865 -0.7024894041320224 1.3811120289487762
Ni 8.026073866845627 1.3097591373732709 6.576122722509593 -0.6136516192620076 -1.2625443211144967 1.1225251282746602
Ni 2.456341118351218 8.360445393833391 0.4819947323754974 1.1519218362692227 -0.9830996031547649 1.5070356629274948
Ni 5.216632786956111 8.540888259787167 0.5300832051532048 -1.8729869465209033 -1.236188456828787 -1.5261698126537844
Ni 5.833634258774968 0.5358267151854106 3.9409449583699563 -1.1960316821042434 1.6167572332250544 2.436075251013063
Ni 6.843997660426874 3.12650986630637 6.133564166851037 -2.0394915872457777 0.88087305568267 -0.16060627296256857
Ni 7.567657705877328 5.065231492522369 12.014277803314236 0.11763105495262322 -0.24049533327972777 0.04731703991840883
Ni 2.897723013588927 3.333337328636334 13.224628113519838 0.4073771548383629 1.1272996668451682 -0.0857059241092524
Ni 0.09637413569675275 6.559664289022721 12.664566452231416 -0.45734243101289623 0.2700427079195414 0.23871407300958886
Ni 7.129710437045079 3.972918460301338 8.536934273431985 0.8629342118160622 -0.17483450074680856 -1.0568738088234377
Ni 5.598200339321349 1.519141739562823 13.51391345706491 1.1794292976608718 0.5997638055363219 0.5725029129378398
Ni 3.502457962531136 1.1070513751792386 13.40788718797103 -1.6528318674604245 -0.4319515017436174 1.3122784551148303
Ni 2.1571305376921415 6.189428226469572 9.621706865741295 -0.5099577432157669 0.08189889165833637 -1.3895964122707039
Ni 8.158209777048196 0.6923531017433127 10.866161812645224 1.0884389852242289 -0.8020006095554832 0.15951149723649305
Ni 0.2881373821588806 5.511473708145165 1.4682268747592735 1.0519064375158336 -0.3989655337359 -0.20625003894361255
Ni 0.6773666510016384 2.134486073574193 11.477521609716135 -0.8748286492608031 1.235524340882227 -0.3507776611767636
Ni 7.58835804184124 4.274026880348877 3.5564056672549795 2.160510327723711 0.2602810005470872 1.2224366544603336
Ni 0.4657131219731113 2.684285515535245 2.241072436731497 -0.8803683481321096 0.45420002872917253 2.064101672484974
Ni 0.35537273992789686 0.514068218040515 5.0559052320348705 0.6503890838923573 -0.4622282983502878 -0.39293681104331685
Ni 2.778529442240363 2.0197639969799086 2.186589633877638 0.5465666526880523 -0.5282760819089805 -0.8167749396511804
Ni 5.407805388769537 3.9134929430596728 1.2024506694730395 -1.311188307374445 -2.8761676366962594 0.921166355985078
Ni 6.604240370268805 8.797976063775488 2.1941772883302426 2.7990926487891277 -0.6711294017635022 -0.43164734023963724
Ni 1.7906438651503456 2.6625020224569407 4.210528877512164 -0.9167070346621439 -0.17431976589391912 0.863091820439849
Ni 5.282446153846748 2.4637843518552365 11.140948589037755 -0.1901600753602854 -2.6436200975086988 2.0524556036056136
Ni 2.2556330308299066 4.3341282135678965 5.8037520832721405 -0.5865257095794931 1.6055086568944286 -2.010054512931583
P 2.349302976841928 8.698482991054478 5.766721070814334 0.08993590303019995 -0.5099551721126055 -0.5928107712572566
Ni 7.9441427517827305 8.722201354533702 8.43650431609579 0.38408193175584815 0.8380973552780405 1.451566426215597
P 2.205456008949579 8.770980455693747 9.88146738305376 1.759396380186241 -1.5151426083053454 0.9111945894843468
Ni 4.0739760932986915 8.259554400392098 2.8582729502423145 -0.0795843845925468 0.42219750768064707 -0.5263729513489966
P 5.428700137548854 6.71449095210881 6.429149411390494 -0.20408002787548724 -1.2998973078416582 0.5961956285690894
P 7.616381260518685 8.7148969873264 4.464801398778381 1.592112952313813 0.2783849092366496 -0.15095023793004328
P 8.618458973133158 1.8418299821201485 8.957827835252102 -4.81136473819732 2.5140169577958638 -0.5669886679878299
Ni 6.7215361022289075 6.801050943728932 10.190412491112681 1.0462055304763143 0.6600245500995923 3.0914864707103593
