# total energy = -340897.3011378475 ev
CRYSTAL
PRIMVEC
8.99788622311981 0.00000000000000 0.00000000000000
0.00000000000000 8.99788622311981 0.00000000000000
0.00000000000000 0.00000000000000 13.16931600782044
PRIMCOORD
 96 1
Ni 6.426677346357673 2.0354748583619213 11.301340767339077 -1.1536452467182323 -0.263147780571921 -0.23730742247004935
Ni 4.5106674251776235 0.26195096661197625 5.991209339631015 0.16954728420594026 -0.012162603504462924 -0.2940388137238226
Ni 2.746190908161154 1.680436258428032 4.885171152670867 0.12743647107881925 -0.8736109748036179 -0.3485811677460771
Ni 3.3692855406012656 4.1939598211309645 4.863112834262991 0.35313973365103696 0.6046059641199716 -0.3250164930522596
Ni 5.244966935122497 4.609833130734706 2.731935556803375 -0.43890993533932154 -0.3172903280525955 0.43324348108216354
Ni 7.315659520691607 6.084190797893898 2.450098361550467 -0.45891671747855156 -0.3247375283592601 0.48841215583450714
Ni 5.1025303940673625 4.534106919141529 11.321674190932027 -0.10537537751372175 -0.3508187988273442 -0.3845082206599894
Ni 5.637454738080484 7.929288376682571 12.242683441970422 -0.11891892052611135 0.09633615012958893 0.4752033704537171
Ni 1.88574103147004 6.35092414110542 0.4037405596379336 0.7037019363828848 1.4086338885181289 0.1687715823821803
Ni 2.6635003325264934 1.4715503266153387 0.3669607993589087 0.1359961877233722 0.5667336145542303 1.0531202553182768
Ni 0.4725671919714099 -0.0022809641918810127 4.744272350394401 0.5895688672811911 -0.5057964127492257 -0.03558535330377742
Ni 8.722029158525936 2.3854296525032557 1.3905612512910712 -0.48519210623531284 -0.32193733990630363 0.47192341415086464
Ni 6.760678887985378 0.5662072955157355 4.726901930779308 -0.3917001104227383 0.6094141841418925 0.0929914020270721
Ni 0.875215408205421 7.327347775071305 2.539689416233465 -0.7073655012774012 1.084349131425571 -0.19313869837263511
Ni 7.689017817251413 3.7176117173117107 3.6870135049609782 0.020153335019423353 0.3699804593574596 -0.23477385741491827
Ni 7.541092565517591 4.0446938843297255 12.356124294235276 0.6937024019680118 -0.9277157270678217 0.6116299608462886
Ni 8.11797405362042 8.824874999603647 6.732351742151533 -0.9030413642495931 0.3129775596098545 0.7042871194623935
Ni 6.907272452538141 0.833795437931315 0.5903189315906212 -0.25385787062956283 -0.37519259968601837 -1.8128758401616194
Ni 1.7707300480356294 6.358788293782754 9.381478851008952 0.5783606572701976 0.6685271882539648 -0.8600247514787512
Ni -0.00872255103593473 4.934323906481471 1.313670713203103 0.7705493330247375 -1.0706554359885625 -0.21520853368848097
Ni 6.527426679913853 1.8549412664648774 6.910124782513788 -0.6773977512707173 0.27679236793854917 0.1330072802983774
Ni 3.3641297517178423 4.397752949264744 0.3636702723176034 0.006505405218685571 -0.6712193903741471 1.293091083553102
Ni 5.931631634685446 5.68521551887143 4.905991361915811 0.21646786001687882 -1.367628649750361 0.3256944929558907
Ni 5.309148858517713 2.954743918178583 8.956965770923773 0.7541174127209592 -0.9191164154345849 0.6415421750246886
P 0.23556196549975286 5.540295561181347 12.39343313023218 -0.10604874943166252 -0.08567044288562665 -1.0498554685240757
P 4.131649458098317 6.118598715328822 12.50646457866772 -1.2042203885626228 1.1578831960589802 -0.39164020371908037
P 2.419594627006499 8.415741106882425 1.379946444753943 0.5301491305619773 0.002250229486757415 0.15007889106868347
P 6.251371526434921 7.708993124967294 5.819441488624427 -0.006956119602858988 0.10722014403194438 0.7011686284380698
P 4.681951189898124 1.050476238696381 12.457356814288907 0.6224640753473151 0.7184027329281693 -0.08067581788451267
P 3.913063804791156 5.959354122556 8.156995187391349 0.3719735785280884 1.5103472437992311 0.17680447998898582
P 4.67571565465168 1.122693274609742 3.8686448389937604 0.3475825512782336 -0.6469206657277826 -0.8947940366391364
P 0.19478984304345925 5.489169570892322 3.52492558009887 -0.016732225153016346 -0.11601794482923244 0.30932916422398987
Ni 1.567134873401737 1.0863778052668158 2.6445174916759555 -0.44225211233867706 -0.15363549807169025 -0.11625551476133525
Ni 1.7240760072667811 6.4805386940996845 4.786625401483883 0.9301649599392626 0.2905817084131576 -0.2429008573974268
Ni 6.041126913782094 5.679330901192967 8.862278313407318 -0.6991688243992217 0.22101048508223872 1.558836192538554
Ni 8.646923801091495 2.3157050311112006 10.127112098610999 -0.3953433636022804 0.41777186780912573 -0.3492141733443857
Ni 2.2396189040636822 5.215417876321167 7.050404530208788 -0.2640682355036613 -0.43366102823555636 -0.3258022221783486
Ni 0.5446915496552783 9.083456257774364 9.144338656241915 -0.15863500816881065 -0.5496100675000664 -0.003953071110477062
Ni 1.44253214310916 1.122729266155176 11.414228249592883 -0.21193012004752532 -0.7086677650285924 -0.17545130839520107
Ni 4.20686279016906 6.805389385300789 1.7146057318744545 -0.49108918844603805 -0.08791013084942279 -0.36092374847183
Ni 5.439843157874998 7.857773175905174 7.938542702802294 0.08842203748883481 0.2112266662225975 -0.18220996727527328
Ni 5.400954293033539 2.955229804041942 4.782740114154281 0.04528355442814782 0.12787432994718623 0.21832342516837883
Ni 0.8842123947752902 7.3219670390289195 6.930932394717831 -0.02501374843551821 0.3637007969963349 0.34689221007942844
Ni 4.935394654958134 4.429146574769567 7.058345164920169 0.8479022571836041 -0.21037228864210222 -1.3889919459174853
Ni 8.223213332469495 7.068712529582438 9.322110796815535 0.20967449124412924 0.55235266324221 -0.01935089372278603
Ni 4.652807035982926 0.27315063576240745 10.148630543837362 -0.3592263061647491 -0.14560748556089115 0.5114973197887449
Ni 8.032656095169077 7.033215867898136 4.6822580178229485 0.5529597006985896 0.4642129328804844 -0.27379523298343816
Ni 7.530106146273857 6.305268865722366 7.020628724671224 -1.3242741940241256 0.13943503820159212 -0.4632839933083118
Ni 2.1984085845417294 5.3251111089177 2.5526346753374463 1.0172073434717512 -0.9893424987406833 0.2345645696175896
Ni 2.3121958554313835 5.181918745408453 11.463309920101254 -0.352361974944748 -0.4886798076735971 -0.43469126927228363
Ni 1.1583339024757802 3.3187984002436943 3.6404728375602478 -0.5251316227427278 -0.029459185801381522 0.48692785797949684
Ni 3.6700578879070123 2.705556453366146 2.6203914589828963 -0.3554005046607556 0.04445848742369118 -0.002956768635478779
Ni 1.1042116160293727 3.2375474864263944 8.151569461917171 -1.3503369525494484 1.0899626209576068 0.5502538717316523
Ni 3.2542655592804968 2.7515266547717476 7.41320560670416 1.1412862109322472 0.2586604342245287 -1.9796800144047841
Ni 4.0237288091144086 6.731210810161274 5.962170460986212 -0.26475806248183437 0.5381398620769376 0.49730585877971123
Ni 0.9118098120254607 7.4368160605088764 11.517067792150142 0.12729300352241948 0.0962433333054665 -0.2897615265047074
P 0.23691704718534373 5.5912325958568445 8.08407721613066 0.3825994336730507 -1.2302121846406942 -0.32120251862280813
P 8.51550067293917 1.6883543984235163 7.977431567643753 -0.8428708654072838 -0.4267625013435102 -0.4759837002631673
P 1.676891091202781 3.157178365472228 10.397872895756587 1.045893398552534 0.4552770638434353 -0.1790336264298207
P 3.8644842163415873 6.0703790423335935 3.867682964942036 0.3610078235452041 0.2621882448721291 -0.9407226808504509
P 6.891616130274343 3.98953684095209 10.175179707326768 -0.1116028464806723 0.07489623508825811 0.4637647895994723
P 6.257085184272571 7.681720531414665 10.068653730728428 -0.15023264303772838 -0.03533929873124236 -0.2697292904441806
P 2.3444442801402654 8.445776051547115 5.681888100496053 0.40962815565606875 0.46038353183206515 0.837650497548609
P 7.026584425651918 3.947804644021344 1.4789798813815562 -0.5060118711941415 -1.275491625303784 0.4651565277406763
Ni 5.163725019191556 2.7963001372916687 0.5702527452225192 0.23785223922992588 -0.24243651616649858 -0.5664567067437599
Ni 1.414197798966228 1.0930902284902606 7.003534540167336 0.027960489768667975 -0.21751069945909635 -0.8509927231834699
Ni 6.895116308067801 0.5822658232997593 9.065335414436971 0.08677421747276669 0.3265946361726569 0.21370752366292228
Ni 2.6572018120755403 1.5020981508024631 9.209671409302386 -0.0601329607361545 -0.5052541670925105 1.1584640082631146
Ni 6.282054318917423 1.9939676085901379 2.580211397448992 0.540537929995469 -0.026201340985716165 0.5308685252265051
Ni 3.9413171679568615 6.7149516295114555 10.332935149907255 0.9612233719069639 0.6728759521409637 -0.019402572896327876
Ni 8.137472473359301 7.164360061573346 0.22907358964663493 0.09607929692377647 -0.20695914919549518 0.12483785711370757
Ni 7.496966930815483 3.971945973121213 8.05241815297826 1.3225466698100576 -0.6955962765566149 -0.47853012083410496
Ni 3.2402018629021536 8.442896727912395 12.387493625446933 -0.618752687933999 -1.5841800706199813 -0.43945989430552057
Ni 0.04468620302224329 4.816982470480208 10.202111280986408 -0.3719702360939787 -0.6287537650107687 0.3488673315279282
Ni 8.585729175967302 2.506244272638902 5.726729966952299 0.7706506344892922 -0.9291177496216707 0.12397962287847034
Ni 3.4571229072329914 2.826038151706528 11.694642879012509 0.31887644159279277 -0.5072174614664684 -0.9665622676213741
Ni 0.9892546199131131 3.2475801297161273 12.612148353102903 -0.13393313454675645 0.5197531320396339 -0.5895089605775331
Ni 3.009361088374708 8.301971831765488 7.899943569901579 -0.060751311046443754 -0.2605106000593901 0.3672275792026708
Ni 5.776661037932914 7.599983731734006 3.5938538885481974 -1.292465277043645 0.8330852467754297 -0.7261283837072011
Ni 3.1893008197720905 8.401254509845232 3.6177162831709526 0.3620259803970733 -0.400325133087588 0.035092729938075044
Ni 3.462260700343698 4.230572220723721 9.346224232467693 -1.1213971853178042 0.32714536646980436 0.7417378081096839
Ni 7.091486179955814 6.13106978582171 11.337911776654586 0.25075429200357463 -0.15545121112419036 -0.1634637970160217
Ni 0.5271591680857314 0.05320540182647581 0.45200882121949776 -0.14167986837171084 0.415958982970103 -0.24988963001043416
Ni 4.678496001536457 0.21019962322103486 1.517723880252643 -0.41290399819386303 0.5292654424054433 0.1235384215759937
Ni 5.740993416407801 5.285970303258204 0.47198412893537883 0.575632459705757 1.3137712376102728 -0.6063311743411945
Ni 7.908935157739633 8.645655099114945 11.308123374076118 -0.21547721396883532 0.8441119369032367 0.09227740667918302
Ni 0.08179618573062539 4.972106031300834 5.726585100981927 -0.13999836690422984 -1.0536560732170888 0.0479947827117238
Ni 7.792727455419541 8.631798354122848 2.483404037906473 0.7771203013740358 0.5157028732296602 0.7531797313980383
P 8.4550168808373 1.4575226217824293 3.6591074602087112 -0.042268164640591716 1.5779315186071083 -1.591447293705356
P 1.7812755708477972 3.2900051638964785 1.5055164478300591 0.7000723100500975 -0.4445676478457311 0.2959262605545226
P 4.586861526861442 1.1098712865488725 8.05515710958579 0.8337131101674158 -0.4814753195053578 -0.15175627877110637
P 8.329892273135929 1.6294272406616672 12.197855072343716 0.7772105470949969 -0.32316015656981123 1.8575428440516915
P 6.328006524550308 7.631233391057094 1.2387840044071732 -1.1088327183892324 0.3679505734116244 0.4199130825218445
P 1.7316612254670007 3.2926865340313127 5.870024906366035 -0.6444706615253933 0.1099812517168493 0.9472820792355234
P 6.99088081258137 4.007262677078344 5.860885753191701 -0.8917303101121481 0.2704396862476439 0.5749593448981324
P 2.3783033265073197 8.404367778525277 10.154951559004212 0.32498204026989835 0.38936477742134235 0.39498032383590687
