# total energy = -340859.6331157738 ev
CRYSTAL
PRIMVEC
9.36449606374501 0.00000000000000 0.00000000000000
0.00000000000000 9.36449606374501 0.00000000000000
0.00000000000000 0.00000000000000 13.70588656705863
PRIMCOORD
 96 1
Ni 9.54663554408307 7.032839576828065 10.395805240631987 -2.358519723925087 -1.1187985713526925 -2.5648885478347507
Ni 7.8106171644972635 0.8837434161317813 8.367155722572438 -0.17987412005324505 -1.0072252925583751 1.2816627871115023
Ni 3.8116495745541425 3.966613255934776 0.056855601591393364 0.06990983761726025 -0.8070196600366294 -0.35456746723649907
Ni 6.678636876529476 5.25410036605671 4.481194189256149 -0.7745437988961111 -1.2476139250569094 -0.1674538920120213
Ni 5.978078923659933 7.043112429044319 2.976438595884488 0.27930407861680934 -0.28801549034787816 -0.27876131873946186
Ni 7.051549840025945 1.7666309173204762 11.488191502660356 -0.6771889776940209 -0.3646623895786558 0.27398986549274745
Ni 9.21644341177215 6.129708844430734 1.5523150596895134 -2.1196950934795624 -0.39357547306858026 -1.6208810255854407
Ni 1.607275287271272 6.806640173652504 7.007134971496805 -1.8721148283285953 1.075743134924115 0.82775894946651
Ni 1.5108116129963198 7.137440998209603 0.851107210790976 2.856243644078823 1.9926856826358326 -1.0135247524138415
Ni 5.593825555392376 4.644237557867578 2.321064336673488 0.7117374050928517 -0.6082530739542557 -0.5848220966248251
Ni 9.167045694870842 3.8313056518576207 0.9555241515994408 -0.676927496502518 -0.8127869015377099 1.8500969292966074
Ni 1.750346058611211 8.491584591535993 10.117863250732919 0.9549930747265358 1.119111217497105 -0.1435241206693012
Ni 3.23935712469829 0.8392967083159183 5.6530204081083095 0.6237959067848612 -0.022235671469748804 0.6056002097124409
Ni 1.0429613880883888 6.4195774565564365 12.203735458630783 3.17755980546136 0.31869106505486405 2.4239704973297287
Ni 3.6582310350291904 0.3904208253957465 0.4044319844531373 -0.17214769794326484 0.10786626225637551 1.2799460615307119
Ni 3.328244921632359 8.817347317193963 7.57993123124257 -0.3927234094809301 0.5763567394662913 -0.55334022396646
Ni 4.021105258711782 6.991382952615347 8.678690969313223 0.4783650560111503 -0.7523942593822655 0.23444115666584783
Ni 6.01107004340274 4.531685679301357 11.820779073072389 -0.03562957627815154 -1.8790244109642347 -1.4070871128562994
Ni 2.3791532424005974 7.52431642538377 4.904418844472802 0.01484220721915508 0.44893286679296235 -0.42240396726449836
Ni 4.895964577398205 5.81623233764945 13.225440377033053 0.7156192566457611 2.0439995024184605 1.2471261867872134
Ni 8.26391496247351 8.096899174618567 6.97234867785258 -0.012987927619235696 0.36713399104760003 -0.4091046790524309
Ni 9.06407369580984 2.8191347269297053 12.407308366341521 1.0605103771347606 0.46816497554969694 0.4854972961805575
Ni 8.526120853134481 6.024470637314735 5.596278116919667 0.8652939702974904 0.3505681162691188 1.7888491382297191
Ni 8.424946837323727 1.1781659827084991 6.1579315627619495 1.1724873191254 -0.7981956339870963 -0.0230396554282829
P 0.7989919171228892 2.9509774674516986 5.2180095981064465 -3.125231942591921 -1.2257150681012892 -2.45334200851331
P 4.312350451763455 2.676869302253939 7.693087119806922 -0.5711780234788292 0.7448115619390012 -1.6101029611333304
P 7.097885366704176 5.488137852463815 0.9556927125291514 0.4955847623235465 0.7642686422223482 -1.2020141249399234
P 1.5958506020353296 -0.2955566070538266 6.233258632900799 -2.2238355701449186 -0.4226016850976012 0.3059473922359505
P 6.473601234528692 7.952723392739415 8.542481564262115 -1.0253950214888663 0.8103050156561206 -1.104099317469305
P 1.0922935535170313 7.021208872678033 3.176147712506416 -0.9620057585989433 -0.034069173769567127 -0.2397679681954
P 6.768770151444184 4.939621858193256 6.789923611673257 0.238848284594608 -1.110433744327765 -0.49306251012232494
P 3.790373439426224 3.9819897585228228 3.6751648533178414 0.036888902606549374 0.7444690909979179 -0.1354760535538441
Ni 4.5831529498396675 2.045121666690712 10.592923201184417 0.5718701644498473 -0.317469276832621 0.22920150553346333
Ni 7.5838558915559995 8.464858319680765 10.269025883148577 0.21048027497487623 0.22882226781717363 -0.4228893915413491
Ni 5.304088046212005 7.237650470922568 10.67940713197089 -1.0513842464637764 0.5834938647317047 -0.03400746729369627
Ni 0.6347939061429421 0.15645076336052485 3.5745639446681032 1.2293495795300826 -0.41711160851730744 1.1105237329384101
Ni 0.1246508075210062 2.328968907827307 3.1199804013780077 0.033671681220832334 1.1476869722522685 -0.3646104532947979
Ni 8.284161003030976 4.945062630424471 10.095796752134579 -3.2954613404665505 0.04434175934016879 1.082151352443304
Ni 0.888257103249588 4.492757469034298 10.805035592884218 0.9200353277044284 0.8988975172845487 0.7717083863298451
Ni 8.439639731696836 8.392517587346621 2.3519990130738253 -1.3445221456398844 -0.4514132100126548 0.1253559344007067
Ni 9.227643349101811 0.8524144944458428 11.269541756236613 0.8601754181240024 -1.9068139223726774 -0.5115572264924029
Ni 3.6453829463868024 7.674822606623167 12.359064355359122 -1.7562123260313045 0.3391076810380031 0.04042005568825942
Ni 0.5397180501892744 9.901269011202034 0.9203239472278152 0.671371085460663 -0.3027008602741948 -0.16867439468268372
Ni 6.098356511504559 6.9838164397705595 6.178147636931911 -0.2572028758423957 -0.09817191778674705 -0.10226357135761743
Ni 8.7895534927839 5.179736902566039 12.939178968803159 -2.452373988173086 -0.03111086247219158 -0.7558876172475046
Ni 2.661099490829901 0.8704224204365945 11.851754016805934 -1.1463114320609806 -0.29193076624188435 -0.32144754475407866
Ni 8.100794804994102 7.50673926621339 13.648047911957043 1.8635204017913647 -1.8095094947925483 1.2950651765603374
Ni 7.017509896720494 8.78265185916186 12.42781286699121 -0.5637097401262422 1.8219772882422558 -0.6101166095255557
Ni 1.271923317611986 2.9497694474554392 9.129600820785237 1.1292033116257845 1.4294739651919315 0.21938631921525442
Ni 7.34231744377677 0.8536234508917118 4.084793196654113 -0.11472262305657661 -1.3132662729493965 -0.6718184574107269
Ni 0.9488575668293857 1.336023293382498 7.752954343342478 0.17943703251582643 -2.648767446037593 -1.4023133456167398
Ni 8.434358155899236 3.108731768668652 7.933789318084864 -0.7681656632839093 -0.25022335920076905 -0.27914929820649986
Ni 4.300242158312575 5.961026176270876 4.388953902720058 -0.24501378997537157 0.5488719037824612 -0.2188150200928167
Ni 1.8924429223572667 4.16363288927821 2.3274790164985872 0.18365595569318047 0.7348809330888505 0.8844006092199542
Ni 8.832030847070977 5.2726607973170685 3.3888762880492704 0.20970097360669046 -2.0928643464399634 2.3605863766461277
Ni 4.540263557724408 3.9978532149078116 9.269743314196258 -0.6026660667847814 1.5246634033115871 0.7546061794319198
P 5.150819338624572 2.399240086524447 12.679096009406932 -1.0818973274509691 -0.5614813650163556 -0.08900310680328542
P 3.8616840771899126 6.7623742006112755 6.3746625239358226 -0.030092448510006243 -0.07101875441072285 0.14524830244925951
P 0.2800602389157632 4.533324466117988 7.155747651625786 3.12082687154569 0.6476243766630265 -1.9090160722303189
P 8.732401973115904 2.8010518849701933 10.149798055316205 -0.15993881458189874 -0.84080369846561 0.8680129118905502
P 2.1976599435827313 6.041691945633504 9.300663943852454 -1.503966537083868 0.2738245435594768 1.6544123245736668
P 2.6694245278583866 1.2555167204534852 9.509856485669824 -1.1805212451734701 0.43412922612122656 0.6237964210054935
P 0.007231263884585755 8.594697058038419 8.723276271671294 0.025750112380910493 0.3734056829889247 0.8874453095835491
P 6.945684211671579 6.333021419150032 11.34500648446806 3.2308484895821707 -0.08054880538834515 0.7467254911322623
Ni 6.250838601420007 2.5841326974248107 6.530704058816993 -0.06552764938916457 -0.6908135104559909 0.9185692846818632
Ni 4.946720146233292 0.16026866841847048 12.058589514956184 0.3672293789748837 0.9391260257872923 -0.024687218334034904
Ni 3.3383304839267116 5.525314901961103 11.105811033611806 0.4672710029805179 1.782610099298543 -0.048685638131161314
Ni 2.2608141052476447 3.1404212234542492 6.474893534989806 2.3218935880616205 -0.10833805968647148 2.187698972323361
Ni 5.2739624622742785 1.015158199182231 8.559833039076606 0.7355280797545461 0.1746460388850863 -0.5197240785739113
Ni 6.120007226476279 5.823855037470808 8.741094098391315 0.9873136412361125 -0.72505057726199 0.12866982926528808
Ni 6.647687216935386 2.9044921088359463 9.4830618529931 -0.38724181754106857 0.28753675093924674 -0.40805824006578756
Ni 2.9856167385072316 5.1285880248949605 7.5544794673058755 0.5027470843999406 -1.8089034857774333 0.2723176199966471
Ni 2.5634746190391646 2.14730704807973 4.004435519213012 -0.6982195731120749 2.1131655198911603 1.2616331221541368
Ni 4.591580996325198 8.5055283262215 4.217548039095763 0.6795921878188748 0.11949741873740065 0.5990138147441748
Ni 3.681389433872211 5.840917149355961 1.9145749724282717 -0.8393469114144254 -0.4468654427409724 0.8753508403128603
Ni 5.930497919001062 0.9617805714405335 1.8387272363065386 0.8540438513049678 0.41367147248750696 -0.20775387718264868
Ni 3.990857936324821 9.072398732838327 9.870663965064242 0.9597796974819018 -0.7392070712680302 1.245833693228035
Ni 3.987823839590029 2.610147267576817 1.9454131945188302 0.5321877582585609 -0.18956692186097676 -0.03041846439085729
Ni 6.962128266814459 3.0362412043969886 -0.13934182899489655 0.37265029288013884 0.2545631242267035 1.378318268253723
Ni 8.729012025529501 5.992013293849345 8.233359548165023 -0.5056318621469035 1.940373760605994 -1.0479690501346404
Ni 1.7844702823815173 2.67041716444446 0.6052395564670129 0.0829072783181927 -1.2214750618780126 -1.0197751041989276
Ni 5.727850223504512 2.7227553331196086 3.7815230541668066 -0.07093442222703267 0.6047448036906811 0.01615681226552056
Ni 5.986488241153275 8.135705646436392 0.9825116928957213 -0.45477724138888126 0.21133953765137795 -0.9588255610987486
Ni 2.8443533149136337 3.4067943148775095 11.195612805364753 0.4751869153934849 -2.5540035254911304 0.027792596732236004
Ni 7.931185051720834 3.047909366531402 5.052331996743484 1.2008283321619384 1.9994358568754729 -1.1719569005432267
Ni 4.610778213320019 4.228425837759755 5.984620960631924 0.1244316228142244 -0.11304626379541821 -0.2760277218583827
Ni 2.738206751676416 8.435725372329111 2.783569307210373 0.8075971298066543 -0.28639158159121 -1.8447138106078231
Ni 6.043855144231457 9.289533303793895 6.694681067689099 0.11605008361874854 0.2549212788970706 -0.6751243818555083
P 0.7205361688386889 8.512991829609241 12.62747984338071 0.4169858815727206 0.650782205565718 -0.056677140977070134
P 1.918729062896029 4.38000893605008 12.828792161734109 -1.2425218552459827 0.34333945973116353 0.18828779803823703
P 7.596769531671052 3.445263664835912 2.748085358607068 -0.0578639621963197 0.03135640282409438 0.3864833421084892
P 2.4572063173527114 1.1582008770338852 2.269338606042955 -1.2780077068574183 -1.3964738561168273 -2.564546076893667
P 7.853768762503183 0.7498807538020894 0.3607344363248772 -1.7940332535338201 -0.023375184390830712 0.11539496653325287
P 7.481576865206032 7.690377034637019 4.363830832596299 0.2826369996447842 0.29474946663760204 0.3252736033683882
P 5.21915206663004 1.0658013940641784 4.969548914813768 1.2042442998220229 -0.13204003128910163 0.1150301269946664
P 3.824188634825394 7.5332782481467175 0.8125311055770903 0.4452806147523557 1.4332077212027512 -0.9479824477366577
