# total energy = -340864.7599596817 ev
CRYSTAL
PRIMVEC
9.30524713075319 0.00000000000000 0.00000000000000
0.00000000000000 9.30524713075319 0.00000000000000
0.00000000000000 0.00000000000000 13.61916976465218
PRIMCOORD
 96 1
Ni 2.373591786041175 0.04993195700148951 4.464554365373081 -0.26537229902706555 0.19910031527270872 -0.17045745472503546
Ni 4.787103082991107 2.2105545481315407 7.909959895146676 -0.6813094276202976 -1.5741291141418827 -0.23081230166400893
Ni 6.648515447251443 0.8771060966437757 7.241762183493142 1.4718619432398394 -0.9892602234395221 -1.9996595428505048
Ni 7.587200878939712 2.459255892667286 11.442295045178922 -0.05951255354333621 -2.4151115042772022 -1.1057857040327925
Ni 5.099089414401085 0.6464085445803526 11.463786444338563 0.1411695043941956 0.6623524269018205 -0.6569461682845847
Ni 4.838784426484635 3.279922872874026 3.7928978932988513 0.42472618763977177 0.890094317170622 0.028915140372453428
Ni 8.371791415371801 3.259479244560147 5.905912047677743 -1.7007441177606708 0.5390757436276458 0.5076794887045515
Ni 5.147113795706468 8.897900792357865 9.299224011502504 -0.8623359161104309 0.7666641390377184 -0.6002440876068501
Ni 9.275610085434172 2.2176451465726768 3.896389923223351 -0.30155363404362906 -0.47993137205700576 -1.1421657853237233
Ni 0.272719118336816 1.1139404593002815 7.996931389018166 -0.3613572364648229 1.717803644346119 2.396578992690653
Ni 3.9381760667401027 2.342158660668266 12.735258226722205 -0.5532561488930859 0.09296466255419474 0.5732693587902192
Ni 7.651649021726204 8.432945500614775 0.03718376820312189 -0.3018837636895382 -0.16112075070514187 0.9656441266824789
Ni 8.175943875489143 3.376464813591591 8.562386143154695 -0.23154532317529156 0.05133284594602126 -0.05705123648703723
Ni 8.54251478754965 6.929571136642607 10.683026878219092 -0.15301586220982036 0.25959862976808196 1.0940930981862125
Ni 1.3290870820791556 5.348497957731484 1.4971147241147496 0.2467333437696396 0.05076848880211902 -0.40197398154492064
Ni 2.825622089287235 7.6541986594858775 6.041150789809098 -1.1601100285069696 0.054273159521267815 1.0020275504075196
Ni 2.2169100320361284 2.997852911527371 7.762803922800671 0.8451000118481188 -2.355201972405763 1.71059915617788
Ni 1.2042292738335376 1.9916858264334352 1.028839320135704 1.121154473179379 0.884999676256534 0.8807673833427412
Ni 7.512126143738815 8.938276260384228 9.66793513044157 -0.013973174350640452 0.5091535021469167 -0.32436548973182205
Ni 6.470543287428392 5.128949952980619 4.37157633437068 0.20313617590497918 -0.8195471030796788 0.2338919690305972
Ni 8.664608937347738 7.735219447710248 2.0750980632134115 -0.015144311840606177 0.03475642964457885 -0.5127874993550781
Ni 8.40051671378097 5.050422971032133 2.920740327168194 1.757667570420592 -0.489083470869919 0.8347253534820139
Ni 4.4314472260112465 1.163304796216588 5.465399779537245 -0.5837064949631431 1.1288904083710558 1.0876735678131138
Ni 5.92660505661921 4.279781000299865 13.29966427948824 0.9054026653929181 -1.917020430592034 1.2090604902637434
P 7.270571229127993 4.300243239108339 10.687725097579891 -1.0140261175302925 2.771978051960523 -0.4732465038376623
P 6.496542148379223 1.5957475539001928 9.082229366610232 0.010173598098892156 0.751019490521926 2.9322565092700272
P 0.2775615690307361 7.03992206435052 -0.0917953340708151 -0.6973860214671861 -0.7952051839002047 0.8916326081920193
P 3.938892570782055 3.8043107791099446 8.948707442605373 -2.8445914045518754 0.6473968340332528 1.5203974289463815
P 4.846982349354242 6.456529584997486 11.847152397247372 2.5138058702263226 0.9074148107269405 0.442747821028173
P 0.5537031573237854 2.571988963683508 9.709910170478473 1.7528806905549104 -2.2018636938595177 -1.4650963423812318
P 2.8078490669479046 0.27578612784626266 10.465869391499103 0.557481242718027 -0.6201989334622222 0.3800784670234099
P 8.513398668753961 8.489716814380351 6.863857480223576 -1.0656132455789646 -1.103947365272473 0.6796862901945778
Ni -0.08042618292202273 4.666479162266114 13.320896992772997 -1.3335085681382002 -0.7051980613124371 1.0133326910076936
Ni 3.474998077230945 3.5294709949138965 1.254496219737758 -0.07839473515981983 -0.16315680729856416 1.0830399256958445
Ni 1.2101567163624136 1.573508012857785 11.838599944455709 -0.9243992611000789 -0.19720489802220878 0.27490132156342334
Ni 7.392358305765246 0.2405806552187123 4.989573167375809 -1.2153594358985778 0.41923251151505214 -1.2120257435396546
Ni 7.218191992087109 5.996803842235915 1.154036769907702 -0.5052945334121426 0.32306708263537265 -0.6539737159198221
Ni 3.1730055814191034 7.482749478018781 11.032263045088008 1.1266075258741501 -0.6784074234821541 -0.8134134793781151
Ni 0.6211662002348549 9.141493556126965 9.758925560621101 0.6355566468652152 -0.8083070113894855 0.7800351610279856
Ni 3.408949431909183 5.083493819929505 10.94237621723803 -0.3705080497261554 -0.8603741643983698 -5.600520630579652
Ni 7.998539335751275 0.8754302216053917 1.9078688113959925 1.2784645918891788 0.19289804311673875 0.5880758276754323
Ni 2.8902005055359004 9.56467759274898 8.246584660352505 0.10327118668652538 -0.3119234073137273 -0.14871492084162133
Ni 5.917737155944142 6.747718688696258 9.63026469780476 -0.40869870186326385 -0.48931512726475085 1.414862128816028
Ni 3.218610598426986 5.927796128273364 3.182295940321505 0.3746266998802193 0.33320417106937456 0.044720482835826206
Ni 1.1111023588743676 7.0820655293635175 7.606006783729129 -1.6671323432434964 0.7434730456332357 0.8272290451049689
Ni 5.194337925744217 7.839745290609565 0.297126781999676 -0.25560673499986947 -0.5975665407746871 -0.19602656144339142
Ni 7.126674884910507 5.947737273233146 12.358280326083529 0.09692544697415566 -0.249421432124764 -0.9703790702643029
Ni 4.384251011715392 6.099543077654 5.498903322433978 0.8471522663914572 -1.0469979444706226 0.19054342684163314
Ni 1.3288823666385978 3.1580241332691967 5.718880299085283 -0.38394437773671936 -1.129198683640094 -0.8981683524280081
Ni 5.220001797792317 3.6516954181741585 5.968273954020006 0.6863061095039407 -0.07050659066099471 1.384205066051803
Ni 0.45897946192826494 9.269664032410699 0.22226048433825524 0.7124316029463988 0.04014494765000182 0.4326472422590613
Ni 3.808581887619763 4.874190892453824 12.904899398639287 -0.7003880415183035 -0.3137370634836984 3.89077430932037
Ni 1.2288881791734456 8.244774789753029 11.83998921787731 -2.152328306133551 0.47598550003538026 0.08843283612211221
Ni 3.287134439530037 -0.24121527308444127 12.66108889208341 0.5180664883658305 2.4282788948970957 0.82392826286651
Ni 7.9245812302261465 6.547181304175368 8.543482533268648 1.4464635577713927 0.5282737679161353 -1.260251668425578
Ni 0.1361943910288671 8.202994229384657 4.375676226330213 -0.18690094499303941 -0.27703739406981964 0.05291124617673468
P 3.370379181858648 1.0594861521119259 0.8058148749942766 -0.5481671644059527 1.1811246830854238 0.594247503703783
P 1.5023787025112725 6.3952359210450425 4.794914838097844 0.7514465507570155 0.14182744969316863 -0.9013248957791187
P 5.004622543830991 6.230951779997466 7.751391036989578 2.0477833949409248 -0.20158091560271735 -2.2396303710853305
P 1.9337978829920885 1.0261268405483142 6.468124853655622 3.170020045440889 0.5301714991594805 0.12887551751819096
P 9.288116337802789 4.839407878053606 7.238016821455666 0.18403313652694112 -0.6215564759313811 1.5858939679872945
P 6.982108562887559 2.4051644901235556 4.394565878345312 -0.7728072758209787 -0.06574002251028678 -0.5642229323172347
P 4.372014611518419 8.289942460137903 4.564655563182161 0.005449710260661583 -1.4167773435608697 0.5773725823253153
P 1.2077652678068074 6.903227981541747 9.970185381603569 0.7452103400393166 -0.7607094641161802 -1.0164097872711204
Ni 2.1707094792011685 5.123385415096369 6.877462682298097 0.8560487975501386 1.3089293361369392 -1.9609983788348806
Ni 3.726500301203412 8.76014591135711 2.239087227921639 -0.1600185187798986 -0.348721035758051 -0.377451313813208
Ni 9.333721354810672 0.908253550924634 5.9374410170978225 -1.2606095659856291 0.6142812824262066 -3.955986227241328
Ni 8.81574476396313 5.97009778249043 5.568960668291751 -0.1343753642904976 0.626324843854302 -1.18288023232395
Ni 1.3631815081793155 5.7718680992994615 12.028750811942482 1.399904736175247 1.1407701905277774 -0.4147621344485244
Ni 1.7370105131323232 4.231793839983673 3.541842321196692 -0.8055914122305352 -0.6168349020859958 0.2918238083503748
Ni 6.6912451428442195 7.339160206962131 5.621911247516737 0.07569456261983738 0.6142707409032453 0.5481882474518753
Ni 5.3409048759362525 0.48962815495394624 3.5105729681762288 1.1654607512959219 2.049853390096076 0.6749968551387086
Ni 5.2494994317272266 3.0783712163976444 10.925502081787695 0.462490550872739 0.5124128896244788 -0.6960878714810528
Ni 6.915538823717105 5.3140871532231895 6.92626032965395 -0.7088461995879857 -0.7857196130072727 -0.9129835630639695
Ni 2.455961835123766 7.272190342157859 13.677324254753868 1.0328957007412858 -1.55522096438347 1.4147736828672797
Ni 5.903258191148331 4.2440302401806465 8.785889808531975 1.3730323372644353 1.0034807379142783 0.30797007909293417
Ni 3.046435607670639 2.0559013380374753 3.358773677428484 -1.3248359800648668 -0.5131970760886709 -1.2009746279318154
Ni 0.23201982770448001 4.249529641333811 10.770488758623193 -1.9070718040197545 0.29844697009384735 1.0694192495886163
Ni 3.3814896471325535 6.829065160576061 8.771303833392237 -1.6252534436215236 0.5861081624261003 -0.21933104049728677
Ni 6.268396095124934 1.5165971203827364 13.455045159921017 -1.3366687110337367 -1.2100822466600387 -0.07984817977689475
Ni 1.649327167842529 7.568013459011074 2.33424361731652 0.15332722280265207 0.6421708097476231 0.70334429593315
Ni 6.049062111061924 2.5247834441403554 2.0512515059626253 0.6622002175946724 -0.3957979346411957 -0.480027788425554
Ni 1.755918775642019 4.864708845457082 9.101896006774721 -0.08044853236505499 0.5177677261784889 0.7920522400935197
Ni 8.33853446152847 2.4203134327248272 13.48713244417898 1.4652938031040184 -0.1822307932108797 1.503753135521481
Ni 5.506817435260992 6.726716745544494 2.782628124671193 -0.5187123494799454 0.9785209826451471 0.009911602686757124
Ni 4.91091870353934 8.630663395204348 6.787168284616461 0.012727989089629693 -1.0119388959839606 0.7701168734730091
Ni 6.583946336250075 8.156542434872648 11.802005198406555 -1.2022861476543876 0.05917445347762712 -2.116004532001852
Ni 2.8632525093606644 2.3492027328729113 10.371134529806826 0.21716077231884534 1.808855920368949 -0.8263353296461059
P 8.562428016767537 0.3226976015747959 11.682320177133938 -0.5233963852191761 -0.6797911912035582 0.3043512513934242
P 3.1897271108137506 3.956777256088962 5.2052464671517535 1.4501116960469411 0.5041385654308285 -0.6861621277269087
P 1.0729415397049475 0.41038466896350934 2.7025062233358175 -1.101376262111187 0.43003217323371745 -0.502235949091477
P 7.522008316369375 6.972561379159729 3.6683099372248775 0.14511717618803394 -0.29036187909286765 0.18737531352629666
P 4.172398446480038 5.768964862142462 1.19419263409783 -0.0217535896270077 0.42072606534144313 0.7594722492749694
P 6.099115036278288 -0.017802799130683885 1.7136320098206308 0.3168450129850608 -0.25878744672069626 -2.7415737286370527
P 7.642632237094366 3.8580951084928388 1.3289447117954951 -0.2251594742536058 -0.25643694421064867 -0.9727079755077958
P 1.9715771870222876 3.564216788324922 12.436317852024134 -0.16314086645896417 0.6178759417560004 0.4567032547670005
