# total energy = -340884.79742764 ev
CRYSTAL
PRIMVEC
9.10991624090344 0.00000000000000 0.00000000000000
0.00000000000000 9.10991624090344 0.00000000000000
0.00000000000000 0.00000000000000 13.33328326300591
PRIMCOORD
 96 1
Ni 0.31316977233175075 7.861848698905325 11.760382740780623 -0.7079604545489226 -1.4328487952014355 0.11036666008072604
Ni 4.838968926371566 5.554106469651184 11.197104770056875 0.19191485326786303 0.20448934749876393 1.339796458029441
Ni 2.368204744059645 2.4226273843260415 8.354528461894144 0.48467274339673305 0.8309034086327626 -0.11802031997124189
Ni 2.2974571336965983 2.470053608836732 13.016164667615952 0.6878140615080349 -0.15488736820092036 -0.44707344498672036
Ni 3.531796139430647 6.733357811225389 7.904490395349743 0.16833758016855527 -0.6862698569493665 1.4507197619445853
Ni 8.445302401366268 5.13592486958612 6.220723687466647 -0.05339281379884354 0.35195265532147124 -0.09365474664268386
Ni 5.009561219915013 4.929958770861149 7.180666546831757 0.24286331929127206 1.6744299053461742 0.7056832284789718
Ni 2.8434599700485417 6.3803212229689965 12.895645029282457 1.3548564376863568 0.010623284041801061 0.5886080460298185
Ni 1.4423639455537969 8.669861839358681 9.53199061589749 1.7183384338036667 -0.14827809041451884 -0.41429033701842843
Ni 5.330221165468563 0.4322190701665857 1.3905676941706946 1.3496414691443208 -0.08371023383546228 1.566659802348031
Ni 2.671291660976791 1.0666618854221461 5.95697794430083 0.11480644101963455 0.8743771635456813 -0.3705533011417941
Ni 3.284261492407121 4.3060570398125275 0.7716572862894573 0.48559834053479595 -0.27563897106039625 0.34344616051235693
Ni 0.7588778956356739 0.999458032518696 7.45394581745636 -1.374553144784336 0.31646654659971946 -0.3186357863368964
Ni 8.24699774229045 5.266060024625538 1.90541917156868 -0.16766755068472414 -0.42995272614603375 -0.1211606653724365
Ni 5.590810322619599 7.949404104931496 3.4147601331088473 0.7588037624530352 -0.7136078826426872 0.6141552983713036
Ni 1.5730821352395237 8.577159330595565 0.4267367225080122 0.5903772221150994 0.32856924340052446 0.0767217183327711
Ni 6.408288666159128 1.8317035504592671 3.9950782023626092 0.383341711155714 0.7334801960865819 -0.12687211393491699
Ni 4.562428305694173 2.699122455421693 7.202946669245471 0.21195248864502853 -0.6790021196433597 0.7294080828997374
Ni 4.192365283782291 0.5521930245108011 3.856652112454352 -1.3847287997657571 0.40947106125291416 -0.9761655950390931
Ni 7.571133048389546 5.778920985301359 12.605899584857802 -1.2320443527534266 1.0783119240925558 0.36013930489732165
Ni 5.857721761716547 4.3182916574686665 0.5604329438480887 -0.13927151604053434 -0.7012419048781665 1.7724087332855087
Ni 0.7620208167759328 5.311263429547175 12.607993043634703 0.3844699112228862 0.6613157581071901 1.4223090720123766
Ni 3.829954591603213 7.782191590353371 1.3416747731278835 -0.5797194852909371 0.8589477163644884 0.1080423828229236
Ni 6.560897984830484 1.798607224364888 13.111057200269267 -0.5922482138855671 0.2810611705172321 -0.9904208194065266
P 5.387112593065425 6.352098702121107 9.285151966482996 -0.7719588117777544 -0.6668893955402256 -2.0910769155222373
P 2.9346593426141427 4.426827200845609 11.811502125379027 -0.5884416956552834 0.18872257158281047 0.9614005209147765
P 0.5275425018631874 1.8163533414119153 0.60926027349319 0.07002296615635682 -0.23434936828298994 0.2816769497243601
P 7.061988933583945 3.9607365507033796 7.550771474358842 -0.7764680125020176 -0.10306087044793219 0.3861118177016834
P 4.465589894908803 2.2304354791201195 0.6428867967190561 -0.6772116034018402 1.053710837714424 -0.7018378865909526
P 2.751477144676963 8.124223399660682 11.707662743879775 -1.8566532423578863 1.3814802109214723 -0.1476350575138812
P 2.802948172046421 4.8089881916684005 2.911935567274253 -0.7678273061078841 -1.5154367425069966 -0.6068497658488259
P 7.2201553012279325 0.13973609587918281 11.836408636676035 2.9643330780895982 0.7171531767917843 -0.40093885541218693
Ni 8.400955328581396 3.3900913906285366 13.094284022288265 0.4187918244332078 0.792174624603997 -0.036579856006562814
Ni 1.764845874377063 6.435326897881702 1.7842736819820375 -0.6838820734434802 -0.30043983215416 0.11344941277110783
Ni 4.853672331358169 3.120219228718301 2.5874303260299683 -1.0750959882584195 -0.16975477223105606 0.2764426979086142
Ni 1.2786131991881313 3.7762516347283532 5.81536520565384 0.8688438924322779 -0.9635039404110245 0.8932423758813003
Ni 0.9006336599693362 3.774821377861627 1.8457801932010878 1.2075124290503334 -0.8313962891087809 -0.16802441980351063
Ni 7.562715485683461 2.3158318349716773 1.8551661400150263 0.8569980488372855 0.1416004212840271 -0.577647947473889
Ni 1.274741484739986 8.53719412757436 4.588156531445822 -0.6992945513438086 -0.4102609041440612 1.592912822507289
Ni 2.7129695282715294 1.3642281930320548 1.870779625644852 0.8326065073667984 0.9726817502555506 -1.1460468655456844
Ni 2.4808852993751898 1.381609913425139 10.84987939743924 1.4076149603353112 0.051295307839866494 -0.9034236872896765
Ni 1.063291216373173 3.582037328093047 11.262051185689147 -0.05819640583507397 -1.911566092345682 -1.8093477724037033
Ni 6.905817637620294 7.557285975539711 6.070883783365258 -0.06170930408433888 -1.2557674074019793 0.4244533935943593
Ni 6.426235201365824 1.648011197206567 8.892713168035739 -0.03276948112153712 0.28432261487732324 -1.1938048496562537
Ni 8.608287914758652 5.0734946128493235 10.493307250647964 -0.8716353391344861 0.8589811407055852 -0.6955535962441376
Ni 4.079047034322345 4.58855554578189 4.704688759393545 -0.02448924339061589 -0.4152953812441751 0.6793384199368558
Ni 3.3296288758230332 4.279282995664061 9.743176696690194 -0.15389080861560592 -0.21410295932912804 -1.4591568369683452
Ni 7.9651004908000935 0.19198419911317466 4.796502140321041 1.176212076275155 -0.12906886447591967 -0.11022267830369405
Ni 0.2672175322862603 1.053689364541773 11.726809055069578 -0.3140114001910076 0.6713592583861213 1.1459882443936071
Ni 6.541193235768512 7.164065546269746 1.3023700390419495 1.618358773384219 0.7884233850916809 0.7877988641338045
Ni 6.893163963812121 5.734337054691426 4.286690268647088 0.39270258354532367 1.3578651426056938 -1.5731590369191295
Ni 8.313135734981117 -0.003015382311378881 0.637473684424732 -0.9612148872665316 -0.10141999241039953 -0.5136555037823283
Ni 5.508392909414026 0.2908267914952316 5.738738966271057 0.08835390325506073 0.3152740689535151 1.1323873657807209
Ni 3.6301467963298806 7.8440934719419495 5.71811229367461 -0.7816611266671829 2.548915826555578 1.0748982704253165
Ni 2.6765480827099197 2.806081983270331 3.8613318764826157 -0.9545675571533432 -0.5549970428435925 0.4342187005112393
Ni 7.72395189513692 2.5227635848295966 10.820319540871377 -0.4207486910492625 0.1971244224932605 -0.4428262396745922
P 6.7597856785526105 4.0204976019500425 2.766509417643749 -0.44854077356086625 0.9128038429529958 1.5398660791939545
P 4.302622601349114 1.7981608384638077 9.290992333854067 -0.017193738170467165 1.1475455615783978 1.8095079521306512
P 8.723309718575782 6.986513276635986 5.0057815156219885 0.0387282698081333 0.07443497918112342 -0.3080662383511662
P 5.138666954407041 6.320077346155859 0.08104090484530328 -1.8186965606084549 -1.9530775813259076 0.3263357260843154
P 8.960103774224335 6.864804794219002 0.626291262106854 0.6033862327802577 1.1368109487697131 -1.0436789073997186
P 2.1644796847564245 8.309236690783925 7.309625611670574 -0.8052592257020971 0.5640617241490221 -0.3720764226545399
P 2.4311907056937043 8.71640440198356 2.9086824161461764 0.27255776103191126 -1.3660595054910278 -1.1676199637307698
P 5.032308681037408 6.449283289727723 5.336886891260817 1.5290630750411793 -1.2160808874456348 -0.011644269107147687
Ni 7.47497788133032 6.188776121823824 8.228929134204684 -0.8660403615452118 -0.7813615931488931 0.8963382411978046
Ni 6.20198550052926 8.315057927330667 8.5029144233463 -0.13425580799349782 0.20820484867713818 -0.5209780055856705
Ni 8.605281642363622 7.477729076067589 2.6780703497317666 0.1191066110568852 1.4250832923234038 1.7839468158320952
Ni 1.1504366761636573 5.5509999881763195 4.244504068020099 -1.0460561493826437 -0.5361202605437476 -2.1940377700571956
Ni 3.171508057760788 6.676247745636163 3.9075319062527876 0.09505136987989436 1.560775832763428 -0.9465266891267375
Ni 1.5971049846507204 6.277169640154063 6.260976763844468 0.8768369379400834 1.1063634309131334 0.6253578519553423
Ni 4.617734607846381 5.816891116642227 2.2236986959803473 1.4990307903451474 -0.9250119549834135 0.38438917858362187
Ni 8.308234599985582 0.22779345829615985 9.51409782919725 -1.3484675034408777 0.12313604393125245 0.28656024595859036
Ni 6.248464293739698 3.878692644068098 5.352099540571305 -0.13047242969166561 -1.385491903184027 0.8604433270734085
Ni 4.7002613400481374 2.8091611349961503 11.672342687204708 -0.8914508311985164 0.9404658276446385 0.166823457516874
Ni 3.8736639702436837 0.4420003873500525 12.831818222369424 -1.1552532146353005 0.7767248657078301 0.40943275181581096
Ni 3.9731624766028384 0.19567098225944363 7.976957046927765 0.11203247781892318 -0.09757362208111582 -0.6451414623401728
Ni 8.672940991084502 3.772471019443694 3.9562918225169095 -0.6164901171520674 -0.879773137750272 -0.008231129660540662
Ni 9.137883791766809 7.852164857826788 7.435865366479341 -1.1012055408612778 -0.05447653378132554 -0.5470772737758836
Ni 8.100902013808327 2.5035234415014025 6.171670431896102 -0.46179403902634664 -0.7967460460247634 0.4456572813654841
Ni 5.627441296257226 8.06989185855777 12.527073300676836 -0.8534010755146464 -0.04110756867358727 1.8213550812772246
Ni 0.44509958089183826 1.0278900814426037 2.6274838952397555 0.06956839511744148 -0.3451412888265927 1.60671527560802
Ni 5.3599923720957126 0.6327210410656795 11.034491852243146 0.528013058055581 1.9938745607376112 -1.948409486426277
Ni 4.126518808414778 8.132777611111996 10.118802233524516 -0.5272512401888919 -1.299447364788433 -1.000031088802781
Ni 0.06375392758224417 3.7032083254454657 8.262742410715695 -0.391725564344035 -1.6138125487744337 0.12499572284781053
Ni 6.620877674069513 7.346591830229828 10.712092823658653 2.3743533485232335 -0.43342705784787927 -1.2213655328833417
Ni 2.05992517482381 6.396463994738674 10.627813343551429 -0.24873006248469423 -0.7855882296357309 -0.9583864166788011
Ni 0.8887397531846345 5.7656660570141804 8.444075295634114 -0.2657697915758004 1.3047543788236433 1.2679264113620163
Ni 5.762696224284544 3.898634250955132 9.54849778432111 0.7541744912111398 0.39890485570129364 -0.48883433097359036
P 7.353907093057735 0.5220237145392197 7.031400567460329 0.41078489496833126 -0.23173044260290412 0.9045115210372164
P 2.3847028025669172 4.611694733307275 7.6165851540275 1.6161360547012875 -1.0263830964337486 -0.5464517243767427
P 7.312247445595694 0.3525164120328883 2.64067049915432 -0.8735127586628569 -1.7516529887953962 0.1697768837182431
P 0.6011160082775624 1.8471721884191503 4.94599495660955 1.5591110434664954 -0.7692193013594043 -0.8151901116625638
P 8.942330327428262 7.220884094535819 9.663297306179334 -0.7959045239600745 -0.9448271899371276 0.5104683643035983
P 0.6189832872120258 1.9310745179895414 9.63737686119273 -0.1859108131656282 0.06979362375437012 0.2018747926940523
P 4.573360205312465 2.2570273249416153 5.15435423035929 -0.9525147883893724 0.8834577856907108 -1.0124096649727918
P 6.537394400651156 4.0174457799732695 11.98986153360127 1.2111353705149013 -1.245821351932861 -3.204276652630914
