# total energy = -340868.6010341369 ev
CRYSTAL
PRIMVEC
9.26902384620829 0.00000000000000 0.00000000000000

0.00000000000000 9.26902384620829 0.00000000000000

0.00000000000000 0.00000000000000 13.56615332621264

PRIMCOORD
 96 1
Ni 8.308577055758644 8.505395512644698 1.5629020532596933 -0.7445570227260339 0.6675635387891148 -0.9728995226933115
Ni 8.271436076350975 8.838005172007005 10.498194901798488 0.7937118871841298 -0.05666968477790241 -0.6631399558001224
Ni 7.718047532908 6.313688428581772 2.415019192419143 -0.45307517109611 -0.2753412373143193 -1.5134927314067481
Ni 8.220437905973888 4.419813625608736 8.504974698952383 1.334577375722347 -0.34768590962531737 -0.6845379618599243
Ni 4.437267197913362 6.381185461785326 5.276555080871626 -0.2985590701916794 -0.08033823203943583 1.786421502624833
Ni 1.5275166270089537 0.8440762607875627 0.5108103545218221 0.061230050455075194 -1.1346957021989232 -0.5575560618200204
Ni 3.4033353711134757 7.029201471854925 10.331439597548028 0.9234518095851452 0.7881073965131589 -0.2091957518354978
Ni 3.0551166752344456 1.9239342479990078 12.427641438405868 0.5560779346125971 0.6694522711713954 0.5805162701606196
Ni 4.845475017507498 5.156663962267578 0.990456396349743 1.3359904540197896 -0.14465514894995085 1.2232748340909125
Ni 8.154794677582297 8.12746959465397 4.040502915423471 0.17728296228730112 -1.0936786363566133 0.3988246372826615
Ni 5.6217835895889605 9.140462696102741 2.4079923452793994 0.055622731570626784 -0.10550110445830861 0.08928849925418816
Ni 8.170765206037354 3.2018267880531552 12.952108772977416 -0.036779373611878594 -0.7073526457615947 1.2758649494828027
Ni 5.084282153384503 9.10496233395366 11.18279760363698 -1.08385907916303 -0.0191500905658896 -0.31859310602441904
Ni 3.7311436760127985 7.364536224290817 1.752095810954147 -1.0254053059015114 -0.12023172580026391 -0.11314370860523096
Ni 4.755676712416036 7.311174452778477 8.00629657002245 -0.9575317819879897 0.31914923563820524 -1.0945412414672246
Ni 4.5365199075458325 6.966477986042176 12.59514289909314 -0.5392932589550906 0.964472732082197 1.1871017266044652
Ni 2.042790943517981 2.002544841050276 2.295257840151932 -2.138812016814671 2.136070963734425 1.987263483178997
Ni 8.187087957406684 2.9517855950156577 4.209048068219881 -0.7097322017373647 -0.20268726129301864 -0.03149729927733286
Ni 5.891113621694927 0.9959844422990153 6.761927309285426 -0.6352321736462608 -0.0707834984714652 1.1452030294881501
Ni 2.111956401052301 6.6933105779754465 6.478991276762059 0.8592760462381847 0.8697625475918053 0.5460105230742661
Ni 2.1610822285693065 1.3059035307629003 7.491039864659135 0.049191374122986256 0.4102891862788353 -1.5856021477784885
Ni 6.953612580647156 1.4395257816091551 10.988693116995638 0.18048707104689563 1.3471937789347765 0.864717271858414
Ni 7.224462732698933 3.2016136004997797 6.564648181903597 -0.7202986643993013 -0.002903546800040161 -0.8440620575019075
Ni 0.11047193635446736 5.356309471491876 10.274570427331454 1.7927091354057576 1.4382018319832328 -0.012334353195636822
P 8.312015863684834 0.7518086876865667 12.690946604872956 1.2765612042188788 0.013735604418537635 0.00695020606558803
P 3.096493598637448 0.6469713910580592 10.300658095547798 -0.016502368530397382 -1.3906230537630049 -0.6781395145327481
P 1.0298812632857488 7.3178759571737215 4.496651054357362 -0.14065811197541583 -0.44275142057259875 0.09122608259653321
P 3.7412747193101734 4.842165975918144 12.747355104593757 -0.16342214514480888 -0.19820248604878768 -0.9089600437268733
P 7.493644460419943 0.8855671931865007 3.2601502681447125 -0.9178267500888837 -0.25833133301988415 -0.31771610273610446
P 7.457439652442316 6.574157273686559 11.014129172820574 -0.11113130616089248 -1.5980563143814415 -1.4285478538332366
P 5.268281549995837 4.093423481390564 9.197906545811021 0.9479662497867417 0.19275791799444866 1.230147649951346
P 0.15435335005843095 9.615870940130517 7.077977857164877 1.1678996997547175 -0.9834114779682288 1.2190564251341909
Ni 3.352550388289764 8.121129582197058 4.133579674324889 -0.4117369744689554 1.151782225367565 -0.9202083629471829
Ni 9.039662059452281 6.250010233290861 6.55513816321823 0.8599293635514674 -1.9715728119166174 -0.11225153580826475
Ni 4.691127228863503 -0.19630495295314157 0.2526708151632664 -0.6609866569025455 0.8191370121254539 -0.6615078195133381
Ni 6.7937404536635135 2.5052503609341987 8.738136072274557 -1.0514168994739246 2.357937111948739 0.13288206757442275
Ni 1.426641838166016 5.982496929900618 2.7757167753898986 -0.35830507990206034 0.6531741028366621 0.8682633373384595
Ni 9.056911713227592 2.317376512265862 7.8347519610402845 0.006506690770266213 -0.6285339356904788 0.4958822389593072
Ni 1.5817960319032147 -0.04392590501945067 5.406424303876063 0.47502879254906577 2.391125939995882e-05 1.0096130760642612
Ni 3.861132469427607 1.4194027303753025 5.216715188443884 -0.30168167498106113 -0.7960659892386032 0.4603969015685039
Ni 1.8972301896826884 6.089619040959868 12.118740088783749 1.254307277916685 0.9943728620757392 0.501176397478711
Ni 0.04791714677960586 5.261162939517901 0.137211216962214 0.6155372663204948 -0.9420182597334228 1.6666158086183942
Ni 1.6313389655029116 3.7398472896049624 8.346820122127022 -0.06726340113334868 1.2279956366053495 -0.9889763736505163
Ni 6.299580973962738 7.710938191454123 9.513509399828385 0.30053676274334046 0.06385308990021907 0.5699336095487668
Ni 8.413752671765334 6.821223110000857 8.705400660002518 0.28012168942209825 0.7513946144731576 0.9505337534036016
Ni 7.125080256729625 8.175575829524396 12.39909840571608 -2.6393808626163704 0.8443693043296813 2.2506298075196267
Ni 6.855666803407119 1.3994001764542277 0.618990061226298 0.46491175871972196 -0.17677491230263104 1.511528922812158
Ni 5.179475030478776 4.555530675892508 6.30332380587809 0.43694664096536356 -2.1612335790429813 -1.7039124881863237
Ni 2.098822193959547 2.5066685216153495 10.23509272695831 1.64516483783347 0.7979894315135612 0.5510825382805348
Ni 4.035232548343062 2.5535605143339404 8.19797257236012 0.7083440631405865 -0.345603830285308 0.9483254328983732
Ni 8.865524904440587 5.420237930432401 4.248715783586254 -0.15219927984579595 0.23281107726159259 0.5538729565414784
Ni 7.802720067694386 8.051129912497355 6.65859344835942 -1.4599006571129052 1.3006362428902116 0.9426538364348926
Ni 6.448552728652042 5.556019863884592 7.822732817541926 0.1665025838423455 1.2654051876020593 0.2969521307158757
Ni 5.999144097112041 8.866461075870628 4.796435391914249 -0.9039353368187723 -0.23790546106536448 0.504135480107035
Ni 2.848194982123195 4.719870472472981 10.293075106964466 0.10599604181685617 -0.3813640186040529 0.46056145217082617
Ni 0.11615755571275625 3.8486470940190394 6.084976186808309 0.7926111979207834 0.6135415760467046 0.44297253544446935
P 7.2881965421342025 4.246436530569946 1.5931950776919719 -0.1755497816462783 -0.13987803927628167 -0.6129147410959832
P 3.2978260702406317 0.4812588520143284 2.1854940572356343 2.431249804599961 -3.098083664311903 -0.32033682818840314
P 0.8732773941855955 7.165984459905577 0.7887809708563462 0.05434180797567415 -0.22222687398784308 0.3165079413606162
P 7.089060829233194 6.381852831517632 5.490168082451656 -0.8213432757481532 -0.582018822848075 -0.8028614148938819
P 1.5668265580466179 3.100803694825261 0.4655867861339977 -0.48286988586003937 0.2634174892935399 -1.2752111179488879
P 2.531741231697142 8.40701409127385 12.424154431554566 0.6371137069396899 -1.004024012012258 0.25817783816115536
P 0.06534754652408296 2.9372239582176927 10.184775829849618 -1.3979699810463795 0.017545465082931075 -1.1259498376854933
P 1.9841365592674889 6.078329369655018 8.688022166792775 -0.9884148447200912 0.8287675932366824 0.62244582051487
Ni 0.29423497285227684 0.821292999648544 3.670607679878165 -0.45128722595775184 1.4838034318724318 0.21498613326502974
Ni 2.206157492572174 4.896213655210911 4.906891570927814 0.5238432429486076 -0.6729260886526088 -0.23940081466396834
Ni 7.569205544555533 4.033962692046868 10.85239397200091 -1.4652945744349668 0.09249646466852457 -0.05460894559413176
Ni 8.803709782985699 2.5561558410706877 1.9056650015771177 -0.18579871306779613 -0.24432653410035987 -1.351087457562228
Ni 7.128741521233251 5.697696896638823 13.128889453650968 -1.3666061220231174 0.3070678789936389 0.20028225139595185
Ni 7.9820664142276945 0.8415105949278067 5.695667907272131 0.044340730898904286 1.6233976213597072 -1.6377343496973535
Ni 1.2693279618228812 8.583588999613275 2.412916977762378 1.697307067054664 -1.6062725316436466 0.006089657837505641
Ni 5.4655171129645845 6.8921126060103015 3.3744586535575363 1.7711432363095239 1.546281495801995 -1.949076430586314
Ni 1.134982727099961 0.7150736915327185 11.857387905686062 -1.304919700756914 0.07396292464071132 -1.2098958416808454
Ni 1.271061269322066 8.035984327183622 10.421288882271819 -0.25857893025431594 -2.0213876785562155 0.7434434779468809
Ni 5.7097837040128185 2.270530864667571 2.8580498085035875 2.2446481360148955 0.202513968939948 0.8157318430986468
Ni 1.6381702362349935 2.456133802441253 4.836673152260301 0.4272731224313416 0.0713753664191932 0.3484657252141353
Ni 0.9560812937215231 0.7461814631798547 9.400530192465737 -1.6417108178465982 -0.19105353370883227 -1.0402518839960408
Ni 0.929460656621742 3.9609783965999057 11.933575575848096 0.8201654533899682 -1.4431082681459146 0.5796966024728017
Ni 4.569832780016799 2.3475842616767904 10.612734085910402 0.9296378837911989 0.49712613866873734 -0.21263588786529833
Ni 2.4334154244706525 5.137226818814151 1.038666444289639 0.807510483630119 -1.1335430766517187 -1.8850081393514955
Ni 3.731384670638354 3.219688197416414 3.1080733903953717 -0.0788603619423287 2.7679229080545427 1.810884263652888
Ni 6.267908718750359 4.903360072761026 3.9728344052748112 0.6711710536347151 -2.1471683591991666 0.41462612309129243
Ni 5.761449244122214 3.696347759692263 12.685533494822025 -0.9015709503516537 -0.8128460369104195 0.037607525940128776
Ni 3.8624486708441004 5.134084619657874 8.00651346518545 -1.2921153499033942 0.29080025218186695 0.34081257954425176
Ni 4.244647608926402 2.402975949458229 0.9817296101974298 -0.03569153986433853 -0.5792155490713251 -1.0081346917465217
Ni 5.0011946217123455 5.456479814506267 11.018972237891827 2.1151632670474796 -1.3404109516849885 -1.326615954783425
Ni 9.093672662648808 7.095224730232969 12.291369173580911 1.1752795371585565 0.666972185062019 -0.10883068305217386
Ni 2.6366943911263974 8.362420816522095 8.523709250382076 0.14763480040356508 0.5784082226786813 -0.9166394146490019
P 0.8671542768916835 3.723135239225121 3.1817649123780973 -0.1020159741231856 1.2176196926876643 1.3550289587084792
P 3.8261233655536957 5.550782865290798 3.2921256204438474 -1.1184928671868155 -0.8775604463696693 -0.5388098915607688
P 5.6009282854543825 2.647539149276378 5.126215218231094 1.014863011609291 0.6444832599308836 -0.44674023001701774
P 5.871435483615946 7.217112396619501 0.9700181982978568 0.6396277316107952 0.6031157527276904 -0.12640057361513715
P 4.042555077350314 8.344744787640032 6.233199931255985 -0.37856074482730284 1.303286536028865 -0.0029598539592723214
P 3.281327207414166 3.4036690559796288 6.471245153355274 -1.9863923934279533 0.05805422383025485 -1.8608225432442276
P 6.743956525438261 9.835176049385677 9.02066426773929 -0.3854358746805814 -3.695165295030372 0.08359633396541731
P 5.518545199610771 1.4851479180315517 12.629980526021944 -2.2578322388053373 0.655739035350361 -0.5245191859697096
