# total energy = -340869.56574667577 ev
CRYSTAL
PRIMVEC
9.28915416425469 0.00000000000000 0.00000000000000
0.00000000000000 9.28915416425469 0.00000000000000
0.00000000000000 0.00000000000000 13.59561608147791
PRIMCOORD
 96 1
Ni 1.053752336161245 0.6259087673723004 11.921016511582438 -1.121558393486017 0.6640614391731273 1.9235494899598031
Ni 8.33893853470414 6.657675981027748 4.805003456058569 1.3618572944842224 -1.1010631017461425 0.09272195041576935
Ni 6.342411384751543 3.8633869997661323 1.4619642069693966 0.27367541957612224 0.36248466520104666 0.4929653224228285
Ni 1.724893709830353 4.196941940191189 1.4899301338838356 -0.5027740809831341 -0.6807499555724018 0.8665239860498495
Ni 8.78789263478444 5.067224196472315 11.61855515621043 -0.35924378966624576 0.12478386394732059 0.1335058172013507
Ni 3.476986062457982 6.575829245478979 6.675026262795764 -0.615669935243617 -1.126009744389151 -0.8919794500084767
Ni 8.563745349709897 8.663083562166886 6.1522475405272585 0.4898020942034984 -0.011530626347418851 0.8216780333797525
Ni 8.761632196537205 8.802922485893042 2.532468603383581 1.0907097835362762 -1.139605995016347 -0.9254621551469545
Ni 4.627614985276598 0.3623336683110671 3.0369207538027885 0.6802089954672673 -0.23989909445662552 0.7356106121660234
Ni 1.0021325076009788 6.734404392744106 2.4065466901215227 -0.14013052160671996 -0.6808445721687371 -0.150117971836735
Ni 4.615650554975065 8.272809047657075 0.8629029523746528 -0.27290588839994934 0.5058167244641998 0.5386399416418078
Ni 4.765902620291298 3.7561808739043303 9.878900980736336 -0.367913806636418 0.2069133835592243 -0.8106307744266554
Ni 7.502106521835918 3.5770952746937184 4.477457669330766 2.333635044868265 -0.2809711819065871 0.2972778894864106
Ni 1.6925024299689804 6.3939383217722 4.761279408364999 -0.2799198578239373 -0.9686047519726997 0.18800729068334074
Ni 5.709847867481711 2.3416285087509494 7.866885095469472 -0.7912737100562824 0.16067003632096846 0.2354929949691299
Ni 9.04874136715817 6.7426531614613125 9.706372595306666 1.0102753922386085 -0.7830682914273546 0.09996449091079558
Ni 2.5490553166960175 8.581515501236943 2.7044127010291166 -0.651996023368161 -0.3965792928919106 0.10099216084436156
Ni 5.438242294821351 4.031037650450977 3.882037763088663 -2.282401186393953 -0.10332029475690593 -0.7634538596305368
Ni 0.3429852895260791 4.592418380919059 5.502947754566223 -0.9429189171708212 -0.6032833886538062 -0.7902167295466779
Ni 7.5475583521662015 0.46688495397086704 11.179661209869694 0.27319385195401336 -0.1398502713621398 0.28573980693982404
Ni 6.689965080195552 8.117838092128746 4.218434255710333 -0.527541260625485 1.3781616880712007 -1.0750404524301358
Ni 8.230664156136843 7.552695254306533 11.837063924830755 0.9724758048923318 -0.3878231439658353 0.7561141314360139
Ni 8.893370978009528 5.168494552953154 0.9366356119386465 -1.5685140819479502 -0.8781345737055843 0.19100956784477427
Ni 7.631365099200702 1.1352460838595022 8.889438879137915 0.32780022644498386 0.2018719644805749 0.11009720846942328
P 6.228563513807756 1.046711157458945 12.955792964032524 0.3415965088981278 -0.0932207444290588 -0.21320281611236183
P 1.3666853547932853 2.8103220609979878 6.732018938006967 0.6912639677298482 0.35035060094167403 0.6068541367242001
P 4.431493077701846 8.328237429341275 6.277082622775901 0.2170831250033745 2.166367814945753 -1.126729653274311
P 0.6450685763318837 1.0864966038731287 9.984810340705208 -0.7304200691040195 0.7468054524405784 -0.15864966345683
P 5.680995755279411 7.516077409392988 2.4249819450721626 0.1354912230624957 -0.9963233009338905 1.7233929655084386
P 0.8771515856351516 -0.034784165921679475 3.947065556475974 -0.7636929722245362 1.1968269243120293 1.161132299123897
P 7.5134578679760375 1.359802091708319 6.643987483751086 0.5099705987315734 -0.6009961352815263 0.06849547376823688
P 7.059599094604425 4.50170050333771 8.972208956590388 -0.46811123949362615 0.08975798269143898 -0.22556390878087604
Ni 8.183382362476278 2.2409712364315246 2.0521905472320063 1.0927764362573178 0.10947423017344374 0.180469844655715
Ni 7.128255231528833 5.566274703863307 2.908020737780892 0.27715617903587103 0.9220467017075022 -0.4763081734821216
Ni 8.149096095206898 5.737492389669106 7.296100954446855 0.42372165763465736 1.3319358243344415 0.13156977652090246
Ni 1.4511051859892001 5.9676497573562965 13.213728617724147 -0.0561606063519678 0.47434565043911214 -0.9746604712484762
Ni 1.8902870961027196 4.82008625534475 7.170653716952194 0.3397661405576084 0.43842399684183847 0.8966861114555266
Ni 5.0003144204925425 1.8059229998305695 1.0606643956234898 2.3205242185179196 -1.4924865614687266 -3.16968657336087
Ni 3.1649169351442974 2.0692147796959977 11.187206789632068 -1.0810316370165642 0.7930421148106148 -1.6122349198746686
Ni 6.754970579613357 9.377308031906269 1.881279403506914 -0.9409340255303086 0.5000232577108743 -0.7591290070029378
Ni 6.863235669026691 6.899231140624862 0.659251256599261 0.40349247507197605 -0.24771987605262502 0.1138762158958813
Ni 1.32983528103072 1.8384071712315504 2.837541139933977 -0.14284843475851527 -0.3040067235698119 -2.086349171029265
Ni 5.423853395336044 3.723520208578094 12.27190594221378 0.6716505643742948 -2.9938848236047857 -0.8283760142252186
Ni 5.8440575639076116 6.39744962196939 8.539514591603103 -1.019831925578792 -0.6498409246983712 0.6939636260491985
Ni 1.745004728155524 5.068496810564947 10.464124182675649 -0.39588715192089236 0.19664131220925488 0.9826810275601074
Ni 2.1112667796766216 6.741910029144446 8.8207130735588 0.7793394205125416 -3.0319680036297525 0.47143027656453007
Ni 3.231724530430501 6.002103229396971 1.169340994557289 0.1459684684447357 2.343756706683299 0.06678414750408498
Ni 2.7594639430625088 8.742635876687332 11.073914410095137 1.1375570829071182 -0.7172081983994357 -2.5413495841725458
Ni 2.386225736916837 3.237409492654522 9.072422207350485 0.02306870889400543 -1.074515176054285 -0.8003142229919958
Ni 2.889846508056552 1.4922468488816638 4.580063806151171 0.5670472891399073 0.5070485399887719 0.36191953672619603
Ni 2.533468116349765 2.7188796294076947 13.287729733837606 -1.2345984866338477 -0.32392351709839695 0.22952057943577892
Ni 7.456338860270967 8.009071388401527 8.5645033446731 1.5531854220106798 -0.26885640092092405 0.8056245794613156
Ni 3.501880995072974 0.4734031533051731 12.99716406902782 0.4934625737742211 0.9798913806301124 0.2736006004741288
Ni 2.318145527538001 8.49167080412791 5.200404654639357 -0.39639314502303347 0.9481999630641026 2.199599066195057
Ni 1.5498210251308142 8.726119760944998 8.514431089162706 -0.9551707379549808 1.7366994528093573 0.3004830266872696
Ni 7.57832403008443 2.8774640658267807 13.352321865904155 0.4552490388189772 -0.08496184685437626 -1.4368574021401963
P 1.2366650668037142 7.314001154129351 11.454183576873755 -1.4281282497973147 -0.9057790748957305 -0.8567018577531051
P 3.3383825962086147 4.475495800014241 12.026994611290622 -0.6122416262883584 -1.0175598417151637 -0.6276175945237965
P 5.907669690231294 8.150508046608943 10.216982525886499 0.603443311270438 -0.04385016441573093 -1.6435746105282147
P 3.461807584886005 4.828771614298114 2.85798842563253 0.0248697666584862 -0.480841799686417 0.44211224432670315
P 3.57291515541135 7.568338189576551 12.797362727569189 -1.4755458198493296 0.03261444360091157 -0.7046393605954897
P 4.531407217704405 2.7281594942145513 5.507692654409407 -0.7832318135884124 0.5517625950666949 1.2431412339975363
P 2.994210152806343 1.027501187067973 1.487061643140735 -1.0903526573071738 -1.4435121884525528 -1.2230663176245324
P 0.8769685893021235 7.059051034520738 7.018518740128104 -0.6870054495638104 -0.22455603634165194 -0.8169623730716383
Ni 3.7305892547422768 2.5791243080671857 2.587857041705751 -1.0181622511858528 3.4397922733078627 2.6182625925805163
Ni 3.6484731337286442 6.379029229665088 10.746831223234585 1.33606347334957 0.40739001035416933 -0.5912028033401884
Ni 8.031207442290157 1.0430047850285784 4.378264367675566 0.01203944766303733 -0.7666533404044409 -0.7580571140949977
Ni 3.108048734596169 0.9976365570839427 6.886491994882996 -0.1259776271451056 0.45320475469543886 0.3607849089011206
Ni 6.337255904303288 7.262149096720065 6.318331110938913 0.1304821998836785 0.14023799371886173 1.2233072299907448
Ni 5.8969871631763535 8.009145701633212 12.318810596223535 -0.4700135987226615 1.25483692516791 0.0010292125954627436
Ni -0.10657074773088178 4.062072713834071 9.07737146858081 0.7711962225801169 0.34049196298003936 0.9330757058281545
Ni 4.798962719237849 5.881223468904845 12.864742534739378 1.1324043350615853 0.6509927789146271 0.43276165634973857
Ni 1.5595189018659084 8.607088542091075 0.4840940405986786 -0.10459016260826504 -0.625511089703755 -0.11720785137227556
Ni 8.465874823578718 0.548193847505304 0.09617897119491457 -0.03876477947302356 -0.8412371864586028 -0.1245126125638049
Ni 5.1893301252872694 1.2567296393590814 10.875595617608653 1.2167948827935238 -1.057717901991288 -0.3176243143532465
Ni 5.900182632138875 -0.023860120863757384 7.6782595351411 -0.6574043388679259 0.9157500700655131 -1.1634768880966737
Ni 0.8029739755964347 3.074078298561457 11.240937113972233 -0.34611676536598457 -1.6257941466163421 0.2398569283647805
Ni 0.5583543241076468 2.230678853842938 4.891348928870562 0.14902216766939494 0.5377984195771189 0.7300146061354847
Ni 6.314386007251755 5.340427503613937 10.915960707229992 0.7291509725836087 1.633842470842115 -1.059019394411531
Ni 5.88764227429177 1.163085678280074 5.191839125772086 -1.1493206512009497 -0.7346539046797089 -0.11548546936453014
Ni 4.024860363067034 7.452084427756913 4.2129824512507295 2.3184123143812396 -1.3215575664239112 -0.358386326761957
Ni 7.126833990972828 2.8075910497335075 10.447768769296838 0.07590385041716605 1.3085066467772237 0.463324359627944
Ni 3.885402294653271 8.35713598731338 8.392084571260167 0.03632351702138261 -0.4819527733624087 1.533922717126326
Ni 4.2411768913526044 3.9740765583632407 0.5390867609621179 -1.3910796816844495 0.6580620270565827 1.96825531750761
Ni 7.915761836865109 3.4202107534494615 7.234512934771235 0.3016058274378032 -1.4747935150643376 -1.224655002267891
Ni 0.43429674404552493 1.2387458372909375 7.917583439956825 -0.4812223229542873 1.7690968953034563 -2.062420171017493
Ni 5.674595528200407 4.475532956630085 6.696356947035991 -0.47677894247095315 0.6490878485824305 -0.3736939036533048
Ni 3.3649960223063586 4.516823245985921 5.015585789604128 -0.6430894649071505 0.34368450177540805 0.1894676772789511
P 6.272008886882502 5.7638364303019864 4.906140977637769 0.4490012581370525 -0.6423736697870485 -0.27439532846128223
P 9.002806500821926 7.32306736839511 0.6635939360759434 0.43056079204367786 1.3469361543980156 -0.20921426377825902
P 9.238825324658393 4.835905684540022 3.2315015907354416 0.11464291885857676 0.05681058123114087 0.6077074858634308
P 3.8610647112759278 5.2753569801184055 8.307573706355436 -0.2687944373347371 -1.1270379285433492 1.41068794283368
P 6.2259068157749615 2.0515653871704433 2.9484127659487176 -0.2184082715727013 0.07706933148017696 0.8005409942908213
P 7.051155253654042 5.051674152741906 12.991181853877055 -0.03616770816980868 -0.18310136874129113 0.5165063429675621
P 3.8962520264795066 1.217269313333526 8.869861058250093 0.74959998446658 1.159138922842952 1.6704295259375295
P 0.39741508715949275 2.3780791488932 13.70166186565483 0.1377180555104854 0.2362247309288319 -0.08493690715371179
