# total energy = -340889.43651320663 ev
CRYSTAL
PRIMVEC
9.17982749389180 0.00000000000000 0.00000000000000

0.00000000000000 9.17982749389180 0.00000000000000

0.00000000000000 0.00000000000000 13.43560544849965

PRIMCOORD
 96 1
Ni 6.563539249967219 2.200602528699562 11.164198182478989 0.20157397362418186 0.6301061652736052 0.8381220378683889
Ni 4.701426444286629 0.9599445298533055 5.968222318356744 0.27016997752602506 -1.9050565733619385 -0.11161467355521423
Ni 2.817380904748892 1.718401438574209 4.6061275306168845 0.8458664577004981 -0.07770773639512422 1.7274781913214055
Ni 3.661107469537862 4.500221414488214 4.491906848174372 0.1787001543498019 0.18143992187846814 0.599610053567277
Ni 3.878028223845723 2.7581278831065528 2.487796455090288 -0.7798163601489603 0.15732785932161292 -0.5009167160594212
Ni 5.311668756256335 4.544688528268418 2.6132907085889685 0.8630529967821137 1.2349131896607894 -0.8226823062745509
Ni 5.355424833776832 3.0368723286110813 0.43862824117947385 1.1906735031161237 -0.8528979106259827 -0.22716159228529909
Ni 5.989523323844691 8.140581210601773 12.440356945553543 -0.8779003462075913 0.14805543288075146 -0.18582211010656383
Ni 2.0326612336662073 6.591488444483435 0.2733423931006439 -0.7494349196436255 0.6124776535585645 -0.5935471352026488
Ni 0.8368878545064964 0.2772731473979018 -0.029134254949063812 0.05485397172540231 -0.8942744166902404 1.0406583754058398
Ni 8.133607585746944 -0.04461205578699104 7.217417310244239 -0.07820370219493628 1.1592924177016808 -0.7526865938117038
Ni 9.12870283120838 2.401069174689819 0.9566445923403014 -0.5759721024333629 0.08682281132251499 0.4494627711545034
Ni 7.02913126233375 1.1153879952448686 4.823988129006488 0.08707040855694682 -0.4839898583970956 0.20082449705266703
Ni 1.2566289671412376 7.607021424486738 2.3769249357479887 0.25246304716456525 -0.14767053873750696 -0.08422522579866785
Ni 7.8786190439962525 4.246955768289891 3.7962699929986754 1.0922177355403706 -0.7057922432530103 -0.91800698442049
Ni 8.001108713505191 4.135350423064175 12.674575024256225 0.27973936638201496 -0.5298138587097456 -0.8071178761773905
Ni 8.855710486727903 7.614432610116773 9.313867612255743 -1.055864136612001 -1.2463062619890795 -0.8627616907939399
Ni 7.036305435877215 0.9222960714867119 0.44712238972814017 1.2573740897674668 0.5360994346081412 -2.590349925330649
Ni 1.9762614729121837 6.681963250606545 9.25534932808177 0.8831572237311565 -0.08510120064571797 -0.9072044944883473
Ni 0.15146713184688812 4.924418354350459 1.2197334779419757 0.13259667512352002 0.36476471948447503 1.2233121150867512
Ni 6.506127629920534 2.419583464990679 6.900212184184142 1.268855608044505 0.44620646900073474 -0.002614297694395498
Ni 3.572647266150592 4.414012825923352 0.28115011818320745 0.6040205239301468 0.6848904601033365 -0.3333219275941614
Ni 6.28187773262799 6.4181141031579525 4.447344929559539 -1.641543696141115 -0.9754821958188232 2.129571729163326
Ni 5.500603852650045 3.5262111288819655 9.196697952505337 0.3590887521456203 -0.8241115825219096 -0.6342060463745917
P 0.4723614421929314 5.877134015563398 12.294329241093422 -0.8065797442857335 -1.6096203650699572 -0.24120187242844915
P 3.9266703966893415 6.353263949932783 12.663060794773694 1.7865117483457942 -0.6391361366863573 -1.8877869876482136
P 2.6451186970603877 9.072303070454359 1.2957678668983732 0.3338171220630251 -1.0119908322678184 -0.8950837999654133
P 6.487585992071224 8.251274970879146 5.736045278353404 -0.005542527084784003 0.33123290627561663 -0.07075804455016846
P 5.211057125507644 1.1788069601011384 12.421624786450028 -1.536928079611553 -0.07279410114359076 1.2598099529024689
P 4.264294114007388 6.197018289786678 8.244682388532725 0.030108646459922336 0.6279531234863442 0.3162672861047199
P 4.986506405182147 1.3699025128224225 3.625426211489794 0.19915713665257315 -1.1142402625580488 0.8401776348458369
P 0.598848411700358 5.630896689316806 3.368073018383098 -0.5923916814419669 0.6499813069309773 0.14263606163739306
Ni 0.39576460532340596 0.16186284659779937 4.937462223376309 0.914064454832974 0.03384625912548365 0.37466680908953537
Ni 2.327230793873982 6.553657669127173 4.456376913227729 -0.33881637504982937 0.8291897683757654 1.0429129757679716
Ni 6.569692448368539 5.963479341870512 9.019743817087708 -0.7983753540980701 -0.31789890817087185 -0.040609803101562314
Ni 8.803540480134194 2.4499118962220736 10.152783743272304 0.623581733891526 0.6902021021242372 1.0381867739368957
Ni 2.582319609968992 5.372562630805692 6.770621267927606 0.5610851580192014 0.6583440770733759 0.6088472558948289
Ni 0.8276717306787418 0.5407603956220023 9.009363599280919 0.2929345249160503 -0.5841124721523101 0.8965542138633527
Ni 1.6753290497649704 1.295106967810824 11.417695371254192 0.016991135241357834 -0.287081408569383 -1.0762717537340756
Ni 4.181750096934867 7.129387374952587 1.3100998054562325 1.0604658970500704 1.2971865937787144 0.5043339692710862
Ni 5.944974167419136 8.261193015117126 8.02674065908272 -1.4569860545692714 0.024754067016228336 -0.8556484767879264
Ni 5.718882868530938 3.3081417775391917 4.5970946353637485 -0.11665095042754105 -0.7062259883563192 0.5588092175008311
Ni 0.8023606630030314 7.628088152642961 6.748273762918961 1.5919203766870327 -0.01596912173474669 -0.023427377785004814
Ni 5.412863801371967 4.987436221829457 6.786898528765231 1.0937825089243292 -0.20876432072503398 0.21330848845229072
Ni 1.1852336339869611 7.684105047718679 11.441857841894988 0.642754450165235 0.47543888350329083 -0.05532679759676278
Ni 4.848711224390517 0.40197432199152305 10.404652841329764 -0.2621545634207163 -0.027658128036900754 -0.8383269547903432
Ni 8.470419992460966 7.412872062188503 3.9694219075967627 1.2872510798325572 0.2777868706413345 1.794286764305523
Ni 7.664806794362243 6.691881294844524 6.721402973396635 -0.4764133316014182 -1.218476641371321 0.2062032448660771
Ni 2.697407209697381 5.432307908320136 2.1801037179661575 -0.7805367832547525 -0.2740752261177022 2.071555300549542
Ni 2.3878876563367695 5.320848416686156 11.24534382824075 0.992835085274974 0.47965420713621915 0.2653278189423753
Ni 1.439693456467614 3.5666763847389413 3.938668677779441 -1.5205429533853103 0.585075864506844 -1.6478228442816074
Ni 1.7653754109623585 1.386985614754383 2.648621006431924 -1.4168544766557083 0.2803600306851494 -1.2080227930278487
Ni 1.2201473375085237 3.6445804344243915 8.035333258805807 -0.3624455844329951 -0.27880811281699724 0.4540015395651213
Ni 4.040746137125068 3.124922318771597 6.675613149856383 -1.1681485825407303 -0.1878630517959926 0.5353435302787232
Ni 4.454797136512249 7.045357474414268 6.197864240618741 -0.5257083211818043 1.3434998750229572 -0.7322905466538551
Ni 8.68055855475315 7.186452592718902 0.35448712727745607 -0.4678610711560329 0.6949619854067257 -0.08355776741799803
P 0.441586334336849 5.784753996898251 7.975774856205772 -0.4901008563908399 0.18674153659703968 0.7362523595150804
P 8.621159679519076 2.0064349347023596 8.052143796838212 0.29010554010768747 -1.2336790601433723 -1.7530714664094775
P 1.8262875172106827 3.234950622036678 10.49477759883271 0.4252308951903322 1.021589531699847 -0.49659906252067376
P 4.277384473865602 6.428114190041282 3.380801479016821 0.7049679475795021 0.10014781056619527 0.9474036924150523
P 7.076497216249687 4.246044183341548 10.709263509743543 -0.15343315225289705 0.7452031409504649 -1.8610670551548656
P 6.657569237388868 7.911445217986109 9.994507983446237 0.036292149562814915 0.39860455085205543 1.3205296393800288
P 2.591471922850362 8.633748667655702 5.595647522534253 -0.1909254927714002 0.41445308784853785 0.7933838144207498
P 7.174866348025453 4.056625946925215 1.4020140042127769 -0.3286018964106728 -0.0608901506171532 0.33684793846954886
Ni 2.895266722735375 1.9573643169330195 0.17104797653731024 -0.0815304525753241 -1.4035032521597828 1.6532247320234688
Ni 1.7070613218168138 1.216127247886328 6.972352282241216 0.19890645409434776 0.6737681249379299 -1.3302918609731154
Ni 7.132587038121273 0.877968430203604 9.310038043887753 -0.5143242477145786 -0.14136619378603396 -0.7974523280631686
Ni 3.070126947526658 2.002925332651236 9.14306302889964 0.468305100671987 -0.9771343867102655 -0.07118561900589031
Ni 6.7239143899293214 1.95916925513074 2.4101330638312004 0.8436511952167342 1.4579779861688953 1.2583737346765747
Ni 4.222570870921698 7.1001254981107556 10.410630103836054 0.27877751668937795 -0.09596848237752505 -0.6061190583303884
Ni 7.221156631702345 6.353227486534849 11.430289828900507 1.5325942281228895 -0.333605006052219 -0.5333753508087589
Ni 7.859740119716055 3.9294689624807564 8.384732830486557 -0.221141097122832 1.5763166087115046 -0.4868065019102842
Ni 3.425499223788956 8.47674639200247 12.395941792115394 -0.1574412449710256 1.1386307755872713 0.3848689464335178
Ni 0.15034497077547707 4.8853751710129 10.275422912712772 -0.25089673111870986 0.6638212981378632 -0.1654116647710119
Ni 8.938290967198355 2.598135608822755 5.854001635914231 -0.24058095101499857 0.33911950811254504 0.0077963561159672175
Ni 3.8073530428006377 2.9088584543151796 11.648804945283024 0.30175340875926093 -0.17723436843755283 -1.3447615153442003
Ni 1.490596359983125 3.811601028659919 12.780070015573193 -1.3600143277382126 -0.7049674333588698 -0.6028095343411812
Ni 3.3086158017123304 8.72528091231889 7.919952128724051 0.37349207205514384 -0.2169928792824134 0.0580159143931517
Ni 6.414960019236683 8.490329007732791 3.160725729202743 -1.1549984183120172 0.3818129332160134 0.11936217871111701
Ni 3.3855809189009864 8.688124709824402 3.4657092358603956 0.972146703687687 -0.3996139659531763 -0.2081865938446931
Ni 3.316947688140192 4.429400379851394 9.148613669650105 -0.11913489319165935 0.3992493835249059 -0.21035223403744419
Ni 5.028001752030751 4.903871229614793 11.09688766147824 -0.032169128533376855 0.5080888083278282 0.7116268476569163
Ni 8.610621757516222 0.02009224384644291 2.153407041168965 -0.1483541950680929 0.48802777591189506 0.052514782069264396
Ni 4.910534915587184 0.5028867757731676 1.2878471052822151 -1.2531173713736419 -0.21220162854135713 0.3853402296429815
Ni 6.124601981490256 5.635409034811108 0.008544285720825252 -1.0461121994315596 0.16354581520686673 1.430094629495066
Ni 8.275322581816452 8.781999727804834 11.285315916640673 -0.6024660349588333 1.2249218827760324 0.8572852410604009
Ni 0.32568104290979594 5.240364581596893 5.881099410088694 -0.545458507225538 -0.8317647281917933 -1.4416581659629495
Ni 7.337857736789302 6.1893336286721405 2.539469647887149 -0.03690767165962676 -0.6065553745368587 -3.9958853774291114
P 8.875537459354378 1.681500479865257 3.597901815559505 -0.7557130393428534 1.056932172865199 -0.24521587868384861
P 1.914583635307251 3.5015709877282357 1.6514017680408455 0.05419422665421634 -1.3729703736782481 -0.9895517865380118
P 5.053699331724559 1.546139230885705 8.158839345532149 -0.8845368776875023 -0.8977441204063958 0.8537224634098072
P 8.559545652860526 1.7291763726636311 12.22580448894148 0.41788396790695775 -0.46441990668496785 0.6961873731733946
P 6.847078632300034 8.018538217717524 1.0989967862887011 -0.5783588574979845 -1.1757639329941427 0.5864526902497126
P 1.9564800795331263 3.44786951842131 5.947662431431801 1.1080572736757885 -0.7978590765832839 0.8493050510684018
P 7.27952541594479 4.355370566196404 5.813949328038854 -0.18798800740963106 0.5034495097836038 1.0978003718344709
P 2.6022650886387515 8.740805203989183 10.041458254625729 0.47088366003244064 0.4228868204381878 0.661517589705351
