# total energy = -340860.7167653259 ev
CRYSTAL
PRIMVEC
9.32134048328546 0.00000000000000 0.00000000000000

0.00000000000000 9.32134048328546 0.00000000000000

0.00000000000000 0.00000000000000 13.64272401282455

PRIMCOORD
 96 1
Ni 3.2631217162131243 1.0900468952371782 12.427798579493984 1.1058363547650696 0.5567546489646475 0.8470270536675025
Ni 2.473995660706595 8.262324483076867 11.760887417459575 0.380780378186441 -1.1286019305963595 -1.2926177434611092
Ni 0.9152046446719975 2.0084040173120474 1.823186182485671 -2.143094446240109 -4.800225433751049 0.6282050915961503
Ni 6.469616288066565 1.1882006121272979 9.735775829192747 -0.2316067725408463 0.4100217915500616 1.1959519779062435
Ni 5.1109656410814575 1.0595101833158076 7.694114200627872 0.47836994110715686 0.4417368632651554 0.5051580078342784
Ni 1.781904761213945 0.21306347570632475 0.5037560083578163 -1.190390681768382 -0.03165747900428096 -0.6738046346028203
Ni 7.011792066121057 5.130642991162658 4.579466526590682 1.0026227607893572 -0.7790517140687938 1.213935816078174
Ni 6.401123077078093 4.951216505273018 8.853691772066234 1.0154836759124253 2.1307330964612783 -0.13457950988150372
Ni 1.1136205657039506 0.12948553916768468 5.869195180918092 -1.6612059504567327 0.6527953793410048 -1.45274836233884
Ni 9.29764578744397 5.659778213668312 12.015651774766216 -1.1517094631481004 -0.7124146336655344 0.8196049529008078
Ni 7.914927438938418 6.463417596544065 2.9482337796744833 0.8163841319706651 2.067175683424608 0.5327050642146116
Ni 0.875196518531059 0.6582917183489111 11.827505174712215 0.5934545754888425 1.9249288868058332 -0.8672436378246936
Ni 0.6844893462045313 3.584185973056741 12.736438421404758 -0.3256700674758585 -1.7988011072361085 2.7742215965790606
Ni 7.249169326740601 0.569352146676824 3.823509529600943 -0.3726713759260614 1.6411336051868897 -0.25638989302279713
Ni 6.23234156219401 7.698374053298223 4.4284962293926045 1.0526160619883485 0.133408372391538 0.8008040181442209
Ni 4.344248088462283 8.394967160317742 6.339732727653751 0.8749885718774351 0.04518816650086411 -0.25728360848166015
Ni 1.7673448271415455 7.699949359865594 4.1900348968571715 -1.4228376908223368 -0.11432333073562892 0.11718368300255948
Ni 6.769586351052409 4.354809167402123 12.918390990606575 1.166854803429971 -0.2788325382970295 0.5982962198518599
Ni 5.405958108168031 5.846633808044317 6.1674799455170675 0.4810690852058747 -1.8957162697976193 -1.699833175910627
Ni 9.153304827705746 3.8373908700750894 1.4211213397890854 -0.8220521288897197 1.89097901222295 -0.49552562695083696
Ni 1.8627580698848754 6.87479632280348 6.482531005516826 0.3751807726114764 0.0422985036578949 -0.5269259956389892
Ni 6.621209250819082 7.0512865863929886 7.55727785223516 -2.2588077153447292 0.1718885307446072 -0.7307771953331221
Ni 6.9865591970211955 5.016428604357849 1.5837973765570217 -0.6256275606769612 -0.25268647602928096 -0.32248447065902525
Ni 2.3991080100422817 7.291413642499958 9.029791471483122 0.14121578425109874 2.1624162864971725 -0.38775603817332577
P 8.733061506502121 2.2808947681049125 9.81527195066717 0.1168214145671343 -1.0903997084950252 -1.2682884226871256
P 7.792239953496086 4.227591510411016 6.522545656596209 0.5152971531508093 0.6155146406126754 -0.4808317723840881
P 3.696592019778294 6.536198624224792 5.203103364725529 -0.724282588747714 -0.5564857115739771 -1.4825623603764788
P 4.703091738900929 8.096852044118329 12.318861935756903 -0.05894691084785332 -0.17411921984733883 -0.5696880691968641
P -0.03866585308944971 8.401026031730712 10.898545027664648 -1.1639456002029762 -2.2878043596873954 -1.2764447332456728
P 2.465140387103023 8.80696109505909 7.2007114053137276 0.09127441933596539 0.29231308928196753 2.9071946812053935
P 2.526232453627035 1.5856812194994234 10.429508216771278 -0.249235541366203 0.787056072430509 1.642434069165868
P 5.395098746327861 3.1533908942539135 8.937744164843213 -2.8354583319023554 -1.4456420903113618 0.10544119775465068
Ni 5.260218947334506 6.068649499296821 3.180309993874709 -0.4368543383618735 -1.401693966865186 -0.671756750934856
Ni 4.505479317431742 7.171345453776155 10.179778315541785 0.29630524116049617 -0.6158488840236426 -0.08836598743991879
Ni 0.6064128649088683 7.622377163098303 12.959251087281581 -0.22932594692646954 -0.02482605790474434 1.0792231230529155
Ni 2.8722312966701833 5.726602904683057 3.0456427214478397 0.5629427800532304 -0.2164848292977433 -0.3623995616864081
Ni 3.220383369400095 3.541512875628159 11.939362194470347 0.34816644880616165 -0.9940617585932235 -0.3317291291857448
Ni 6.799004502097539 9.239145053616582 6.138748777276762 -3.2048970598237316 -0.7216644343985765 -0.8058755191298573
Ni 8.047719257629458 6.879839168087199 9.144800036510063 -0.008513693897965982 0.460039261118769 2.9281918522823505
Ni 5.721215169795832 3.381894238588614 3.9120510800279007 0.2127605863686207 0.4750961554518915 0.07584497215477261
Ni 8.592514332402482 2.7753359607658346 4.880438633694825 -0.35117926749055645 1.05432276026681 0.5198827156389627
Ni 5.751500205520048 9.287121993866673 0.21889024573747518 -0.18514770974735856 -0.5459997244409888 0.6289905636119232
Ni 3.2708118222372793 1.8958954358435056 6.291683080946705 -0.34030272978736875 -0.8132257888473414 -2.2758497584286803
Ni 5.041111514360227 5.847444764679593 12.07209156017913 -0.3140006015577302 -0.25455489669658743 -0.14770679129208109
Ni 1.1998988946246485 4.379687825557842 5.688061025424057 -0.3364332195296335 0.4883496780276879 1.0646961330813338
Ni 2.3269515121841224 3.238084595266604 0.9945516246962572 3.278907806983243 1.811494643543377 -1.107034231727913
Ni 6.768877929164123 8.48018285640601 11.414484960366915 -1.546603397917788 -0.4688710004777861 -2.8252235415482243
Ni 3.169572741596862 7.5556829708524536 0.24474111972146084 0.505531074902981 0.032979026029181915 -0.42874816431497126
Ni 4.231534437499763 0.05474982635572716 10.423723392772986 0.3432929227639443 1.724295936938682 -0.4302594587531752
Ni 8.34351336001067 1.2205829494944658 6.470567064811369 2.207735322148946 1.4714423392039175 1.2892393139071796
Ni 0.5796690064920171 9.199613247982109 8.732721277568933 0.5759163094947629 0.030429005913818565 0.3152802396011022
Ni 2.810458772279792 1.3674686352261376 8.370603040165092 0.8550339831323791 -1.1552755832328039 1.6640907282036952
Ni 3.5522230960181638 3.908307629628749 7.561397884795979 0.47844296043693724 -1.0039229676580195 0.472357930585122
Ni -0.25350784058899717 6.3720404942958355 5.179255646844078 -0.01183350229981833 1.0744835514854012 -0.6116595285326434
Ni 7.563941678655363 9.099269016042687 8.35743757865174 -0.5007015147248215 0.787681878939966 0.8046205636768335
Ni 4.64523417757738 3.6367956196025943 0.06642387336742574 -0.07470134546863265 0.015126571228793304 -0.22514713295843158
P 9.258598691522534 1.4533181824776098 -0.10872411717059413 -0.5166577809437618 0.6570991489226813 1.5892304885596953
P 8.739558480924954 8.470059880476033 4.053212530475411 1.1749679194554086 -1.2217563405638572 -0.6640197873019145
P 5.882287935974489 8.138453187373846 2.3021008180503086 -0.22416677132303325 -0.10132486159343194 -0.3817275725910587
P 2.514021497394741 8.256181719598178 2.0865317659812046 1.227656765208692 1.2415260669916166 1.5031085599589469
P 5.1446809301594785 1.1824773089771998 5.266964801552301 0.1650493963355867 0.3775181624954014 -0.27061092171818557
P 5.985857351773741 1.8829480937010197 12.88563486747993 -0.33905008832719025 0.8859139605406872 -0.017775835926182287
P 1.8903865235280204 5.183010282851993 7.913708207583316 0.7767058395444366 -0.5245544100830192 0.4887831660206808
P 5.191958769861918 8.392758002587167 8.604261085871135 0.7304264968619227 0.44609514023385105 -0.5286059544445736
Ni 3.507611159737431 3.881089314973559 4.965978712437204 0.410048531022939 0.709572793341365 -0.1784736401612926
Ni 7.260299007459195 2.8140568097650327 8.153642311939132 4.179557273961892 -1.1867973079901692 0.41265382985626997
Ni 4.991960085190085 1.461959065246569 3.041481674988224 1.2711837419570495 -0.3582647135824282 2.445856498769542
Ni 1.5131425466752155 3.53591074990632 3.28156585292827 0.29197627476783905 1.403761905137808 1.2129749948268014
Ni 4.317346699388695 4.922432205391091 10.00216296613759 -1.156753196219595 -1.6720344085308045 -0.4742422920920285
Ni 2.567609884707305 0.9885468170589717 3.5692364069457843 -0.5707072544899978 0.4310199910682835 0.6469103813151375
Ni 0.743159728431482 6.298942541033507 9.97822017058166 0.9843183060532145 0.34916069439863096 0.7214492330639769
Ni 0.9252446606703212 2.3213400651216483 7.788576666626398 -1.690257359296734 1.049943914472824 -0.3302224627332313
Ni 3.88318661661651 6.246416786553373 7.7466660548617865 0.996376265659013 0.2795308499156347 0.6622372414801949
Ni 8.528849575863116 -0.10625582617035635 1.6437158862950443 -0.918183104987038 1.7027405793654093 0.5142273171253983
Ni 9.291130170339867 5.8020405144448555 7.531138948825542 -1.765831080067991 -0.6475937805354073 -0.3547865252258406
Ni 5.807335035925728 3.1432399543020293 6.563705900439676 -1.833269316216307 0.4781305714028411 -2.52026730958095
Ni 8.752179576145203 4.427972370048899 9.6830049234539 -2.715343334185614 0.333077158573207 -0.9724148697474091
Ni 3.9492376363585224 8.22557975829236 3.7176964671107653 1.466422260281507 0.34368218778256293 -0.44481935884522095
Ni 0.5581572165737818 7.544581254155764 2.054649052472091 0.08331608372083715 -1.2949273654308924 -0.7668142914623375
Ni 7.959418197790891 8.944795759033848 13.080807894104849 2.125108808295966 2.1360167134577215 0.566035045825309
Ni 6.527166245149147 2.782466786351869 1.269534901975012 -0.43800053615117474 -1.6112926105660574 0.2829236776472676
Ni 5.910540919440201 3.1908626836079765 11.089447016010455 -1.671090556560296 0.7214690305583188 -0.44862844817866604
Ni 3.844978441352256 0.7763809864558302 1.5204001424938904 -1.7379834617281034 -1.1379946846651692 -2.9147647802431673
Ni 7.135970966065043 6.779168689225537 13.041434551261176 0.20752967698698452 -0.7950267493408114 0.6852889810933359
Ni 5.065589354868628 6.239267318286067 0.6961354291943238 -0.010849798230310346 -0.10126932576514819 1.0859432153855684
Ni 1.2532169630587875 3.9068721431709066 10.722676497495517 0.8171832308331926 -1.7922270535630165 -2.6058415932083445
Ni 2.27298094990551 5.397811256452744 13.366309372156518 -0.13253753975081045 0.10420989645071085 0.2718039135850222
Ni 7.930111902833385 2.431546275453261 11.79689109566357 1.3570914976644628 -1.0570846392826632 0.9848433253187491
P 2.5211896083433167 5.455389177557233 11.257907876776683 0.8470064848422123 1.8939126409299771 -0.39844874200048147
P 8.819488976872986 5.990424808685058 0.7096168841552145 -0.20847944249476355 0.052399596647638796 -0.6689293087883899
P 7.250884453417503 5.519930140116321 11.137565640638202 -0.3260657602523804 -0.08111110564971838 -1.0751242703931936
P 1.354856861346524 2.301867784534425 5.101164251403399 1.1344288216907819 -0.9915153380222859 0.02745218267368176
P 8.360105346341573 7.908654176690836 6.7663816741419796 2.492662660489804 -0.5941107210156026 -0.3059358222717247
P 0.7439725493348835 5.651985572897169 3.1607463641492597 -0.7674164438227106 -0.9667466157180383 1.5402473737927733
P 4.478018647920034 3.9151122082925465 2.1689202994547756 -0.4932196045254796 0.7699083570066289 0.520974920261877
P 7.821154752146907 2.970748545845081 2.982844849587561 -0.31840181594921935 -0.05994886974980642 -0.8835313192411236
