# total energy = -381163.00048425375 ev
CRYSTAL
PRIMVEC
9.32958732851530 0.00000000000000 0.00000000000000
0.00000000000000 9.32958732851530 0.00000000000000
0.00000000000000 0.00000000000000 13.65479410442955
PRIMCOORD
 96 1
Ni 9.057014109434398 0.5468770854894301 11.100050059706394 -0.7912425997080308 -0.43905494555761804 0.8645231535697369
Ni 7.860261294299726 2.2006817192718513 9.422094856153887 1.5662342847748383 -0.49312601637040876 0.3615492978709709
Ni 7.676029933235885 3.7127186087363704 0.39713627583678535 -1.1797879665518713 -0.5501818808431364 -1.658205987288144
Ni 8.250461954913195 3.355162174200909 11.395253130260791 -1.2643638908217385 -0.7153222942306325 0.4199033123298317
Ni 1.299938051037143 4.616009254312975 10.695281248472519 -2.203681720904863 0.01583285326719854 1.126691343837208
Ni 5.546337043980481 4.809019757057127 1.2329926641707987 1.0100612193452734 -0.0047470277666821475 1.0709871082963685
Ni 4.453207955352928 2.4482050008024534 8.694293748310148 0.4401399510916807 -1.0153515212099353 -0.6562236882962634
Ni 1.695745793637716 6.044676951370217 12.562410628457867 -0.21114850468649443 0.6460729730155067 0.25770552651042716
Ni 6.408894711261407 1.333263336990455 7.561233092938819 -0.5524051137467002 -0.44587376825166436 0.43131721059372813
Ni 3.621130049888761 5.7720197615646365 0.21607230967248095 0.5086621643327949 0.17001856741540397 0.3037156746919543
Ni 5.173676007552966 3.790667310903201 12.918254150758997 -0.548013669547224 -0.5006506068822281 -0.8918465239750382
Ni 4.095063756815491 0.4204070655213725 4.033326145598401 -0.014222314246969054 0.9754600843316361 -0.13635691349690066
Ni 0.3871564162667245 4.062074336006165 12.96301471190631 2.4168673106260443 -1.3727348606286747 -0.4677204318131106
Ni 5.764126930680957 8.376765908226725 0.4511433909897894 0.07220171897523049 -0.33041863790443743 0.6365442075894651
Ni 8.123962080265672 7.129679969430767 2.658752328856359 -0.05831981878681569 -1.1488246854011375 2.9244172157312667
Ni 2.4182570254636713 1.0856094412371913 9.739718790986839 -1.0612439128666755 0.4238435279245023 -1.4198888926066577
Ni 6.112726961376783 8.278991832977368 7.766040858865492 2.311395259633458 0.6987247948832676 -0.46832258417348377
Ni 2.593494664338546 2.150245970149902 7.246517190477549 -0.12259714070864691 -1.3717745535979342 -0.05065690292491921
Ni 7.018126093690636 9.27449611975289 12.490818174140978 1.0655505106618295 0.9125223071568349 -0.6919766775261567
Ni 2.0584894787302996 5.378292516939314 5.219530929294435 0.43396261863637525 0.04445025989357505 -0.6977408337034435
Ni 1.0459960134214688 2.4179864674310156 11.014762704143463 -0.0932179162155814 -0.35169400234344594 -0.45997318376752394
Ni 1.528839476251169 0.3641804415418587 3.1925316066890552 0.323379728779785 -0.12929203623031926 -0.02649161853262534
Ni 4.633810106944251 5.673378034693315 5.020990780138042 -1.9641181554107852 -0.62274998201885 -1.1778192728612749
Ni 4.400094614666421 7.209615873699517 8.696642938400585 -1.8395065553752705 -0.23660036910069573 2.5145435197232953
P 6.0078157518177155 5.044713121849544 3.5640786903890143 0.012682223453358805 -0.6056652586224214 -1.128882952171888
Ni 2.6058936859040416 6.912981644448244 7.069060042776165 0.6025750497328718 -0.9065979712526 -0.3517809056302974
P 0.8943099848099031 7.9866678730739205 7.595301947002567 -1.2654234424345046 0.4757764693483677 0.9944502522808937
Ni 2.283276555930493 9.03257059062206 6.090925581697137 -1.7401223624479771 1.4089532195307606 -0.12482911536295924
P 5.480889988839809 7.832216554776867 10.7678570412943 -0.1590209307533197 -0.6248528872944658 -0.7778846903438861
P 7.611506507241175 6.895992465914935 13.231222621512805 -3.053543158697367 1.246461556620021 -1.7298122387712207
P 4.761308247436401 4.686624900836104 8.849863684128422 -0.571167739066184 0.8916745171735482 -0.036839537425852685
Ni 8.759829434530483 5.6513228902382115 11.922383211201291 -1.2459486215393445 1.5173735545183933 -2.137347773564319
Ni 0.6333297065102481 4.473975616756084 8.28784561135634 0.6239362890174673 -0.3668457703832198 -0.2294370185830371
Ni 0.17831733565348276 8.009767931310314 4.731563657101476 0.4836936673129153 -0.40968806235972666 0.4410385516465501
Ni 8.065540204386712 4.798113469464904 9.637676429532654 2.259495742550689 0.5450679566553387 1.1569198037044461
Ni 6.329285342549311 5.37146325901159 11.477127722777329 0.12679086707502035 0.4948527692535284 0.22524689176108947
Ni 6.633532515064274 6.391112517804798 9.218775159406821 -1.0992296480818295 0.3902896032284569 -0.4638473220109496
Ni 5.773475177188578 2.4613317301799196 10.584431756576027 -0.08122449129913109 0.6892960453702001 0.7618852295918361
Ni 8.653089625854156 3.1017705822378785 4.200200742388016 -0.06754313715729657 0.44144015796034297 -1.773542589779636
Ni 0.2971286973799184 6.899547038688791 9.602405924620422 -0.1551647902320231 -0.25748492585918886 -0.4790492265623686
Ni 6.029870896272819 2.6861841144914433 4.649976415874794 -0.9925957155706583 -0.14369612747079125 0.4327572854743643
Ni 9.20249036471715 9.467292041988385 9.07515362608586 0.4780945759585831 -1.4504132864477601 -2.665821316196086
Ni 6.874497096699809 4.961092030584276 5.6545322682807475 0.44063308867801537 -0.8498061590745363 -0.22070375247509733
Ni 6.764734501727605 0.33452541524533114 10.02715218121035 -1.168508279872994 -1.1118403948673046 -0.5505266657770648
Ni 3.1290129772501047 3.0421358600056365 0.7118568430917218 -0.1793208186529363 2.9930924096104774 0.7843947235482619
Ni 4.9513519414086735 1.2075937956155647 12.777965146033369 1.375283338082141 -0.9725012588136284 -0.690475924610914
Ni 8.999385248478742 5.5786174161525 4.527793341286229 -0.5371672137510234 -0.739564711717765 0.4392035553203404
Ni 4.379093713579941 8.391413360339463 6.00580149391253 2.3645168220487855 -0.8487599771982093 -0.045490271122315205
Ni 8.416286040169119 8.286586117066392 0.9588707291539447 -1.2913818141714792 3.4924870325984174 -1.5218398178198627
Ni 6.325497530092132 2.7630319253529856 2.4391972842324865 0.7511027942643517 -0.7748477032897751 -1.3727713702935647
Ni 7.690975932143277 7.6824580189082905 11.002513888934027 0.159329463132674 -0.9442808305153543 -0.5716691041826348
Ni 2.3456355176639576 0.9710234496138506 0.8138245678472424 -1.4018492614961275 -1.4946755987002451 0.2995795410363937
Ni 4.565788085699683 1.3104151776120505 1.1944698651142984 1.0894545709729366 -0.6738825390286072 2.7614239305937605
Ni 7.772022057304648 2.22562903580017 5.997922657409852 0.059512296433020084 -1.0678447060126448 0.7721747844433023
Ni 9.036824882445886 6.027762409535572 0.6584477544867601 0.4611980573135605 -1.7161830780235605 0.41454410490044735
Ni 4.180308196276691 2.9412923505237374 3.06920192581727 -1.0401678089226667 0.076669524938597 0.6439998925365619
P 1.8664212643067761 0.16079543768346188 12.415854006961958 -1.814875644200468 2.7728807662804504 -1.1392187868802572
Ni 2.154677524133055 7.843738595133066 10.889411301696624 -1.0925758902107376 0.7662427352295836 -2.11283281914209
P 0.7918795125226681 1.0347258719232604 5.100802600895263 -0.8119644056364145 0.6104837630569874 0.15316704307570395
Ni 3.774424499356528 6.227396919286121 11.010570920554766 1.735834533705901 -0.4762914613115733 1.3915615064168745
P 6.764958411823597 2.2486917756872327 12.536316705646326 0.7912096895875664 0.052965496453437816 0.5827613574410544
P 4.281487570902577 7.621451847338103 1.6924431197218504 -1.1242809346235023 -1.0075703346026197 0.8474055200528439
P 8.493712285445303 4.052119666321904 6.8095641018211825 -0.15107133688893984 0.6995907424279887 0.3351070445190422
Ni 4.086088693801189 0.25004973378036605 10.86105028916318 1.2144590355714957 -1.0377157478377483 -0.08563778987547832
Ni 8.419318156052329 9.060848569828243 6.552963131815616 0.9007571962011068 1.343737187844744 1.2826848006181135
Ni 5.9056101225852045 7.321001816867653 3.8276843145641624 -1.5034546304444558 -0.04318733402075143 -1.8537916045393752
Ni 7.806597507960576 4.546774386715123 2.459583365513724 0.9505152414608404 1.6726926109400937 1.0818721306399883
Ni 1.3868058386942776 5.246512095861338 1.9699768848263655 1.2499528576027312 -0.06011342035212872 0.2115601383026163
Ni 4.266998721774499 0.144208364364203 8.153182347792482 -1.25069410664413 1.1159688152133815 0.14370692610406863
Ni 6.693885615521153 3.7241473532192386 8.35400264809305 -0.9167785113300276 0.27597167180946663 -1.3639491440162446
Ni 3.1294328086800873 7.465629079703106 4.1332376293057385 0.08191971759394279 0.37507201494775405 -0.658792220354388
Ni 9.49444114112728 1.348647826502496 13.129139209874356 -0.2848234657731417 0.9176603997143485 1.7385910134051152
Ni 2.991457541613031 4.457816771495407 7.206071563471728 -0.6333259577624835 0.6419229554028751 0.3946082852084688
Ni 0.28588187985004243 7.950748961842048 12.509607030070812 -0.19666265236549357 0.41095844443171803 0.2892884435230308
Ni 7.236718324901747 1.1410551787569367 0.8874779280059809 -1.2142685168272442 -0.2808616529119163 -1.1377913104051114
Ni 1.7916632810078157 2.997764342650108 3.1506249663068924 -0.3782362716083486 -0.12916682350636466 0.26439373716388015
Ni 6.196077494609394 0.11322480483146283 2.7209228329256976 -0.2190926992342356 -0.00580915048260935 0.23950520145231655
Ni 1.2033674925537363 7.722332675169335 1.4352012070665099 1.9471270201694275 -0.0429541349640228 0.6368254862753098
Ni 3.0655158058620193 8.047132928578796 12.911331596957945 3.1639766674602865 -1.5770959100796904 2.769307189996579
Ni 0.06277319541104757 2.0252388294756516 7.710110915763166 0.9044112480139262 -0.075497873227999 -0.2904297562163256
Ni 7.063290625969466 7.42717252071667 5.641628516040539 0.9806884226101111 -1.3773474197000215 0.8827458472253507
Ni 0.9788976213228637 3.2900043362675584 5.782176883294024 1.0555563755635948 -0.5176216875189278 -0.1010492393345421
Ni 3.814765634984221 5.482112164780426 2.5785710564407522 -0.21932641251159646 0.6516882623197551 0.9532277552959971
Ni 5.306594638285562 6.226407983028827 6.936185261104034 0.7328142803678089 -0.9409039436233214 1.6417411568639015
Ni 5.056589686524394 3.638511071090054 6.753469957981797 0.014095301750801531 -0.6096910919523628 -1.8588890736669403
Ni 8.860103839185072 6.331962934113869 6.970212132024783 -0.04417952273069165 0.19597796759364314 0.07602649203795937
Ni 2.4193672463562925 5.667565701784884 9.27119531175449 1.4281760723161145 1.4304242449203428 -2.14514387256997
Ni 3.029568905868148 2.0727544177623862 12.246725381872702 -1.072675294632069 -0.2930815920168759 -0.5831799330357118
P 3.36514483264717 2.771848385382627 5.28489681702531 0.5111268238232036 0.5694407290727483 -0.6005045403570884
Ni 8.789628136471938 2.280039189125958 1.9003651019002625 -0.04425588449458184 -1.7527876166204717 2.6067371084394204
P 1.2276990563180803 6.637087087838129 3.5515024066641923 0.4371155624430601 0.39896141997084195 -0.7451275505175231
Ni 8.285363941125775 0.47650960598935793 3.9238005221444543 -0.7858515105994466 0.874844590100403 -0.02845337024468648
P 0.8595152888516512 3.3795217267272517 1.104861044698742 2.367816318735664 -0.8097897665825988 1.1095215169261408
P 6.435987832876306 0.0806906678839857 5.4412989520336845 -0.9204317918118986 1.7089330813293664 -0.45343692531090296
P 2.9180989964140136 4.324049148315512 12.376404779883297 0.6365490926854714 -0.5820496760860104 -0.4105406401680091
Ni 3.2768029701914285 3.4058311630061824 10.280094087063935 0.09122016905926225 1.2705877602442632 0.572681347497233
