# total energy = -381169.14033968246 ev
CRYSTAL
PRIMVEC
9.22211308025244 0.00000000000000 0.00000000000000

0.00000000000000 9.22211308025244 0.00000000000000

0.00000000000000 0.00000000000000 13.49749467842483

PRIMCOORD
 96 1
Ni 7.656779230186023 1.8829802604700105 3.369460382294516 -0.14426845503449345 -0.027192758364708004 -0.10672906332813875
Ni 9.027286669608442 2.14072909753064 7.952197632338125 -0.25604793630234607 0.08107665286735714 2.199683398378747
Ni 3.384035931937592 4.366587520436308 10.181565069251505 0.5370877666633396 -0.8271861076821755 0.5687149066503173
Ni 1.9248302093977407 4.652454580123788 0.2919536542869297 0.3482919186404324 -1.0936094736815747 1.010878573040246
Ni 4.103416080914351 8.487110621020324 10.475554043884038 -0.03653897546629836 2.239587947883169 0.5363125790602119
Ni 3.3992339742101567 3.773255212346331 2.4522244093270142 -0.2671944398374689 -0.266318979211051 -0.13472272032758734
Ni 6.144527913500667 3.4032824818300935 2.083850793210087 -1.3718468015967664 -1.5349383028750339 -1.3104354883688205
Ni 9.005181264676805 6.378271590345588 5.1466759172747585 -0.06943752596653202 -0.38857544875082756 -0.5881467901226839
Ni 7.3276696825033625 8.084952716031239 8.755514687475202 -2.6941502450477666 0.07796047583587863 -1.5744746704067591
Ni 7.9855198933475044 2.130852214476078 6.016481640720398 -1.4138115760643264 1.0428183591716362 -0.43618173777488106
Ni 7.290716675594281 1.465716534338656 11.976502738840479 0.505583268297155 -1.6860726317914252 -1.3370384356683296
Ni 1.8707148501408168 5.1974999043914645 4.248241988351738 -0.3407218196026584 0.3088954191206809 -0.3924968952924208
Ni 5.306366948704347 2.8228703540944027 9.387426783212659 -1.6793502254659274 0.4035562384303759 0.674653869976993
Ni 0.9785768577830148 2.7716784046678207 2.927201963219392 0.056533416310354245 0.49384104015956237 -1.8385223370851302
Ni 6.58022664357793 5.765406846859196 8.626654102114431 1.0214170106777247 0.2145809274068111 0.5184074166450169
Ni 4.070668357546706 0.3719019965620024 4.5994735407694884 -0.8168908964037546 -0.031126031980843166 -0.4833722794177547
Ni 6.745007359188482 3.5683951935097067 7.788013587440578 1.5104212915702762 1.326191979872129 -1.2874395416942797
Ni 4.881937640749094 1.1931200953005816 12.14352073907198 0.5173653485337477 -0.19921190114990853 -1.3259266420258842
Ni 3.360353545677915 7.983647804402523 1.023606591283306 2.564899603578344 -2.212611419294325 -0.19166648470248282
Ni 4.476302999147901 4.914307257482531 7.888044003048623 -0.3637617321412574 0.6653832433083444 0.2820320190709336
Ni 2.139106005637453 6.133498266317421 6.818137793300868 -0.7367151580841119 -0.08244062309441931 -0.4874569910100895
Ni 5.910765792429686 7.514297583880727 4.584883235745566 -1.4659345220118107 -0.3582875964005636 -0.9990890366044858
Ni 6.005845777763512 5.55866551696456 6.1436545793967765 1.1290742422470876 0.937767969097501 0.3125078190622876
Ni 2.90524226767362 2.7810665157318204 4.714647588183224 0.5362197622360894 0.2923030619796385 0.32059779515927367
P 6.691777322782387 4.758250660797857 10.891573706967717 -0.3494499435042756 0.2775942950145541 0.032926832635007806
Ni 7.56235401487729 2.738580241005056 10.057428972395732 -0.8074801446128158 -1.7293494402021896 -3.237960418036604
P 6.2517534216943025 0.8972996090203957 9.966874277925466 0.1133311420256887 -0.9176362313446325 0.6306280992153461
Ni 8.705536368123298 3.8928475741124853 11.284607253325445 1.6644301138209852 1.7818441676667958 1.6321910512816213
P 1.8177891434646942 3.30157179722808 12.112165554771785 0.43804064536049075 -1.7532198190618837 -0.6094049281705117
P 2.3135883841550067 6.23077311455226 2.0347070750873493 0.5406502872036172 0.11449225221332542 0.9439039067919098
P 2.0426242591231483 4.916456009818398 8.593922056338938 -0.7527002206584585 0.7361991376796418 0.12366337718963219
Ni 5.7101018350214705 6.9747947495437606 1.5917053537020498 0.12610489675158926 1.1830008170622144 -0.0007811011403986548
Ni 1.8527132855072932 0.8352338661207663 8.558463953951932 -1.3429527442702356 1.061310504438553 0.5398586445402573
Ni 0.4317239993615619 7.716197304434892 3.3105301578249064 0.40729462242688563 0.14349069632820446 0.3439272139138335
Ni 8.490956242153613 7.533092250234785 1.2108127191476181 -1.0207348970090355 0.5854265629780434 0.09747489171972246
Ni 5.2430755869831005 9.107491386625734 2.4815009293503665 2.2710096567275597 -0.4508964182772363 1.1170700186973601
Ni 3.0055696353212134 0.7944112605845188 6.519505484757997 2.702280844574701 0.2411890169126427 1.2653601932967369
Ni 6.03749606968065 1.0384191492312393 5.259096241737894 0.6306301560978751 1.876946959609916 -0.8102052568534628
Ni 0.31635259872899585 3.3820162891841385 4.858544828838544 -0.9044667838422101 0.5814950891341212 -1.2990308460763047
Ni 8.720918852656451 6.395987269475198 12.263742971158047 -1.4395922845728564 0.04208433076455978 2.08343199738247
Ni 6.275011590754624 8.944204653325954 0.037581032806389136 -1.7316873443067464 -2.2656134254126528 0.03206654151724155
Ni 2.9361547905484002 2.059657501888578 10.510836926123485 1.4820411977656864 -1.0936107592331554 1.2548973460922002
Ni 4.9582321818418915 5.080028628622089 0.8342019116727688 -0.906540121431471 -1.3000497742591224 -0.9762321866109703
Ni 1.3146859892550422 5.277833730991169 11.508058129818178 1.5284925472496902 0.6335887245055669 -0.9876980211587247
Ni 1.1507444859301716 3.156120630527295 9.685451354506888 -0.608849569887674 0.22605756058784293 -0.08616666579575483
Ni 7.603456972649633 4.301903619647612 3.4725543838509503 1.6190231464410954 0.045959497449249875 1.2498798382729506
Ni 6.325585658608232 6.446681224798189 12.697659988998016 -1.166476594154946 -1.0136844179201574 -0.12959954016840905
Ni 3.668750227496388 2.709410697492846 0.19960249219852416 0.3554493556208201 0.6724869442326612 -0.2870742094805314
Ni 5.068676207482813 6.439589419878527 10.365859776032414 3.3637416129001876 -1.7080211110380583 0.9923344914894716
Ni 3.5539072539404106 0.9100906797922692 1.6458437682415474 -1.666377467355343 1.7210589180586233 0.4750976981137882
Ni 8.711761294418189 6.642420573848669 7.3766372582672375 -0.04808528554300105 -0.03575298922989327 0.24564062492609312
Ni 3.876386102354883 5.219448533401601 5.265534198843767 0.5957623976864127 -0.9107600730500894 0.6423237903857196
Ni 8.790730248289533 0.12845573459877668 9.79505063459431 0.4911182419117607 1.4303455691636078 0.6303612187072047
Ni 6.522533104465571 1.253607934660869 7.7028713511073095 1.1275498351827613 -1.532524808337535 1.1664315998496235
Ni 7.472604410874498 6.405707376608258 2.9319661068104153 -0.08521150097133712 1.6456764873625656 1.9388012739125513
Ni 5.074772024195291 3.5326133949553666 11.98767809540959 0.6840533089140219 1.3365568680462208 -0.7713931690822714
P 7.534530899867383 9.034498361997485 2.744512826316914 0.3800136752237456 -1.2082079124554612 0.0556129613786139
Ni 8.87638523410724 4.759836864238925 8.747483149237837 -0.2388739956262209 -0.3938924900883668 0.7251840175160609
P 7.922523639243202 4.5833625093070065 5.834481395661221 0.03864419473475925 -0.39666131108275554 0.3119115802391854
Ni 1.3443074163056967 8.722062394672106 1.347448468003534 -1.2404665153788508 2.844843115551365 0.7141881806261894
P 3.658356906112177 7.26936748393106 5.703109628922527 0.28024253127067866 1.2665755537610766 -0.392789229721859
P -0.06162769253072956 8.434516910413262 12.931814972084053 0.050096402435758886 1.6211466205420018 -1.2390099854379824
P 6.096904921816488 1.8133071965323722 0.42400877960110817 -1.5515039205431989 1.0158582856430247 -0.23137151660158864
Ni 5.097246313648108 5.245141340301702 3.2922546964344077 0.7958019369439391 0.8885444561849988 -0.04346835559627998
Ni 1.6172727398649496 8.411535404743827 5.647716084799718 -0.21519336417982943 -1.0552915519379826 -0.6231361617136753
Ni 1.7357953365196852 7.947238902162179 11.655356485758766 -0.6701680662914974 0.435255883526502 -2.347882041705582
Ni 1.4518188100032463 1.9070223091378362 0.6515413633206821 -0.7297906630501367 0.55125685907487 -0.3156620484205531
Ni 1.1745283154331723 1.6278412813967211 6.094105088300742 -1.0647966632149404 0.6266650008025401 0.21611716154567945
Ni 8.059739459008672 0.8785685752462412 0.671047054589312 2.669727593229028 0.5174224270239283 1.4798629591674448
Ni 2.959744955677782 6.623579796929463 9.928312012292743 -3.2613435728472346 -1.0479898760702469 -0.6107681270666256
Ni 8.706679910138952 6.894331813361644 10.164868433611652 1.3575041597218493 -0.417380545907978 -2.033474691627737
Ni 3.018028710024026 8.021864240796642 8.093988542377513 0.3388454285155519 0.09113969353031401 -1.8387408808538397
Ni 4.886391921342328 2.565305959294363 6.795326896722477 -1.1688126984872902 -0.09923326917172588 -0.22837155343300022
Ni 4.190915489337953 0.7821264838179631 8.73702250642851 1.0773333622293704 1.2768124009977366 -0.46288701498020923
Ni 0.4857997035324593 5.127734619323532 2.32433583467955 -0.8144164667213328 1.0648110613926438 0.13737969833446018
Ni 0.6964465982950755 1.3831417342727907 11.442352418905815 0.13309161248206755 0.11869214922728591 1.2482317611465663
Ni 0.8868011555476483 3.9716966405144456 6.841178320493693 0.4088223719253217 1.0677022668975096 1.330460525340496
Ni 8.928951278375214 0.5150808346123263 4.793028171243288 1.046606879679791 -1.0894761682394916 -2.2729364414366273
Ni 5.880286708867291 3.529035215099933 4.956077896238208 0.24868763928253299 -0.1691683035999667 -0.5058694320790061
Ni 6.992455095995194 8.120264186821077 11.271069191398185 -0.16317249102784803 1.6342283934266244 -0.4558501627380859
Ni 5.1191211657540086 8.732972154385967 6.832944817980984 -0.6404062616480325 -0.8334387734601065 -0.8216736625043785
Ni 1.4762205210792212 6.906071563248157 13.550270160488909 0.0665090394658274 -2.1911038842398525 0.8461047989635492
Ni 7.40883349927572 3.4001008528349272 13.111519833210194 -0.5083932269421244 0.8312769899220973 1.4024933228380299
Ni -0.23276705507510062 9.019558538889747 7.341988857404219 1.1029770309394038 0.7212147484556675 0.14937440880249114
Ni 3.010171469722918 3.1307137091311077 7.988329871187584 -0.6773908092921819 -2.1111837135744413 -0.10558775063484398
Ni 1.9277443971150532 0.8531570427935394 3.512452933661645 -0.3831445075432434 -1.4097723729979463 0.26590914536714205
Ni 7.344195709052171 8.657175607396763 5.827259558947844 0.8509335878107605 -2.002673132865848 1.6390672095761645
Ni 7.6450302581864795 5.3398708853404075 0.8871958619853095 -0.07033921184519498 -0.66513847428739 0.16264387221788762
P 4.848885587651478 2.1652230297369095 3.619137103820451 -0.6758723157651264 0.33858831819942337 -0.8526721677684218
Ni 2.8972743620161587 0.3590168602372283 12.733360632957696 -0.8866973756739308 0.9713491474870563 0.556949281473957
P 1.3494533553761405 8.15598143058421 9.445991812006302 -0.8668723705282039 -0.4103233819508805 0.4218018149041252
Ni 3.1959232703624836 7.856235090787378 3.5305393417350395 -0.792052754314152 -1.769392057946372 -0.8095496255473349
P 4.266564482518687 7.876348519304651 12.497073497339247 1.455845513206925 -0.01397163168874368 0.7484910676731173
P 8.993321627320908 3.4495774892380284 1.1937020106327414 0.08184592693321388 -0.5840733913842586 -0.3298221419710191
P 5.110314047810865 7.461215101283104 8.51162853072047 0.4677489710582009 -0.6897115356410638 0.39950675095135063
Ni 3.7138832486626097 5.840419514240897 12.136339479655932 -0.6121930324386102 -0.3273780513059007 1.5374181318740943
