# total energy = -340887.9461599983 ev
CRYSTAL
PRIMVEC
9.08104754373393 0.00000000000000 0.00000000000000
0.00000000000000 9.08104754373393 0.00000000000000
0.00000000000000 0.00000000000000 13.29103100660719
PRIMCOORD
 96 1
Ni 6.128217848418821 2.278779926451052 11.44345854151019 1.2281954113209814 -0.7712959813827749 0.04646189100696514
Ni 4.705453794362472 0.22041700392449617 5.856426633821124 -0.05153519176481446 -0.8343193762928469 -0.04425074228825927
Ni 3.1602136511205656 1.8566292659654735 4.729759218304427 -1.413698704635546 -1.6455517888592435 0.6515057139953039
Ni 3.699155664984616 4.090240061578759 4.739382404462203 -1.4323949954934685 2.3661810971250863 -0.36461019618448176
Ni 5.427233620909995 4.1931918983917384 2.876165746556698 -1.7492106979024906 1.3227960668167025 -1.2320703208953556
Ni 7.116017883804612 6.058902211972364 2.635797681021713 0.17549373159736226 0.494274013931923 0.2682966717627121
Ni 5.006935494137908 4.659049641049044 11.200112800462197 0.03177009332274529 -0.02505797140989233 1.4648099214890644
Ni 5.670642021186534 7.9324222265020214 12.560316609393 0.0159071581485597 -0.5497486499604597 -0.22630618626353927
Ni 1.459469648516794 6.730690871398475 0.4335718940711552 0.8173572945172117 -0.3224572169655156 0.35099543361452457
Ni 2.559048298997493 1.7173441576442698 0.49656530516794267 1.397521323544735 -2.1164537037241296 -0.009561161325873856
Ni 0.7287822223635675 0.023101277028185572 4.984854018756904 -0.40601498438351363 2.177702266121966 -0.6371787558496703
Ni 8.688782682368045 2.4657496157994196 1.5060463417349093 0.628814185935059 0.25396842806549813 -0.6500484127234869
Ni 7.118106524756097 0.8041358473693386 4.809665172479673 -0.37261326899461633 0.2659932204405161 -0.45176956491080905
Ni 0.9745417058676688 7.626545299680851 2.957227718093354 0.04124306581018704 -0.23830295361409928 -0.44704027775593974
Ni 7.718036854403509 3.955332018208058 3.711546754455491 0.838130265398505 -0.3769008406263767 0.5921271149266706
Ni 7.73302058296851 3.6879224090846723 12.762008493135054 0.663992790718721 0.05629944592267724 -0.4769314088884173
Ni 7.554151188092858 8.750715427103382 7.033587398392353 -0.48716774190444484 0.5867499097751573 -0.7376746937839038
Ni 6.6657432188549075 0.8963675074726315 0.551140585125484 0.8738979099164176 -0.5284030944051481 -1.6920257640510667
Ni 1.7424441732525502 6.538281634528631 9.19577212209342 -0.6279335831023185 0.02589666526110379 0.10213064532417895
Ni 0.0644509192390194 5.181709336539126 1.6534444579954901 -1.2069118193518569 -1.3335777308132386 -0.9438807668634582
Ni 6.2594571485529995 1.812431807222528 6.922952087192192 1.3348062039037012 0.5452723593566609 -0.01911358090099934
Ni 3.414710010535205 4.715579162453366 0.5629686496442198 -1.4153958898323107 -1.2282789721737233 0.9248358344168652
Ni 5.695269822318827 5.305039044200509 4.903034687849145 1.3949070258503398 1.5782019986596754 0.02878864209691816
Ni 5.170176406067883 2.9069159899911265 9.300239585753369 0.09062135913299878 -0.03896841084339741 -0.48093307384864276
P 0.15854419410341847 5.624592028730097 12.345932145399251 -0.09862777437724304 -1.765518691033895 0.4055385589677274
P 4.085390782152267 6.187753196583758 12.588068290904907 0.7860867665387042 0.9167782542197115 -1.2885471729361615
P 2.1917199229645883 8.563028334993417 1.4106971579853347 1.3068004627193948 0.3619938416075572 0.2613071278187564
P 6.296144580918215 7.712996872977099 5.614676432839113 -0.695632272000873 -0.8685857536748847 1.0102411965665632
P 4.687981858750919 1.1461190195083535 12.67521819676276 -0.019943790111778555 -1.0254335880362855 1.4321671957533786
P 4.110844958617538 5.840966150256328 7.874031998441354 0.871273584919693 1.808769274192414 0.5508891913228061
P 4.62268004535036 0.8402157576490996 3.5973235213425845 2.0260658007581753 0.37051242060152967 0.6293029526460194
P 0.04532986538055502 5.884309990523449 3.863051320447643 -0.08916457208181418 -1.71472603386206 -0.35405324660424187
Ni 1.6126578407367957 1.1553362828377332 2.8059229351487347 0.3323485079372986 0.1362198736984041 -0.2797031138274409
Ni 1.2194575600483224 6.837701936495428 5.471425631024372 -0.214886631572688 -1.0080565302104187 -0.7167112041583592
Ni 6.141303638032255 5.720669512498407 9.19674197797872 -0.3913519830547002 0.36114871999844256 -0.5667883790515658
Ni 8.538336966527819 2.3333751847133466 10.116282502755695 0.7623889087011321 1.4210685147370556 1.047436831780254
Ni 2.1760551158284507 5.3447595464691835 7.1161640886712165 0.7248834555565065 -0.5603338816754737 -0.5827101924881448
Ni 0.28092129986997044 0.140195029292242 9.688815796996206 2.086003100543756 -0.851326709484121 -0.2695907079837873
Ni 1.805375833225555 0.9570425271132706 11.663437838939636 -1.1288724106489267 -0.09566046421880299 -1.2897381079204693
Ni 3.9648398750611222 6.8758514175266825 1.4650036389334677 0.06610280516634422 0.6232333494131719 -1.0086280864431727
Ni 5.42209374795982 7.772032763523203 7.971987442856477 0.8188055969279641 0.29848605086189883 0.09864422943747526
Ni 5.487704316979294 2.7644343529093893 4.646132758921252 1.0798507293345854 -1.4966980284469127 1.2909187584921318
Ni 0.6903485045419591 8.234802949991357 7.321431180859353 0.7480367537445182 -0.03281447542685962 0.6373085965593154
Ni 5.428141725671511 4.261372403886301 7.1194341739174325 -1.1168172792566058 0.09675498283456241 0.5812901722121666
Ni 8.08220502586634 7.297638836107655 8.752383615550286 -0.069085541943752 -0.1725001961866771 1.5586127636738385
Ni 4.851177365442819 0.18689704096744653 10.711069327033886 -0.6595113579085997 -0.18626279718840827 -1.4199122896454255
Ni 8.091731044814635 7.7328026378257455 4.42624608817748 -0.44537214602489744 -1.3448353060049292 0.011570221336102653
Ni 7.1649011631169754 6.053090341498667 6.8326265389833205 0.12324480159497485 0.16310769922818358 -0.1590839227807712
Ni 2.058855115307297 5.351170766085481 2.699674678051455 1.2567552252365453 -0.2814126403193799 0.6673915319876248
Ni 2.306368149105884 5.4574281042303765 11.449293114602927 -0.4920448674910881 -0.726316331348291 0.7299924946482976
Ni 1.0629911096392508 3.38160051093036 4.122878254812377 1.435858785672353 0.5113003732865904 -0.6993557435990472
Ni 3.797403519132947 2.5007842974986767 2.5326987312373674 -0.2033935433314239 0.921251973720349 -0.9578110037913053
Ni 1.1322522598000164 3.280028993354883 8.210680963211228 -0.2102347346229734 -0.0866520900726056 0.18369195113743847
Ni 3.8914196050926173 2.3956166850675995 7.1736480281798904 0.8163057133242457 0.3608939236751591 -0.15086256331224338
Ni 3.7940344504677253 6.705963178742416 5.386017470099104 0.5357405086068258 -0.3815943894473041 1.5163402281578724
Ni 0.8447653625042909 7.385080243593955 11.351058882026019 -0.3768381057092413 1.0881129693433778 0.10534580982736695
P 0.16403550359630098 5.851663624346977 7.7457740062392295 0.1165380789987606 -0.38593055492881273 0.3675332833685477
P 8.707507802550488 1.2900627052561304 8.009268775735723 0.741666074331484 1.1187551197092669 -0.5233832725930534
P 1.9159103447971868 3.4099878657753258 10.340315579840544 -2.184620333398038 -1.0262977358087937 0.32774571905796457
P 4.1080298338568415 5.985000646480256 3.3294435139527336 0.17919046372265915 -0.9748543324268373 1.4981815549709747
P 6.811593924601866 3.926581421458487 10.203830158499093 1.9907516988379133 0.4941655133785167 0.7264914234735746
P 6.647808149814981 7.750428951246757 10.361209254193486 -1.599097611161762 -0.9234952612285708 -0.05832316122092535
P 2.5771377458468763 8.486829264454675 5.745154741183142 0.3252247524083237 1.0722101820701921 1.2288492428548965
P 6.9564911203492334 3.8811580212874954 1.5592104268930562 0.9904670992634297 -0.14605819994506458 -1.2202715284882146
Ni 5.086585362770408 3.21868651671453 0.1891155408998282 1.0360864397644414 -0.9578428854705052 0.7610192820471151
Ni 1.8206229121713953 1.2988259162047522 6.840601514998946 0.08906969837516272 -0.9042184152768299 0.5251208241094504
Ni 7.058262420972245 0.6751295768437257 9.418038027312361 -2.0112441623643105 -0.32535073646322676 -0.9080838117695069
Ni 2.92532327350704 1.5428336656238908 9.253999799401775 -0.3156576775451789 -0.5490588229822866 0.5563913520879579
Ni 6.37857325012095 1.8905288167128367 2.5593080169592866 0.2562777929249651 0.14191023921496204 0.6852244464039876
Ni 4.017873193133611 6.765271500716975 10.252289352887828 0.3468287038313446 1.0935601085008781 0.05141846368129209
Ni 8.030833539507425 7.067288982301705 0.20734937640629222 0.6475223038675235 0.7773344742673709 -0.10711035792695747
Ni 7.6347818098677935 3.6659190307131593 8.158500355509803 0.5985957533701497 0.18465997147766264 -0.29464328007704094
Ni 3.1338786130366243 8.283786120827488 12.663588099082034 0.680866426545608 -0.08858607387052486 -0.3304682601954502
Ni -0.005608455007117972 4.927558056933863 10.18732263014427 0.4144479456422152 -0.6481486245976128 -0.6777389366602199
Ni 8.88004770723838 2.2808776484501516 5.97687038455041 -0.9389486196691637 -0.32945781665306484 0.2451688274959971
Ni 3.6129583610215916 2.6409048622004745 11.568978597856347 -0.10634931139121684 0.6316560262592283 -0.46298548823128644
Ni 1.3380560419022096 3.197100866533314 12.491655716479597 -1.2915890450862788 1.554817044076832 -0.06389988397775447
Ni 3.086339328771303 8.170609024399846 8.010956034382618 0.1413790493018404 0.3455194981016178 -0.48563202198620886
Ni 5.762723844004177 7.9429562417355974 3.578331418360255 -0.5174885043751732 0.15058205595734714 -0.8068733642667523
Ni 3.3159717798156554 8.177092892397065 3.5506986985721083 -0.9772626847580136 0.35780062946181607 -0.30346910589878706
Ni 3.4312829224328576 4.47583950541335 9.512124945443428 0.35081905593766033 0.739772713963513 -2.032391228755571
Ni 7.187594701107241 5.8075842192230285 11.484886280730516 0.15430167090077943 0.8743553091688102 -0.5691357962378198
Ni 0.36191607165427403 -0.05682647166133765 0.3908782568132788 0.051805414707065615 1.016334711058811 -0.9511996691223747
Ni 4.541595371194666 0.159382374798297 1.574243193115179 -0.2297910594883462 0.10066897317698793 -1.2792534063390615
Ni 6.196598136960917 5.492317489167791 0.3164445419309227 -1.573704625009954 0.40928054250866286 0.3616688541679707
Ni 7.988978991049189 8.910650837701441 11.54775255716069 -0.3386068301421846 0.2683100414991508 1.5398740496137544
Ni 0.06999853122711586 4.703437801791908 5.885122744285005 -0.42561013290662186 -0.09159786411365516 -0.009644722178615648
Ni 8.387192010021225 9.23469894080053 2.4683967411792365 -1.513074155812091 -0.6381046100980495 0.15873476697146857
P 8.771283999951702 1.8414548354005542 3.6549409522512017 -1.1455678690267368 -0.7658323871650423 1.2750787061360815
P 1.8675628472941168 3.2698309768830676 1.6908320391318332 -0.7385954058259602 1.5530123867679253 0.7183590241744274
P 5.0106587236601206 0.9866467423386667 8.423656048615108 -0.8424147517064716 -2.286644020830707 0.37278270469294505
P 8.727976483875041 1.6990912519378139 12.398206287891112 -0.23787795026153868 -0.07823481254318784 0.4386556532366704
P 6.339043449852193 7.662052195856096 1.3288342380490228 -0.3524527348863414 0.7807363008600683 0.8620682642713412
P 2.3392778656631954 3.3418255223759936 6.143911714907326 -2.9437891924999753 0.5728988628246778 0.17813116922020936
P 7.0675069274444695 3.728042477448415 5.909259260741318 0.6337810430220311 0.1890501301255583 -0.40845239018041274
P 2.418010548486565 8.473906933698315 10.231329386887296 0.6035690382150249 0.18739973900632884 -0.3765892229232289
