# total energy = -340871.57956024143 ev
CRYSTAL
PRIMVEC
9.20993036146323 0.00000000000000 0.00000000000000
0.00000000000000 9.20993036146323 0.00000000000000
0.00000000000000 0.00000000000000 13.47966403802745
PRIMCOORD
 96 1
Ni 8.130480429586314 4.010593093288221 5.018249726713821 1.0133054373141839 -1.0142539172703822 -2.1415355863934216
Ni 8.487659946937699 7.478279214557735 7.663930226803468 0.4882139237807721 1.3819993166497362 -0.6565833856285272
Ni 6.627272443819109 8.3919503511377 13.1287482914957 0.5965566114529339 -0.9688060693502283 -0.09804387684931502
Ni 0.5144142106131581 5.094565051263278 2.444415892986356 -0.641616994126682 2.397985643230193 0.12487539521986236
Ni 3.4695004775409344 2.047431977820496 3.641355935172655 -0.5520593003715073 -0.6505816595191376 -0.9575070993976412
Ni 6.883216407183427 0.9192984040004617 10.60136474129569 1.0663449815386667 -0.4484109328512213 -0.14709821117380473
Ni 5.903611379501442 8.905265817064663 7.439507249931211 -1.0888907280496667 -0.284126182595801 -0.20123638777910505
Ni 0.5051683615731638 4.319273117617782 6.843342013898583 -0.43143419578756664 0.337617983866354 -0.2491280692540613
Ni 4.8023523823311765 3.623518142144803 7.5010820810166665 -0.58723122028695 0.2526818480435906 0.053592588514475445
Ni 3.1583521918878166 7.333112292983485 4.52701046374419 -0.01812370618390427 0.8850097035588629 -2.182618729586977
Ni 3.7395540541428973 1.3099191783139141 7.1469989422361015 -0.6073981821531281 0.011144960873225966 2.4003752265082916
Ni 2.51450438365202 5.637702271539779 3.234486080810132 1.8594405752950363 -0.31625623036112627 -0.42057051360018544
Ni 7.085623045645379 5.867342673933659 3.3226297188590057 -1.1039147122623245 1.0229804985101028 0.9817492597744576
Ni 7.071098985543705 4.710114930258717 6.835820263812954 -2.2097996608771426 -0.1755315268138332 0.8546411185693346
Ni 0.33242230368029435 9.083404289155078 9.378974898678855 -0.14869486623696326 0.08274478459839943 0.0396500102914543
Ni 9.197331127111775 1.2884139910359118 4.300228823719086 -0.3589833369160076 -0.4964190852993838 1.5916558101717362
Ni 3.4537607066381053 7.2933622337578505 1.3413278036561718 -1.8823935845467836 0.9411633679322953 -0.33674740833594263
Ni 9.068999958147456 0.8612813689944455 1.9433901580674302 -1.975794306197133 -1.0809984697857835 0.3402500221725624
Ni 2.7425698879625857 5.123106625299479 6.096016033644802 2.200612595061236 1.1467505764809283 -0.33015278583756047
Ni 6.752684064874594 2.208734697300981 6.322083904070744 -0.41350975009866203 -0.20566228476094256 0.38677799053077255
Ni 4.332332798799883 0.5136617593066858 11.829604731646567 -0.30171227110868043 0.5020310321695224 0.27762386270090894
Ni 2.9551442894887407 2.7929205769770777 12.141025631236912 0.927062666864855 -1.0721286780999795 0.5441120204999725
Ni 1.7593637775286948 6.669969680744513 7.704746795959206 -1.2203669164154982 0.3145191930653615 0.3408863702049807
Ni 6.20802720609665 4.458960130656523 9.26755224077393 0.1271816747555358 0.08003458475608796 -0.1744568056924157
P 2.524598467273729 3.7298652074549064 7.6406779157453215 1.385784751834097 -0.49439434155987116 0.34984615050142975
P 1.4008488202821012 6.3968676172093515 10.481665119019569 0.5231809267742602 -0.7157285285301157 -0.06693764236281374
P 6.299279195625749 2.409373029143071 8.87970181349826 -0.6181160827912645 -0.9962032304162584 -0.4476100342164807
P 4.149497262250461 4.578458976451846 12.010367112882808 -0.18936894691755773 1.0024533250910284 -1.5692861842272845
P 5.801114065061661 1.775094338501212 13.177099504639507 -0.304898639256462 -1.3136827916615246 -1.4751732670012594
P 4.832570163684121 6.871344807011545 2.8015594916095257 1.021467661410002 -1.014439550918627 1.7225295890668784
P 7.283507608324247 5.330339267244803 12.71151173957424 -0.2369029879427791 0.6762921769113643 0.5772684526472833
P 4.811553102712643 7.964655634322746 10.268901913922024 -0.12216108161249283 0.5145265935333719 -0.07707241680397049
Ni 1.2037010520281752 4.452550019159525 9.186107906033843 0.05671699307607007 1.5990636726000331 0.4845038219190365
Ni 0.4641795667205945 8.825664389379963 0.026504337451235555 0.8029398335403011 -0.8650008645371039 0.8057094258656382
Ni 2.249359699906235 1.7958811512148956 5.453197895617862 -1.5687825051179887 -0.927624452905596 1.8432773352716127
Ni 5.0256931923918 5.484568760245841 4.697541533397078 -0.3499222551550038 -1.1256893849352547 -0.563027883567869
Ni 5.980053801089202 5.963015430012412 10.894911008136937 -1.246841308556943 0.36800148125421783 2.1971629459497386
Ni 0.43043990801642595 4.478816740408717 0.11942056138767318 -0.26222732564018064 -0.008907072681642725 0.22141569094045738
Ni 5.887217703546477 6.306140593708023 0.8190234457449131 -0.6477539602623554 0.047284644018576634 -0.2943938830703962
Ni 4.028377468720264 2.3092334568631054 1.489705306937107 -0.7816279594364023 -1.1720461178229236 -2.4638948443284923
Ni 4.756026432862932 -0.0267060349250635 0.7780678066414662 -0.5227332977138803 0.8510765411465278 -0.6843459004537762
Ni 9.118171776082042 6.527952555336891 12.332314962819519 0.3556547867634068 1.1716203431394145 0.7232343499888576
Ni 7.9742431717773075 7.27689487836039 1.4874543999689083 0.4494190624007615 0.8910965331828911 0.40609700257435866
Ni 7.866560666571996 3.4903885994880475 11.753741614675418 -0.03515237953141688 -0.8196028960182787 0.06408731739821222
Ni 0.8990383993006118 7.538843716287988 2.9741259558613153 0.21519105018698423 0.4382653597767872 0.8098609861401664
Ni 1.2713387802378748 8.028977787620207 5.856886640050697 -1.22562867903507 0.24392929866194119 -0.6108642863248576
Ni 0.6471016766149479 2.1024613114333714 12.203692760057345 0.8441165648889268 -0.33894364465631305 -0.8114563556517443
Ni 8.39935513510837 3.4069005812117776 8.992836597448145 -1.5471754683711743 -0.9738701141366969 -0.2253829031183215
Ni 7.186480992489663 7.817692776337699 9.583299965624748 1.0881191399909649 0.9127357087192216 1.1373709350382413
Ni 7.7745810925482655 0.9804247114797342 8.048559020456077 1.011188133860865 -0.02622653779669677 0.46557458911470145
Ni 2.606852354888221 8.05903900015785 9.580050702210753 1.5438145223187414 -0.3558787298487548 -1.0890676199471632
Ni 3.3635586491645486 5.6385127454072155 8.927203871067318 0.4222409593240728 -0.6555138067134323 0.3489578343592055
Ni 4.859803927616049 0.6877147063107966 9.334896172206683 -0.9670176099912376 0.8164874903177488 0.18575577564500267
Ni 1.3983805589585445 4.288208022676153 11.53092208667044 -0.41918340344467164 1.0243172150436555 -0.8230579444464149
Ni 3.6570514984099876 5.228385338693417 0.4953846526029617 -0.2913532964718595 -1.9382299747901133 1.1976422211244728
Ni 4.817732965951846 2.8766204236505186 5.199699168751321 0.5058987426550448 1.3681384995072439 -0.29045032504161594
P 0.9202497898016684 5.906217789779674 5.135603579739532 -0.7029059228441508 -0.3115050888293861 -0.6300881675514761
P 5.079792323043186 5.9691124038788095 6.786040590477793 -0.054991268634214975 -1.0064308216815376 -0.3335021619257676
P 8.882112052260853 2.2016522608912235 6.287804543450305 0.5461768734488013 0.5483864795056105 -0.10463001470726496
P 8.219135218767493 5.540215159189605 8.33090417005214 0.9231612749279198 -0.2739106755153799 0.5405690403437207
P 2.549032412390877 0.6718883620630368 13.301206999562844 0.09601321957253142 -0.0539186043953265 -0.5962141405118506
P 4.634685601005253 0.7239576240737066 5.434743958252152 1.128466947680392 -1.2198802065870669 -1.8938319082907125
P 2.319428849718244 3.7340280959558303 2.1114953320761947 1.1402181746790492 0.8794368374567758 1.5196091287171314
P 0.8637763391159062 6.842747973393474 0.9728458598261718 1.0864972881168256 -0.9727149174863312 -1.2578731408910724
Ni 5.6143643081297325 3.8897588075976897 -0.01799712482224595 0.5233246514409762 0.10126032690408367 0.025573734704046284
Ni 7.810518240624824 6.390300936897054 5.436213863129912 1.141609141489305 0.9779928780558189 0.5056668291498969
Ni 3.29364606816784 3.2095225647000567 9.631301201416706 0.8553067771777915 0.3601503606409152 -0.023976308309939354
Ni 0.15707259848828517 3.0194848626468236 2.9347921854857733 -1.0339609087810064 -0.5372821420623327 -1.046432815995772
Ni 1.4330191068611429 2.3198985561641448 0.9300648125349306 0.307495967669993 -0.3373045663909933 -0.8734320260235924
Ni 8.188493780620206 5.51450103375912 10.475181328080078 1.141757494141711 -0.14547687352029784 -0.6649394709027064
Ni 6.6081434185615455 1.4926257758389718 3.908334316043515 0.44006281799684216 -1.2550297579050063 1.6697700379766596
Ni 1.123123371730427 2.0966222156157035 8.000180177521337 0.3365774584169816 -1.084498769629558 -0.6048844145923389
Ni 2.4490401989959003 1.2042904875681288 10.30417870999523 -0.6543768648955117 -0.2744493216276693 -0.12499418018591378
Ni 4.60416389195202 7.415310921016107 12.227389910749553 -0.28019393742093035 -0.5625013216404376 1.957228113159171
Ni 3.8143663180654728 7.696591402668127 6.527136555511268 -0.9285868168188653 0.9284523481235301 3.6137862804312473
Ni 8.008218604697458 8.35041356543158 3.991732997995761 -0.5576177682958913 0.4234185245719418 -0.2993216593893167
Ni 4.643987630620149 4.23013020213008 2.466144881570935 0.9103260708364646 1.274181648243109 1.0548369808990672
Ni 1.5594714500418587 8.513466171671302 11.530854854179166 -0.3732719856245378 0.04629014131579125 0.6709797635595154
Ni 7.608608938399708 4.658806408491801 1.6097549065650745 -0.6766467320373056 -1.7860499782180272 -1.9192696316375268
Ni 5.3369612071389705 2.607773347919399 10.989538437125304 -0.45345080926797393 1.5356391855968003 0.7815443985836604
Ni 2.5497507869551956 6.401362063201499 12.420310320990371 -1.131517818691574 0.10003699601994384 -0.5083479755264857
Ni 6.434002056226442 2.3119872260263272 1.8193775254263045 0.08322326689671475 0.41630016835960565 -1.6172064049473307
Ni 5.003018343964202 9.10366613584099 3.0953350857155364 -1.2248897439865165 -0.2142726521377729 1.1518151354880293
Ni 1.7011478080279443 3.779405422601962 4.505213321675305 -0.3320790563259958 0.09894787672082314 -0.8013817450245617
Ni 7.988647502784929 0.9707174449311199 12.777494443306914 -1.6933154293967678 1.7590132858152094 0.5083713725652534
Ni 2.359289428107621 0.36017274470271354 2.0546912448922394 0.4659209167105266 -0.5375320532896097 -0.011792364649237755
Ni 5.46762248847217 6.718202085787296 8.7385697623936 -0.6801097508852415 -0.41258955227723787 -1.9996950240741302
Ni 5.603238712313105 7.705663184025229 5.15079535978881 1.5565592235789194 1.322773183998567 -0.6997159551519432
P 1.8727656494576206 9.048231565294397 7.702603645175656 0.41833853894587303 -0.10862293791674196 -0.06340623217078759
P 8.291700259693993 8.473071417323842 11.405480993837958 0.6976256482818178 -0.11550166731444625 0.21496993531511366
P 6.806055611031349 0.18038201111436486 1.9217689256674995 0.9157428709766616 -1.8242907668667805 0.21340721881368407
P 0.352452981115381 1.9893449473441103 10.036917584263797 0.15292561648885922 -0.22993684103759113 1.478581264241544
P 6.5384610858226315 3.577431650864664 3.5907132913672797 -0.6925739447905234 1.9575317604425189 0.6634526019445348
P 7.526723447997688 8.73180598957263 6.148128582327938 0.8827859564346668 -0.39879429826535834 -1.320043957992862
P 1.7765955571420318 0.10035047968410506 4.157100980715865 0.5803774305899101 0.005467707982790583 -0.704923981715444
P 8.34978729017038 2.7253381083492485 0.7280367022087931 1.514313941756463 0.10041906194971092 -0.5590413881162952
