# total energy = -340897.2651352818 ev
CRYSTAL
PRIMVEC
9.02254954028845 0.00000000000000 0.00000000000000

0.00000000000000 9.02254954028845 0.00000000000000

0.00000000000000 0.00000000000000 13.20541326550052

PRIMCOORD
 96 1
Ni 6.480067389771982 1.8245400045107967 11.548477477309993 -0.747926453418899 0.40358349212388556 -0.9685191342374286
Ni 4.527253795882637 0.5658239425916426 5.9214524644071425 -0.027250865296153066 -1.4135421244530235 0.71675696979463
Ni 2.746265638873441 1.697511526993699 4.867633995369197 -0.3562232576723671 -0.43950360305926245 -0.6974806380635213
Ni 3.2940517000635507 4.252896103976969 4.819368767893526 0.15990564735111815 0.9618849167503628 -0.3140826197485752
Ni 5.031018836985673 4.745256642233096 2.629831439238336 0.3961838572257048 -0.79433615103169 -0.8284307787225539
Ni 7.345898328615171 6.088091739707859 2.655899389891252 0.1512294597333589 -0.17867624309040195 -0.34518114092559266
Ni 5.107899983155372 4.6456928060656715 11.216388098761744 0.7986018682865794 0.31592198695015916 0.1787117243140277
Ni 5.6507867998471655 7.814511516006536 12.423613371680092 0.01476070324894232 -0.30801790161173404 -0.4772599958724297
Ni 1.9305910539273723 6.389589261173257 0.40004180951438884 0.2434042793964066 -0.06925857718650652 -0.146766795976315
Ni 2.630930385794312 1.5837642426654048 0.32284216733955085 0.06257936539411803 -0.4980494218139551 0.14186858734374921
Ni 0.4906588853788124 0.13107148204692312 4.85061205306621 0.21239934637446004 -0.5531669316133891 -0.5079427696682671
Ni 8.52621023797178 2.166711180116906 1.2283533775992068 0.6797490251117132 0.983769632638596 0.8786423665799384
Ni 6.687522875498996 0.7546848555993593 4.873510382002259 0.10996376821535256 -0.5031090957250497 -1.722175291051253
Ni 0.9518338827804693 7.313832186907964 2.481904932058258 -0.8077462537900089 0.2001434118252424 0.29815386433346075
Ni 7.587513187584583 3.890622687593241 3.9048404214430485 0.31282663585428705 -0.38461697832371183 -0.611566968818837
Ni 7.640141720105162 3.8738858578614264 12.68616325276634 -0.03769185812381896 -0.3760798873869781 -0.43147636187941174
Ni 7.874340043204197 8.804086724268503 6.744136668231188 0.6151390024408115 0.0021862090180413962 1.1490648264364016
Ni 7.0057842943453705 0.4334514088750011 0.296109254772223 -0.4363028367337776 1.0450408207442519 0.6450928684904245
Ni 1.805349041254964 6.497147076393182 9.298948313307196 0.4837864841370378 0.2621234530724647 -0.8853573167062688
Ni 0.09838097989904696 4.737325821028642 1.3346841260571225 -0.367357934132948 0.16557492982175354 0.28024793058731734
Ni 6.4724162676088675 1.925105343697214 6.9034207609996265 -0.5192864768158605 0.5555094637036369 1.2040404113413328
Ni 3.3892035094175754 4.136793934171584 0.4439581680247036 0.2740302318123797 0.7225740906970394 -0.10845915864536805
Ni 5.876819715449009 5.645634923956672 4.645241678579639 1.0105199041492468 0.38384744714753893 1.1953351702578512
Ni 5.414675696207352 2.7782144874342793 9.367432172451883 0.1157523498726716 0.362553313655453 0.06513427060548782
P 0.14327177377919242 5.540513197161324 12.375955361800623 0.9329813463421351 -0.3541077539912611 0.6757018516255331
P 4.080944351400731 6.032783509920245 12.647999671957914 -0.9334899105474376 0.05149276856265326 0.12062818990773419
P 2.3606779540115412 8.571133513030919 1.3347896898888543 0.30483384745679754 -0.5594406804372429 0.015183135498341594
P 6.327441938697388 7.715723619115087 5.754800557536817 -0.9786693352975533 0.1810426864400495 -0.9159508732224096
P 4.643942431419865 1.0067541429300946 12.43547170877795 0.29778825346392584 0.5215513615906373 0.9490898218682235
P 3.8558588035195585 6.242413430129937 8.330661811111113 0.016597499347364965 -0.09255739981344704 -0.9150062499209533
P 4.647948443495836 1.209851737142032 3.7567812827820766 0.10289220608055183 -0.4327760545274417 -0.4179649576565382
P 0.35044395144497775 5.403514802202904 3.597828317588386 -1.1436040604321465 0.2183905309608884 -0.2518009881005341
Ni 1.4410545737338092 1.0212082675825835 2.6880151556219225 0.032119763352680165 0.2410928576544106 -0.9420935930560483
Ni 1.7514302841243317 6.535492912705964 4.793288185671003 0.9867631680492812 -0.20439858755717055 -0.17016794850907468
Ni 5.903472327323822 5.668380771802442 9.05254879622092 0.5362022787345927 -0.7477814432006026 0.8348287118290977
Ni 8.37709455873852 2.194248001864344 10.118054173912032 1.0389614473193913 0.5069600940400236 -0.2624808364118834
Ni 2.28307500386419 5.3385073314655855 6.943578325296317 0.07783474889129176 -0.2735013558921031 0.6682366535967394
Ni 0.5613902616589129 9.026880544520631 9.201254851696865 -0.051274224793943945 -0.02866651469675708 -0.19954665878150793
Ni 1.4418846483081096 1.1554638074259256 11.326005762082893 0.03145693295770066 -0.048254721241329804 0.06971829043174445
Ni 4.184306681000551 6.887552802805912 1.602490544610624 -0.47056252924759606 0.6360958071981367 -0.2905948210392802
Ni 5.5776229441623775 7.758364189094902 7.8852428922866356 0.045074009520503014 0.564371284969641 -0.20852160858660862
Ni 5.2733554999327374 2.9583316475077095 4.98698518532899 0.03127181353008807 0.23587866044332279 -0.5955675080667873
Ni 0.8278550270689529 7.413531361321199 6.912400002481622 -0.23197366896196178 0.1514199784776102 0.8474908806777985
Ni 4.992068489841606 5.008543665631522 6.814244586325591 -0.44581386154800645 -0.9660349343629944 0.5104747920615015
Ni 8.108475208455186 7.144172161960773 9.062043225291966 0.19611552161277193 0.2684846194038021 0.22662705993806778
Ni 4.409680950472786 0.37034228259890967 10.38243924161146 0.6117076081617594 -0.3660237887025567 -0.4254219281552157
Ni 8.351226908689402 7.0253632272391915 4.894771118164011 -0.8066671617932172 0.25886843647027674 -0.8994973556520768
Ni 7.277137477194061 6.14998643079155 6.93466404617231 -0.048770998756116006 -0.8962888760171082 0.17941826346274906
Ni 2.270641930349128 5.074651887434759 2.5844841043423257 0.5238946650118332 0.905328360511557 0.2851991039450056
Ni 2.428960610297456 5.177626247396591 11.335170868089135 -0.024138544919416492 -0.004904893500785101 0.5305412237940734
Ni 1.0898428033076037 3.132033774729754 3.776682320700925 -0.7396747549330681 0.9841892366745179 0.2910794739851826
Ni 3.589819902456333 2.9428128619881835 2.6278112903558815 0.11097009799267986 -1.7581272836658304 0.31110399673622546
Ni 1.2231058626816738 3.339489260456768 8.278025158295787 -1.0846442940684868 0.6690025852284865 -0.8147977613201516
Ni 3.6828875028248866 2.77118592120189 6.979853486448209 0.11864406959816987 0.6609917991088681 0.36937239345981543
Ni 3.9129083854032576 7.021023380823556 5.991296021794731 0.6163499920297771 0.2486249043653976 -0.3827701549229601
Ni 0.9386338925391514 7.350779528014045 11.53447989367337 0.30522825468173886 0.26990335412819966 -0.38894183095131085
P 0.14663718482499666 5.542507180649589 7.970035010051404 0.7747960241162335 -0.14899491397588532 0.3383512624879528
P 8.427765197969716 1.5296921021895211 7.986660862421655 0.18671659689637524 0.3238903498676164 -0.01080866057972977
P 1.8155354998895834 3.261002100436793 10.321259136465644 0.908901679685112 -0.7526415995063812 0.9362034528238585
P 3.9803429220154314 6.178497687908819 3.790891032001012 -1.7668669775316732 0.7263353575116845 0.25333979334256373
P 7.035712091768783 3.9424662582881225 10.412349896190403 -0.5400393930924957 0.5513738442687085 -0.28290696547671923
P 6.354545678058234 7.649335698270509 10.236413785657524 -0.745838974762251 0.4526324271317366 -0.2596539084860496
P 2.34288548596241 8.570285393357178 5.821540357820501 0.6478727452284069 0.44110385766684684 0.15697304708535548
P 6.866394923710976 3.8672091710681418 1.7296182701746488 0.6252375243273942 0.6931465294645418 -0.6177054776164072
Ni 5.454239576732424 2.8256550538654817 0.35037898908698906 -0.33705336961213567 0.046043829632940056 0.40473920299488364
Ni 1.407220012281354 1.1839389743443118 7.005088655761908 -0.08663254968857982 0.05172185385432383 0.09705863011791026
Ni 6.6940822691459125 0.5669147688528698 9.221313784235823 0.2931854645845918 -0.22515896003297348 -0.2624183586050642
Ni 2.683441625168522 1.5544499786229977 9.100814023696591 0.22133341563929623 0.7706861157129178 0.6551816201849942
Ni 6.422647883349736 1.8834752992861132 2.522445052463104 0.43942107064778513 0.25945464799104995 0.8152752151772024
Ni 4.167678121865385 6.831288182747908 10.534434016460581 0.09426512653317314 0.5594509648498881 -0.5786452783901519
Ni 8.00117904717716 7.0696729689173265 0.38573385016737455 0.6422199178180037 -0.19363672105497617 -0.014110214149136989
Ni 7.664646965146461 3.738854378742108 8.201143109871115 0.07930439145828277 0.47549724754505207 -0.32975529328882563
Ni 3.3133058211674284 8.261100659529783 12.513000674017592 -1.2127068287670792 0.12443213703485666 -0.04534603223496707
Ni 0.20075714481439982 4.887885108217207 10.156705874660343 -0.7297706084454787 -0.7861001362751429 0.22039727697827202
Ni 8.500225294776294 2.168154788072211 5.65346198583934 0.6906908688351976 1.4445593987701444 0.32095646405027306
Ni 3.8322287458011632 2.8778324589000284 11.595290976535608 -1.4878436633800762 -1.3881211132767577 -0.6837252361506418
Ni 1.1124533129075647 3.379783967509212 12.473517094185034 -0.38790824748047387 0.1895458388150542 0.2562006598301265
Ni 3.2314983628502514 8.506631305077958 8.076747412362504 -0.4197143362474772 -0.8560446837850805 -0.4838983271245538
Ni 5.569367311167978 7.8240483510612675 3.5638899968141438 -0.37594336180911386 0.7872784728539604 0.1056844241137083
Ni 2.9957301160998235 8.332929177855915 3.6625741343838047 0.8765775136311098 0.20415536119811292 -0.32326788579226906
Ni 3.517576346843051 4.234408899599347 9.206496953084564 -0.20248105881948356 0.2974642944656038 -0.2905274581364545
Ni 7.231429240309224 6.026720356507965 11.414614418379498 0.21382399463612853 -0.2905097175246416 -0.41761451629565494
Ni 0.3830983633939713 9.011758751188813 0.30778533636572225 1.2472585986000195 -0.12671476242144628 0.19753554188875014
Ni 4.719082225493478 0.6590187609112573 1.4889634104955138 -0.9286788623120392 -1.2893290454075086 0.061709046974022755
Ni 5.970338443303594 5.455692207237449 0.3985864722444472 -0.14948316646621354 0.3035400683460385 0.08756560302581048
Ni 8.046445179125685 8.637656772121307 11.393049622292162 -0.6904779814934431 0.5555752839445657 -0.6335236755955863
Ni 0.08836865647403641 4.837015972892155 5.79046850109251 -0.17129434880403402 -1.0072414905082911 0.2564757678683841
Ni 7.848716001997538 8.624357533833061 2.774153437805013 0.14261266459862534 -0.03588488682206723 -0.5059985014577028
P 8.459398257290331 1.5547657678632207 3.4939282440252146 -0.48681010145471004 0.36020152559382485 0.46992746676675845
P 1.7210423366651664 3.2052156755139842 1.5516755445838966 -0.3212835083723886 -0.7585721060582032 -0.38094827122287295
P 4.7099514051761755 1.2076231673610305 8.074014482052117 0.10739292216438279 -1.1599555052069763 0.6825918938771469
P 8.492944097151724 1.694714536580296 12.311895258783974 0.7694206187369329 -0.74935624388689 0.016692887274648672
P 6.210852551207087 7.822613765655683 1.381999279047208 0.3267612436575082 -1.0916531212861522 1.4588657880904876
P 1.7839655984170124 3.3159584507853004 6.069009949303646 -0.7819727443703307 -0.5691270544870715 -0.412182032426174
P 6.869327252370189 4.102318771688963 5.9962088001176275 0.37332083658460224 -0.6758622884627973 0.6532931449130298
P 2.4229155019846176 8.397061461270328 10.211799367764606 -0.13776356403644016 0.799634680426468 0.5760988578192143
