# total energy = -340888.3828258371 ev
CRYSTAL
PRIMVEC
9.08767063133618 0.00000000000000 0.00000000000000
0.00000000000000 9.08767063133618 0.00000000000000
0.00000000000000 0.00000000000000 13.30072456478813
PRIMCOORD
 96 1
Ni 6.615269992364289 1.8281122082261974 11.454224773744565 -1.5951450542719174 -0.12781519457447665 -0.009500997511899768
Ni 4.89897248562551 0.30582738533453413 6.027808418891238 -0.8821539792776227 0.0011446551274044803 -0.5415535157441771
Ni 2.731081353966844 1.8419799938625596 4.992732711540347 0.21065125333510173 -0.9594225712527993 -0.8437504397987597
Ni 3.7285077499724637 4.376967587369754 4.950675879858486 -1.071035959256433 0.3557733146191421 0.3672826008103223
Ni 3.6768988675157788 2.894241395457832 2.717085432172243 -0.46036167745519424 0.35476415662833743 -0.5901535361400674
Ni 5.15278204331749 4.815902086869293 2.3393182272737696 0.4777562187825578 -0.008062722403476438 0.421563473641074
Ni 5.267468448776791 4.700461404733835 11.542675073612662 -0.6347812021517713 -0.5905029490596863 0.10937858513584388
Ni 5.63074808889054 8.085718741029341 12.35538910806491 -0.11756754870453946 0.3531327916725015 -0.04650302865754572
Ni 1.8703971404450659 6.468713125419588 13.640957373266842 0.9960602770804908 1.1070476014643515 -1.3683704130123917
Ni 2.617021997792543 1.6850450068675793 0.2760607196386596 0.7418427091186643 -0.5408755158405459 -0.42600891100693733
Ni 7.952884256988248 9.010134789851124 6.755159235245164 -0.712314103531928 -0.5211507837181089 -0.3891945703920652
Ni 8.42371648098558 2.47206456090813 1.324637979492791 1.3945810099694886 0.11264002949593505 -0.48701758947982576
Ni 6.844224770426223 0.945826601219732 4.446272891169616 1.418810057720182 0.5519124903809979 0.8488728486269896
Ni 0.9875935362031665 7.5764274942187155 2.401526060181103 -0.17839393596329275 -0.7264734257514457 -0.4870343016503741
Ni 7.789960494937984 3.8264637534943176 3.354735485156392 0.8941733723360019 -0.5129520499574004 1.0745298313423042
Ni 7.6166586128374405 3.8099787186683924 12.365151992802227 0.9390962009906214 -0.5642018492713122 1.3989804245887647
Ni 8.350733396814134 7.22535259598546 8.908107509812172 -0.5184130730719717 0.35032540413069346 0.7274897828311019
Ni 7.121253327004773 0.7011646929521047 0.2680772008434143 0.003113863038633347 -0.8568507246261436 -0.7257748570225243
Ni 2.0028408546418834 6.7157796313801255 9.171847165384136 0.4481810762286023 -0.9171495215162011 -1.2975627461712103
Ni 0.46782329619641483 4.929052675963885 1.340965797613926 -0.4160705688473028 -1.3237836275409525 -0.18954455326347358
Ni 6.353317881638115 2.263820584592769 6.77020205671559 0.9774907416084196 -0.35530717361600095 -0.2062757499752254
Ni 3.5819781460401536 4.554477061049351 0.5538181074151362 -0.1826786793815757 -0.45149265710033853 -0.45717376664551584
Ni 6.461406638098726 5.759311367656999 4.48147943660463 -0.9878795410419117 0.4390179216720955 -0.2190029677339067
Ni 5.452829670025075 2.815587604709002 9.445908597447433 -1.2078063061416682 -0.12944938774378995 -0.5784246777389135
P 0.33898829607312253 5.63396512435271 12.292117108907236 0.14992848153374824 -0.3233380769085722 -0.1635794966582796
P 4.123994095391106 6.361787590821004 12.670110596808557 0.27281847089246564 -0.029855392798535683 0.1108590263361123
P 2.4997092554728835 8.69268427356711 1.3854172305508214 0.6483481422029286 -0.0877142127885328 -0.663420977375651
P 6.4691402459470515 8.05534774522546 5.274734950346145 -0.8573124947539107 -1.3096567012212672 1.8155109637916218
P 4.4800853879043565 1.0949461913292131 12.306096672894403 0.9251268832947229 -0.15018096386418653 -0.898576386499704
P 4.1351628428007325 6.095955044664472 8.174492561977813 -1.4571403207589486 0.8450956409727446 0.420387965275734
P 4.784031625383892 1.423065633129014 3.8195825691667595 -0.15291533207621405 -0.7706416356282276 0.014369638458110737
P 0.39725934999115553 5.707320803026835 3.444861551519472 0.06501728541164932 -0.1560165967093571 -0.33276425531847853
Ni 0.9338308757675707 9.143741725909969 4.199770729565578 -0.1838048225662189 -0.016779019230551747 2.2624594531647033
Ni 2.0476067209883584 6.993589727647225 4.468298678880528 0.4350072578508057 -0.9466547300641696 1.518659106099036
Ni 5.8587032231647935 5.628676099948803 9.306371047426406 1.1496867762911167 0.5991606247346842 0.2550547191511414
Ni 8.538720954922779 2.414912199265219 10.144329722585896 0.7998375404658935 0.8769446671625414 -0.7781199462831438
Ni 2.4104228898914557 5.687609645067943 6.736883929272212 -0.9623330600313749 -0.734528177735122 0.6426387505229771
Ni 0.6740807076755316 9.098666878756392 9.155846503411695 -0.46695192907820227 0.4082253617712711 -0.7255519423784408
Ni 1.3325615196607752 1.2015718327914926 11.108538864293987 1.0924180244766346 0.3689664162706484 0.38325069410380447
Ni 4.190579459321399 6.974605583352101 1.4959723808657632 0.7544778813841716 1.218190734699786 -0.44811011378135085
Ni 6.031078162844032 8.040916523999677 7.962092793806941 -1.7206418851258622 -0.32870602608870486 0.07401306115235641
Ni 5.647078633312914 3.2993697595921896 4.3265128391043 0.6019448723480408 -0.14267745639828977 0.6474528840821688
Ni 0.7658307408100513 7.767695701485109 6.46358040895339 0.651817845919084 -0.6473071025329239 0.4976107916146397
Ni 5.403728984708387 4.4675444022043695 7.264031540432043 -0.7086885909641989 -0.11563510756851697 -0.4318638271258175
Ni 0.8003956966867904 7.588759463490369 11.129820371766616 -0.6499190862344743 -1.231807554152272 0.7298168883023817
Ni 4.779969436537592 0.09106482275641892 10.131427956355266 -0.04519819380319313 1.6299570197447801 0.23995205918174806
Ni 8.184801615730034 7.543866369752735 4.281596117422593 1.240816956739734 -0.5018867932821743 -0.36229260379489864
Ni 7.225234456265098 6.38539735955185 6.800022339669168 0.49369705838253036 -0.1890817546944421 -0.7569564248316512
Ni 2.55875185264159 5.758075444428595 2.4981952495180884 -0.7593424085653245 -2.3539459885114753 0.7774671431904933
Ni 2.707571549614767 5.309335348138992 11.4064890565816 -1.3634089552420583 0.04161638998920575 0.40708559173987313
Ni 1.317675914895139 3.6137032047928015 4.165573824356121 -0.5123318998748982 0.22361192726082776 -1.1700547984245075
Ni 1.359497375903356 1.2782899496605427 2.335966694283802 1.2154471105163778 0.6321419647567112 -0.7219146027361697
Ni 0.8742730076646694 3.659214260144638 8.136239829291613 1.6947886715081846 -1.0505362966411842 0.30925434512199645
Ni 3.878990490701509 2.671348093817559 6.842159142854044 0.0943934245809213 -0.06699137841888463 0.9202029636305443
Ni 4.556985258189347 6.483289749378124 6.157623978693537 1.0933307660988913 1.6140244076749233 -1.4571737451000455
Ni 0.8444499984098528 0.01735654245536584 13.11188135836387 -1.473687169374036 0.5190265382862546 1.5392824387763426
P 0.2617267364904065 5.846316727868357 7.707118196718774 0.7939024059283811 -0.04193546389152132 0.3992002754545254
P 8.502915531982236 1.65335629879812 7.84581786349231 0.08100209087567986 0.6107143910105547 2.8529215216841255
P 1.8487593962771902 3.205794013394534 10.346207785507895 -0.652643941364805 0.6124545136301129 -0.7414231050827425
P 4.118959525769518 6.253199012466553 3.8701118363327502 0.9904264758334813 0.470944338067047 -0.2844858799280649
P 6.990645322308967 3.9660685522792436 10.219399335972355 1.0344795002886378 0.4876310546941086 0.42882863984391956
P 6.52004937775236 7.628563461581631 10.11550726588584 -0.7737084474790095 -0.21247262281455664 0.5794127526837957
P 2.7376244769407503 8.709660042616077 5.767806522318121 -1.255795432426437 0.06839520074494672 0.5085490357936984
P 6.956757397906611 4.030936346428885 1.2881328059008728 -0.8840568527272904 0.26366405808670723 -0.35032694679259024
Ni 5.318141301141375 2.76156140182029 0.15595079224765518 0.3866052123983342 0.5033734051300298 0.6046851540973393
Ni 1.5083443358889244 1.0789700660679256 7.151667034861401 0.25644414329950027 1.0085393833841083 -0.5486744430596744
Ni 7.141455219186708 0.6147509401096375 9.25242299850655 -0.2898268325250041 0.7409219970766078 -1.1973519435775637
Ni 3.0079917708250314 1.8191154141370762 9.075563293288946 -0.022884103687025103 -0.3922348998802858 0.5667729524325982
Ni 6.327745176015099 1.7258122980633337 2.2396691906824175 -0.3835039477651912 0.9380309929509006 0.5014425066559042
Ni 4.1365078180787025 7.017990123737417 10.556133889687798 0.3419011846227402 -0.9376633251988368 -0.6367617229169098
Ni 8.52630719661395 7.308922816635517 0.08005783588698119 -0.7746152755639949 -0.3206906119833961 0.44540557036599415
Ni 7.76850450418605 4.1386434207160185 7.841694787251669 -0.24159576543275812 -0.37789765732200725 1.663403472328684
Ni 2.8843267466182048 8.458231454672935 12.388800838517499 2.2138224088832907 -0.3699704320551305 -0.12477512219657219
Ni 0.45369105933985715 5.08646930951111 10.009114268795967 -0.3503094632910935 -0.4275289471958896 0.7226016015008652
Ni 8.875864453824091 2.050878282475311 5.877138472143773 0.08763193748737166 1.8952393301612005 -2.0379928912130647
Ni 3.5590136019359027 2.9944511413373647 11.720160010581106 0.31608293800805565 -0.5065510315270632 -0.7285279942876292
Ni 1.32332844613093 3.5552149555427177 12.555963998994606 -1.1944090588991558 0.3887592826268595 0.10990617550453975
Ni 3.089989824427192 8.676817200355387 7.964952683806786 1.4950419809007285 -0.8033298698898682 0.10448680426118133
Ni 5.638163628260967 8.32390659262112 3.1226245590266286 0.5697058098086768 -0.43533275951102446 0.9374931181695595
Ni 3.402823803946284 8.834006642132685 3.7036002618517943 0.019882597856539952 -0.014265508780078658 -0.9129287985666342
Ni 3.4145468992745323 4.393270868779736 9.310028834922237 0.3586796896326597 -0.47713144071436536 -0.5214732000545342
Ni 7.432705980562706 5.86874509939558 11.359590313899048 0.5061165150928058 1.9891429595898968 -1.3684712002563142
Ni 8.354050396655072 8.98705210602651 2.273852464385679 -1.4208571700571981 1.226168867809256 0.1373897256367892
Ni 4.628178071213766 0.43007311170529505 1.0511899652082952 -0.11992962117881281 -0.6841420119730862 0.9343471163414103
Ni 6.2616232832954575 5.937411539938407 0.13471381436193108 -0.3582217761596347 -0.30080595724432707 0.9848047587713298
Ni 7.84531349776307 8.883234554840532 11.265102165553365 1.1228277471167436 -0.5495141653521505 1.1693348895393476
Ni 9.285691143760545 5.3909698949092695 5.552494155656781 -0.8076647498197962 -0.7982946214588057 0.24467363302713346
Ni 7.613805084207154 5.927251523987257 2.228842139694762 -0.46311378627903466 1.5543568166109618 0.31828534497601313
P 8.918903662719117 1.8528579358066788 3.677943040890365 -1.6246880580363567 0.2850810903099026 -0.5687316188208656
P 1.8619183435913793 3.2500055318223864 1.5004144343513819 0.10059158297183321 0.968435573384687 0.26261787621037996
P 5.055098669919549 1.0884394190384954 8.164583365740663 -0.651600073481323 -0.15865300589093967 -0.5020827113430643
P 8.74349344099365 1.8152895047315005 12.412755029971553 -0.6486571888029152 -0.45825260153199143 0.18524258345401
P 6.706355716763541 7.79872100958638 1.3808143252920941 -0.4026635514127775 0.005039362196120353 -1.7394027106731336
P 1.8281939972633712 3.427260550719664 6.259361362034061 1.1823220458276347 0.07040888874086583 -0.6993716844386472
P 7.12219844476767 4.229338375270996 5.880343693633908 -0.7569415124333158 -0.09475466457508197 -1.8739598519571339
P 2.508142613972585 8.5033426525097 10.208439604991062 0.6178376323188972 1.4108303819488155 -0.5652642290975555
