# total energy = -340862.42437735235 ev
CRYSTAL
PRIMVEC
9.32550830906488 0.00000000000000 0.00000000000000

0.00000000000000 9.32550830906488 0.00000000000000

0.00000000000000 0.00000000000000 13.64882404714424

PRIMCOORD
 96 1
Ni 1.940647630838593 4.990872231802598 1.999975582951423 -0.5332964179417072 -0.06798279579787646 -1.380835892469254
Ni 0.6349850599514505 5.645168554621312 10.955051509172858 0.6979730043189076 0.9005731052147586 -0.8209007888940959
Ni 2.5097834106285957 0.5282089209211777 5.629443882298161 0.952473650738792 2.4410135688549444 -0.8147753927226483
Ni 4.328043068765829 6.613659907633124 5.7007178107162675 -1.255105605448264 -1.978320415053096 1.53157144328533
Ni 0.20726035751942956 3.321811383117441 10.354121340924458 0.6021158507082662 -0.5386947061391433 -0.30708022028881304
Ni 4.76863604028735 2.6826037329466086 6.338309350275309 0.12705774758316182 0.6172838166979563 -0.05546923671189801
Ni 5.019426938630666 8.567717619601295 0.7742811119963668 2.1176703497400498 -1.0432729302105517 0.9716031724793912
Ni 7.634914987370349 2.9895714941025564 13.26824014627917 -0.4492033468455296 -0.1558834135656025 0.094926671376572
Ni 7.63816026430574 0.5169996597822691 0.32145027575555285 -0.9165540540240472 -0.25500818218392207 -0.14090802320269283
Ni 8.141271444375716 4.942183752263295 11.945492311388206 0.07581386180652104 -1.0762421860477207 -1.8758020473721952
Ni 0.6293869572379008 4.720190023967359 8.218093117761823 -0.3753468658756955 0.7446436689025692 -0.7626599029743317
Ni 3.934674471959309 7.44742564028403 11.284424736894813 0.09027323176496066 0.7110612049614334 -1.127313036581607
Ni 8.03484874211513 9.066874784094816 8.681102746459475 1.2275071270047053 1.0245365301433131 0.03631143283652456
Ni 1.6799437170288385 4.573798192554227 4.244633856221215 2.115012086181596 1.5100302267794445 0.6613070163564417
Ni 7.381354413021828 4.599060994904728 9.35895810123761 1.8874450309277622 -2.9993623017795894 -0.8678331917795764
Ni 0.843112689755338 7.069257622226613 8.513958861125865 -0.996350297517084 0.8994729301720444 -1.3200113049827138
Ni 2.833714271627867 -0.21463123938647885 0.2909875699016773 1.9526142685362433 1.1704502340907132 0.7044920363843479
Ni 3.997640304912645 1.8125524469749936 2.0344118879494655 -1.9749005907382697 1.8204785922095423 2.104311926155273
Ni 0.6670424277477165 0.6899757180911471 9.83369082658894 -0.6413573127073923 1.5999589307207929 -0.8360515284926053
Ni 5.431176112562634 0.925756278057435 8.495301316399896 0.26675760941036636 -1.137686409396131 -1.0199651087225465
Ni 6.773788212971059 6.615972633725013 5.668493516319014 -0.5526941057420287 0.5343636828639571 -1.650141208002139
Ni 6.733819083818513 1.3470976699656765 6.211498288923213 0.49655406821535125 -1.4890101728843517 -0.6489261261935857
Ni 0.8688669464003659 9.19483008533189 3.7843817803678026 0.028243054006093296 -0.6053533838089574 0.18687986194711687
Ni 0.3576173951191374 6.031850761879914 13.339569095197042 2.5395048176543233 -0.7742391231714988 2.377479295746725
P 2.555646261112083 8.883376754618691 7.572449934219974 -0.9710982078185145 1.2330920772916505 0.0810249736938153
P 5.154441649753059 4.641389477691338 5.368915288046986 0.5993496008170388 0.5345860832874084 -0.006714435905698113
P 5.420983331843144 4.7757420777148445 1.347402614091502 -0.16943107034305013 -1.605785307594583 -0.7324378708649967
P 7.006291789273277 7.77520793626697 -0.04923588688443842 -2.7524469239061307 0.06246803662723435 0.09031051276079931
P 3.087806399957184 2.6934959267987257 4.888749521481406 0.4687064498754638 -0.18577891557345425 0.23251874283215437
P 6.137424842872911 5.029302652063364 11.407305096441544 -2.356760832252451 -0.3981931743462497 0.37414976024380076
P 6.386565126223227 1.9486395915674153 11.770555098655441 1.9137409885098138 -0.2842771063513685 -1.0169132092701
P 2.0602845785516184 8.04463120046348 12.264478787815223 -0.4498818609697929 0.21722170746376784 0.8134265920042378
Ni 6.366347423936077 3.206967746740022 4.2742115713246065 0.10539774611122493 -0.12844177241488203 0.705623835995946
Ni 0.018410418752440164 3.6938338911161726 3.07737302112007 -2.0483158704056272 0.18832687880628857 -0.6387219319670742
Ni 6.995101179151239 5.441098453537507 0.05206804379615763 -0.08768850175691996 0.5454209691193832 2.29831785762421
Ni 7.019384803116062 9.205703628167138 11.186248581743328 1.324682742316454 -0.4458966510697998 0.2594675035068564
Ni 3.7153478390757915 6.906732661220875 1.4063612760703048 -0.7660650720011387 -1.9756127863139459 -0.39447510206471414
Ni 7.09013743561265 3.2965392552585047 2.122487584914969 -0.5909433790312145 0.30729362185119985 -1.4697911767537397
Ni 0.16831143898967493 0.5969118066637453 6.540489170799334 0.4431743670426303 -0.3455616641934629 -0.3437626633115112
Ni 8.902997624366 1.399096704999415 11.79618719113997 -0.2250571443477866 0.2552951172967216 0.9118255382001265
Ni 7.032701629161288 6.5462831091900195 10.220198646839806 1.0941491482351284 4.593662748663024 0.8456211744589114
Ni 7.96199787022066 0.9669060165778572 2.9455522966366754 1.2889485221396384 1.5177000846198767 -0.21531729135220337
Ni 8.56048102505571 7.549763769850072 12.298491714730316 -0.15743404588217402 0.4459719843924255 -1.2534932666558218
Ni 3.752957614594276 5.073720048739422 11.50934387718682 -0.09111783915344307 -0.8479292537667977 0.14096767279603464
Ni 6.05111726230669 5.384781708098348 7.415815896892646 0.17959592669119392 -1.923891189569938 -2.375880069580405
Ni 2.8104284770655923 6.5858885435136 3.578557551147368 -0.4871988522526964 0.5448103321185779 0.6324816074843171
Ni 1.6536830852757882 7.472352724330871 1.4699099533008304 -2.496519829452365 0.1897399571037313 0.1702697641942616
Ni 6.36726132376271 7.82348609343513 7.927619383374916 -0.6103888893503359 -1.0399292105492994 -0.25029329320675603
Ni 5.154133907974702 5.705075620807957 9.264126073410926 -2.9449731855057473 0.4971760180700664 2.496990598441197
Ni 4.817940003383365 8.778539388792062 6.176107051861424 0.6016257984457252 1.3721131678842755 -0.24736609225763204
Ni 1.9658078525963092 8.239590279806258 10.148719557236129 1.1833088352209362 0.1602082661932015 -0.20611094226258694
Ni 3.33591155187121 8.953588507626048 2.7277177451027628 -0.09237305171678285 -0.3410594054477352 0.9839349545718669
Ni 4.049033181898106 7.4987625642188815 7.912004752051297 -0.429927272224737 -1.1491296182360662 1.6686981450687197
Ni 1.93254376400855 7.729718106120885 5.733447547670699 -0.35539947621949114 -1.049292139821438 0.2179328745981795
Ni 8.40201266021921 7.643419851063098 1.512494887569404 0.34952527682690127 0.5412624668663194 0.32341135334866883
Ni 5.112234398576104 3.200449216343935 12.830877530879544 -0.48899451070053845 2.556673616124126 -0.08204955830358772
P 0.4489877942147374 7.208254325450765 3.212114494845317 0.37994785498281664 -0.7235505956776958 0.6251228531264009
P 9.023762958599663 7.971593818400309 10.299975573848975 0.018055057729497937 0.8905571157396533 -0.7975551721896199
P 5.443709595899317 8.540944084884318 9.908964465574833 -0.718064118641828 -1.0069483847479046 -0.29695907269441113
P 6.3292319003646496 2.7796263227046816 7.902450768659607 0.2615804360848011 1.350599719292532 0.49876213161026367
P 8.323361322078151 2.266033271153729 4.878130565026435 0.7655544509133073 0.4772751653810813 0.05530905698494991
P 2.3273484891140646 6.06440611182661 9.769732759538117 2.2958902220193234 -0.6134099355648468 -0.666448194237749
P 7.8444778129223875 8.566533280030045 6.340684557273711 -1.686550342758792 0.9635373647521212 -0.38455964272321513
P 2.4437774619254387 3.2544532356912055 11.226731546410646 -0.5482065022843204 -1.3848277872374666 0.6679972838924237
Ni 3.6045607988676114 1.4958022274706968 9.704859860109817 -1.0474877396228477 0.014174491728169137 3.366726406560124
Ni 0.5817895621854975 3.6339734524717024 12.904867979904775 0.32550834508701354 -0.26773077195691314 -0.33786815220394717
Ni 6.891121760100632 8.67757210896597 4.004878764559917 -1.1266445497596724 -1.5193671879096542 0.9555008676008899
Ni 8.985780162743778 6.815836930504618 6.114809552367115 1.5660013428284254 -0.7918946314697329 0.6089783821560544
Ni 8.351076733147066 4.696643115168904 5.140010425449846 -0.3227945457002763 -0.9328021404517934 0.6056086943528732
Ni 9.295489623379625 2.029864770036544 1.1069210653231145 -0.4238823515822377 0.6819385765638643 -0.21464597631679164
Ni 2.7861262020838984 3.089279830289919 13.740953899054315 0.42197125060245394 -1.0728352172487006 -0.024080695098287558
Ni 5.028127638000551 1.1131952673982042 4.447755553097178 -0.821417066408882 -0.03370999065793549 -1.3997139603206796
Ni 5.5308191701909495 3.433316487475119 9.933464441335348 -2.0076207066791105 -1.6087886131972808 0.9002877127638559
Ni 2.9852537836971367 3.967220496397571 9.127418782507574 -0.025583504896059164 0.08943428080343307 2.1860041011194418
Ni 5.0327437646758915 6.641934849208142 13.10803070901785 0.5858590225297716 -0.9391957026829633 -0.286599583836958
Ni 5.1053241968257455 1.2630468624407332 0.2945685651407296 0.9063727426156712 1.534133033364919 -2.8070059900989333
Ni 8.404614477072585 2.561232240664667 7.329609964368367 0.9408900596662505 1.1052897382329803 0.8031511782201587
Ni 1.4330042536691914 2.1098310048669435 3.7436945870657583 0.18821632137035327 -0.995092256740267 -0.221800842194018
Ni 8.064335999786701 5.895558456101921 3.237063960112401 -0.29844671298353115 0.07197983277241152 -0.5491449549381897
Ni 4.780050462611829 0.5923534981407017 11.57506260023018 -1.635973658252505 -0.3499335680089135 0.500022743490242
Ni 3.112444393242538 2.029538377241318 7.746199077178115 -0.826597582168557 -0.881804566358004 -2.757853953854315
Ni 0.8655946254905131 3.2419290778629573 5.784016982261346 -0.034548170288514694 -1.5456839714273123 2.220280505803808
Ni 0.6254292114580732 -0.24042652826862082 13.596494312988924 -1.2175438451444063 0.7439957509059251 -0.04623177727403006
Ni 5.711920543999271 6.624682658603333 2.276392045923363 2.5387322011543567 0.8130982621305416 0.7123449567698635
Ni 2.1716777768080755 1.1334782482443988 12.052621887188167 -0.06547442755372594 0.46617725569570684 -0.9489427547673982
Ni 7.4244848895338516 1.9431655181160516 9.627294011150594 0.794663966684754 -0.13649266774381655 1.0386318318941143
Ni 3.328964048087111 5.074839109751626 7.2445091045936385 0.8742313819964364 0.07624297892413967 -0.5155208391258412
Ni 4.290461269772649 4.290694407483525 3.0378188770928816 -0.667357850536212 -0.21229881624085373 1.1313967197326773
P 1.2127357444337357 2.72393438633067 8.246305578430324 -1.357251934501727 -1.2604951518949519 0.5204545289820327
P 5.9583284533781224 1.0678732964039486 2.2297812896633857 1.0585499109742802 -0.4490665641573492 1.0763301177758369
P 2.928955689274849 5.212698100946704 13.727850627152252 0.04255818507718477 0.9002774283512108 -0.6344099348552816
P 1.836929326024167 1.523554940573352 1.710975278897251 1.4879807031785728 -1.2424256959877507 -0.8089207337140842
P 1.5907452288477575 5.650530721971455 6.206679798714833 -0.5327006933392374 -0.6546362892044855 -0.49914676864319196
P 8.019722767433509 6.172815147383857 8.133811970178535 0.4768486193666239 0.6368504259759742 -0.8529138514655826
P 4.766761613091909 7.567081239013926 4.027099586058911 0.7879567298679075 2.4152444303106404 -1.9353048307235186
P 8.797218382187431 4.614336177721311 1.2189232192803794 0.18438126389497925 -0.5028704973516824 -0.5411387968042615
