# total energy = -340863.6739956654 ev
CRYSTAL
PRIMVEC
9.41882815632464 0.00000000000000 0.00000000000000
0.00000000000000 9.41882815632464 0.00000000000000
0.00000000000000 0.00000000000000 13.78540707652494
PRIMCOORD
 96 1
Ni 6.772316510145787 4.551742967422354 11.514923556254859 -0.22791543973218814 3.0206430655352365 1.0163403674857658
Ni 8.660386575991465 3.74129046695713 6.483180144439871 -0.907432037118121 -1.2903646857608744 -0.9546883990019236
Ni 1.0450755135813323 4.678360276347277 9.496518569951661 -0.6314804199133125 1.068237313465373 0.020437184808429317
Ni 5.7884539617287105 5.00500524201836 7.5275492458982125 -0.7027238887403316 -0.6419211556306622 -0.6592113101696776
Ni 3.5945827972543394 4.871220204752153 10.222086705952613 -0.5494095214534861 1.4375657410611307 -0.8155942890795178
Ni 5.225471756189727 0.23323844535504643 10.405707705671597 1.172832875390277 -0.05696896118587608 -0.10666941373479695
Ni 5.592438725841141 6.071932437270883 5.036071363421847 -0.5235640211452919 0.3038835677283863 1.2167180068090013
Ni 0.9968887879650331 9.428435511420611 10.754409683470953 0.9070869950738764 0.10440838561476211 0.6885236859805497
Ni 5.719931985798574 8.672357906769088 8.155694673193215 0.46755613832110443 -1.195622876701599 3.6112012933128903
Ni 4.670043450952595 1.5927332854655618 13.01215651587184 0.540301645614947 0.4933548445517632 -2.327864975153707
Ni 3.909934587785871 7.181809489601266 6.428328655913858 0.5376233274518354 -2.011454992823536 0.7352465439583854
Ni 7.100845241478178 6.196242133260703 2.4963992202665364 -2.056019152587156 -0.014092473537324115 1.3261834952316967
Ni 3.139125935662908 9.139786099138142 5.91315359721042 -0.6782503290789996 2.0986012489237407 -0.927652220819738
Ni 8.063600195660282 8.54976243753106 2.1649431170964695 0.22225181368850752 0.31911349730426336 0.17224000054675495
Ni 1.8183707363772241 9.303532429247479 1.9890408471747032 -0.297126708620527 -0.15780788428182502 -1.694521533889727
Ni 5.371633133850738 3.9321724414176304 13.856126858748743 1.2505408688957174 0.21935880841142866 -0.23711561817421747
Ni 3.496250229733979 7.901304365110154 3.1476914181248827 0.31870289212940595 1.1607142377498718 0.3615757802335321
Ni 1.4814592478520046 2.3601040652566345 1.2971120564705871 0.33545311500455127 -0.7421792665224767 1.986432245526953
Ni 1.2691776954790273 5.084076305651829 0.569273982847757 -0.5733788877848899 1.3472218039592347 0.29574396934038744
Ni 0.7054118434249395 7.026511848482903 12.2282349709805 -0.9390635479804731 0.29955177312225184 1.2980399429179452
Ni 4.978962181750755 6.809699839694476 9.327179339593897 0.6288311552159235 -0.5292381887119336 0.9493633872445845
Ni 9.364651206128668 6.292530815038542 2.42478410112053 1.5806180643003358 0.00011492831130947949 1.336053703157557
Ni 0.7396210278343216 2.646106786784963 8.25621806017768 -1.4318609773668696 -0.30615488026106624 -0.022030754547794316
Ni 7.818804847973102 6.192436926624857 9.76468674008154 -0.27274390890078837 -0.010839256707349075 -0.031212421047062372
P 5.587098250191328 4.640506005383261 9.605340886557023 1.3623990259203052 -0.6458102062724232 0.4478692014151383
P 1.8267629123983582 7.03178639233457 4.135360115060636 -0.9676647566569333 -0.7390162954134627 -0.017610256882595477
P 1.750969601015567 8.207218489678525 7.26409614121859 -0.5806003452339936 -1.1016166602567674 0.14219486033491638
P 2.8582564755616486 0.7493308979355418 0.05410457544130328 -1.1358696679023663 0.007951907857225014 1.0768803338523518
P 9.143158039671887 1.6690069570919868 9.903932813999884 -0.510269875139547 0.6377338570221921 0.7388118927121405
P 3.6562101908640825 4.838602802326577 6.344044270812714 1.0134926136243256 0.04704476009362865 0.7511030513746678
P 3.1853347073348317 3.5727499532397613 11.676970729737691 -0.30438801816863065 -1.95216355415207 1.4857548991718474
P 8.821797036680778 5.318623968141486 7.772888059978681 0.8402457690796109 1.0047737456940888 2.2310089479649062
Ni 5.098939216719561 0.7830342912648622 6.773073783941634 0.609507258076331 2.3678235178245157 -2.163935551355176
Ni 0.23589832246881556 0.5687041437352108 0.06462634854254798 1.5196394677344345 -1.4951563949914057 1.972251583151197
Ni 0.46418528978310974 6.791728715285583 5.908977288739297 0.7633980666919368 1.1212987120667268 1.4692149925352953
Ni 4.130664829149821 6.805225896248865 11.968766030674548 -1.2248558054247873 -0.1765237155237734 -0.4159116746719353
Ni 8.074026838595632 5.760442366345036 0.5159587052185425 0.43945783742299155 -0.32209134898566466 -2.4264156164361115
Ni 7.786065000779541 3.662388942233178 9.217764578688053 -0.7339620208190069 -0.18485460398697195 -1.6848734692770013
Ni 5.188126101954264 2.3604619807322833 8.63453095040716 0.8819436630390294 0.8480729784335136 -0.2655005970748137
Ni 7.693930022284889 1.6632143776834598 2.5424017195985473 0.07849500818310998 -1.2013227552998536 0.048874871323831955
Ni 3.485107755847333 1.7317080971286765 10.150278500826323 -0.9447426006431213 0.13903240344653475 0.5035389841736166
Ni 1.272766269063822 4.732819941615737 11.898777543177081 1.6902079941160377 -0.02534207830921442 0.23498083121940175
Ni 5.0108543343967265 8.632017065132143 0.06971157394525321 -0.1653000788938121 0.8166078179456969 -1.3086262030742235
Ni 5.91748249070011 2.641792963420564 10.954505155780918 -0.7459636732655734 -1.866492082825179 -0.17001316809876527
Ni 0.9381190668634967 2.3830012368698528 4.034988371211908 -0.36290298368538787 -0.18557297021023525 -0.43350239117050504
Ni 3.451369512853278 2.630810609615129 5.4523628531489905 -1.8585586869107151 -0.05874945012506657 1.5139889543168765
Ni 8.820996436274722 3.751387450901749 11.215752370871146 0.8320508919736446 -1.616732550634706 0.4268771725445035
Ni 3.0168695442439155 3.5923882102589135 13.888797948495666 0.4053341562664051 0.874658442231526 -1.6741401420198974
Ni 2.848140653960416 3.336836560645655 8.429459511102847 2.0275984353526177 -0.22540347194361182 -0.47799995936224765
Ni 1.2948816779275965 9.084987356050647 4.290817876260209 -0.3167424259689255 -0.03592731002422844 -0.034571053106650144
Ni 3.4752933367519097 5.612284197083038 4.249944870823945 -0.9184296737802053 -0.6299166749706183 1.8832047675941697
Ni 6.634443701394539 1.2672750921611045 0.7000562976498362 0.6592298221124389 0.9767458930225952 -3.2046330075290683
Ni 3.3823389201945884 9.236771774210666 11.922172028924885 -0.5417831152564797 -0.41367481492161656 -0.3093888138173317
Ni 5.397600843491891 0.41506044886747834 2.3051819355183234 -0.3309364580811204 -0.8599293635514674 2.891678587847665
Ni 7.468970727011298 6.631552121104428 6.722674575556126 0.024149086442377767 0.8693498855344189 0.013058118735538802
Ni 0.6650691180223334 7.45909037611773 9.23375492350408 -0.4252167541229451 -0.7137168974167256 0.24704110481804553
P 3.32822775157347 1.11083777281765 7.840133784673279 -0.6491300146742756 1.2048271689086862 1.2137776932337547
P 2.261677309453209 7.60470546173696 10.904422420026512 0.8553839102726302 -0.5347166953280017 -1.3230668039795859
P 7.925152838382335 8.285338251653034 8.48761983401295 0.4885378827790941 -0.8468987556197544 -0.1363085767574685
P 1.140007884083029 4.326661227380778 2.581579335939633 0.11543044775687862 -1.40801219577373 -0.2945142106983444
P 1.2803861011638193 2.7690884279835593 6.144224770172131 -0.3375249099319155 -0.28093338669011614 -0.5949347595787948
P 5.9062364097020925 7.854332668345401 1.722059449411449 0.730725259049264 -1.1044484732786075 1.2323644550970065
P 8.66097054334647 0.6093454459951345 4.004577800258557 2.136256083162037 -0.6943575190535074 -0.24198683022358966
P 5.910795122602461 8.199881222427724 6.241412008170414 -0.1786289347922343 -0.8889740875232497 -2.91726106430246
Ni 2.9352177216544515 7.571975033371707 0.4840467730331273 -0.7888715283726929 -0.2162359465117308 -0.3494391448709982
Ni 7.628196019533491 3.0879157661602066 4.295684584846202 0.9503350071292342 0.6397511445625369 0.9225457528311081
Ni 6.079420405774588 3.749701480634877 2.4730744338482014 -1.7158130962786513 -0.05824988478082871 0.6563116200243794
Ni 1.4795189692208557 4.7321135294927466 7.105081830450465 0.04814390669507838 0.9602453242644108 -0.6634988818014379
Ni 6.745256216421074 0.6557425942331896 4.7769744668340035 -1.0656728951723067 1.1959116115866115 1.004353884547851
Ni 3.9664569764534647 5.882067696267489 2.112834391373324 1.2419898940019127 0.05654884292932196 -1.2530214692257258
Ni 7.594599058964034 8.52441637055814 13.622326109343796 0.7945912044652895 -1.406042987862501 -0.051633407905575586
Ni 0.2195255732235433 2.995413453361599 13.379343886105627 -1.1840369716362125 1.4059645692160818 0.34302244271137694
Ni 0.49465048994063904 0.2345222316532289 8.38097609239489 -0.23804018687101583 0.1085496614766453 -0.4437621212253003
Ni 8.261866531513116 3.6866141686376195 1.887374014433825 2.018646882586285 1.4264706595892338 -1.059285246478408
Ni 8.184132941499177 8.560952005559239 10.693974713524819 -0.08661815151087662 0.24971248100262156 0.12756811156067707
Ni 9.165188679080902 0.08642622665805318 6.024374889385461 -0.2221073176908433 -0.053314909373056565 1.3665508433051499
Ni 8.328853238429286 7.762819332518982 4.46789184842331 -0.4628317362622416 -0.23556627140922656 -0.46170610729823064
Ni 1.7361914594025933 1.9738661728900238 11.992684203276196 0.596582836705179 -0.4590311315692288 0.257473355894963
Ni 8.686250678521246 1.2871299822313076 12.08790008050992 -1.9602116212675276 0.4352211736338247 -2.1663621585187984
Ni 6.167156791450083 7.801935726476074 11.671470134006668 -0.1719072997976846 -0.7715109256070584 -0.2661881100601416
Ni 4.364929926790282 2.1400708171873686 1.38271790318314 -0.5019451573239356 -0.4517829346472477 0.7750837305599813
Ni 3.3920685698352524 3.6881965317931193 2.653898041560139 -1.1628886196933714 0.11752949637775244 1.119147727161995
Ni 0.9306282727112991 4.947729347086242 4.630890323565106 0.0006093514492247571 -0.7960253658086548 -0.49499726525119275
Ni 3.1212772560219992 1.022225436109647 3.5702134627768083 -0.0035720336219744932 -0.07302601464873874 -0.3552066434823947
Ni 2.737930943945498 6.477045661563816 8.63752237027732 -0.22668979485520313 0.33013144568132174 -0.47498739778816906
Ni 7.394411282136664 0.9902390951806103 8.52896283898171 0.45617617861893694 0.5815490823005082 0.6003505312777274
Ni 5.8701340408030935 8.098977314779678 4.099242676036347 -0.4763300278589926 -0.09584764052894461 -1.757798696681818
Ni 5.496828199701373 3.6920676702271105 5.2097394872692995 0.895473064984032 0.5432270467918581 1.0553332038091954
P 6.623640305326928 0.4196653140265496 12.30739080406873 -1.2040257560533134 1.2326542184232836 -1.1193320752586593
P 4.208040503688113 5.8031190774020045 0.07235261340240924 -0.08279517822036064 -0.8899079121914287 -1.0094418405937196
P 7.381648769781292 5.276936234056705 4.493850139236157 1.5863323410762937 -0.9496994304277645 -0.29968752736916776
P 0.7344642193364865 7.5045362226968235 0.8230906842869493 -0.560676352616557 0.7136040259879453 -0.42369620371336064
P 6.739312935759643 2.4066895900608207 6.995253582981962 0.08433295502112574 0.7990142732336497 -0.8831556810692596
P 7.931698924055386 6.5259293804748 12.14381307098608 -0.3722301746235847 0.33257502212580786 -0.507822442040319
P 4.822920453196176 2.193400223059043 3.902938282119767 1.4261654696439892 -0.5146978290039136 -2.225474391299922
P 7.507295939390642 3.3769984445447756 13.455646756099801 -0.022957123016805626 0.21858696324241061 0.371936811752882
