# total energy = -340860.40734916984 ev
CRYSTAL
PRIMVEC
9.35191976899471 0.00000000000000 0.00000000000000

0.00000000000000 9.35191976899471 0.00000000000000

0.00000000000000 0.00000000000000 13.68747988846248

PRIMCOORD
 96 1
Ni 5.08107564291357 5.721672788354713 5.808898143112148 0.12193148210019 0.455034608815326 -0.8226823062745509
Ni 8.906945979706396 5.001574973803143 8.036548788186442 0.45445636771435277 -0.6526513975639727 -0.14067019616027385
Ni 8.492468899954115 1.0231935310400955 6.447980277566833 0.20817528099078342 -0.7380076516432902 1.3675620581784835
Ni 6.0873609031912075 5.118801286860337 8.786704607747755 0.0012215311119269283 0.9783597744769345 -1.9788464627598954
Ni 4.34297538299821 0.6144323445898138 6.817226797837573 0.8824092898215383 -1.2587956527053417 -0.5767588600007164
Ni 3.3754725335899924 7.204784376821194 12.177381492336421 1.3482651576220845 -0.32342189487163003 1.3449438065583352
Ni 3.1991514401412218 5.429649744754878 2.362582012449786 -0.8095642808353543 -2.106794326257494 -1.084942799145512
Ni 4.345500401308976 0.9343381366842666 1.9140293429977446 1.6123871291818166 -0.5517219716367465 -1.2546757169996974
Ni 7.798715443111528 5.380664389526032 12.341822842229025 -1.8345700373056018 -0.5085858025689048 -0.7440672275738089
Ni 5.185994829685701 0.5176483927381819 4.063182779942148 -1.0158582856430247 -0.9039381650322496 1.4139776693285455
Ni 8.610677164576607 7.501623659050823 3.680851053669842 -0.051406636606750176 -0.3749974529560768 -1.4639930820147238
Ni 7.169565047345855 5.361820271391988 1.2568044843842285 1.2229742721313581 -1.0428163022891073 0.25958114626658524
Ni 6.162363298940606 1.5594887164072953 0.7682536545057318 3.1547919156372246 -0.297536542464436 -0.9233440803626872
Ni 6.401585404086439 2.0767340414077218 7.661498466568809 -0.25869385856562543 -0.9141711556141675 0.09501254622215895
Ni 2.048051703781362 0.708681926211011 7.295043494319416 -0.535235286835633 -0.0869325974275019 -0.1053992887731217
Ni 5.9648601074404155 3.624299060236403 12.29069963816373 0.7321154545285713 0.24040097379370853 0.7493277046417998
Ni 7.629239954860833 3.194933724370277 2.512569970493175 1.7584093336826234 0.022192734046955327 -1.3144412670941041
Ni 1.591388114399963 3.7081670758324874 4.478967258064225 1.2802661638742918 0.5839767179053942 -1.897177684834494
Ni 6.250935330130448 3.609317284925863 5.179027649531922 -0.44873977694554973 -0.43394050714918814 -0.6853584008786907
Ni 1.7396815045992389 1.0328260082996814 4.541834602850477 -0.7171503485783068 0.6939350868041081 0.5121089852308148
Ni 3.0839638455719793 7.932167336795307 6.898243413126425 -0.44429151136620904 -2.3957097027118226 0.579115533158351
Ni 0.5353684101279522 6.742462876039747 6.136726881550603 0.8002139499687058 1.0231100821094314 0.9903472858561136
Ni 4.143087451982297 2.2920619917979805 11.835317261777055 -2.3921260991256217 -0.02952860558673624 1.744840079638621
Ni 5.316407349476891 6.766674996064085 1.9332335100390647 0.5227296981694546 0.6766693577451249 -0.7557881155551629
P 1.6678307057784634 4.736419995413784 7.650781166627561 -0.5564769698232287 1.5270838398276216 -1.672354253764068
P 6.927902091166281 1.572871313454351 3.7959217492432167 0.32656506848630207 -0.10264975105244256 0.1316978174583345
P 8.967312621173024 7.257286053845773 11.478580804448205 -1.0975064947431357 -0.33157306322385477 -0.12688316967851052
P 6.2777285799835685 9.034356533283676 7.046588238883884 0.9089806125521634 0.7826201481463425 0.24032924001550868
P 5.548185326565802 8.605402681883008 0.9041548159509523 -0.39585347046947955 1.2877131070706405 -0.4742363785547574
P 4.504801000959254 2.7392427346345056 0.47064096851943543 -1.4917327140218373 1.316618477251081 -0.43098142452086424
P 7.153395578237287 1.3505013675529582 10.615462212007023 -1.5840399454976912 -1.1946278597781812 2.1742166215662104
P 3.0361100726231434 8.74573758844354 5.064695755612439 1.1765887428882833 0.38044022123820287 -1.502517206231851
Ni 1.124951768963935 2.5687665909791733 2.36915173601761 -2.593460445935172 -0.7499676522186439 -1.2030016856641734
Ni 9.251695146402879 4.776651953831975 5.489021341968671 -0.5439078749089665 -1.5436923949185801 0.9996418237841621
Ni 8.779554129968455 2.3229887901450197 4.584895516968694 0.08904115913007246 1.3370626040380458 -0.17795222044018386
Ni 5.575726729992482 6.129051761077843 12.476466170478698 -1.2155299000381712 -0.3125504993747649 -1.1647063896284005
Ni 5.7806459937905865 9.192721940967004 12.397174984368869 -0.29974486296966446 0.4134205328189654 0.8587003762403727
Ni 3.7690106652022606 5.393682261705977 7.9196301532863735 -0.7198356087199538 -0.07193586690835353 -2.752931576852033
Ni 2.5892472950553804 5.709496588945023 5.709239411154112 0.5922906370877283 -0.832877758750314 0.13482582156435488
Ni 7.69862184688886 5.295571272453243 3.9377099441203876 0.4733354640070429 -2.1827745384385504 0.057234556142436915
Ni 9.239126166367068 8.694844441602115 9.770150609808537 -1.127043070749672 0.8189290098797057 0.6468610161344408
Ni 1.2267006549681052 6.17126632646597 3.753449070872211 0.49794529213592303 -1.610136385474427 0.5418638478957442
Ni 7.198930075108088 8.38179828258524 5.233668110584915 -1.4802049158878958 0.3710965752397738 0.5445689055317331
Ni 3.7577135462415034 8.668434620455445 9.043728091984484 -0.840791871391068 -0.6336198348538186 0.4704473438259704
Ni 8.538704790800129 7.97819748540859 7.591459134588017 -0.5195844676722535 1.4138095191817974 -0.5984204041345501
Ni 8.21055528151701 2.542122971840765 9.365275145980934 0.4762539232054186 1.354496483243777 -1.6140624600017108
Ni 0.3700844522731268 6.374418077446538 1.4960415526015332 0.05548594888244637 -0.5953962725962456 0.39428278354825
Ni 3.900732453747181 7.10067880706031 3.57964551419847 -0.5769792035416386 1.83197939376029 3.350094197320082
Ni 0.2679596190982429 4.334221986187557 10.246392443018038 -0.07165895909788304 -0.15051597860610208 0.3899121652843801
Ni 1.6256816038280226 6.2228608672826065 10.964342121621524 0.8043182019450663 -3.0575998452652438 -2.0228570640128902
Ni 1.495184916759807 8.38068540414457 3.2556491924405777 -0.8284480051137345 -1.2270731247910802 1.7752929968118394
Ni 5.267936349829868 7.242444557330274 7.829512249775163 1.6712643631339994 0.9027883676985226 -1.6731888338502219
Ni 0.7765310386052071 7.709320442990769 13.196113222502198 0.9134306779037171 -0.5791967800182476 0.2501056026759822
Ni 5.08724790989544 3.186180327559624 9.826460388522536 0.22356076230791824 -0.4433240052466172 -0.7129540511087722
Ni 3.5925305891191086 4.759874609944892 12.22891431048324 -0.7071289597865629 -0.5811104521011927 0.4287458503221261
Ni 4.899021822707396 4.9321369702570985 0.6690166941247898 -0.7593017851353762 -1.6855496694084198 -0.27968897276005383
P 0.01873750624981204 8.627613491098073 5.347068553305316 0.6864760594229016 1.5325317503160703 0.36738724470898665
P 3.67251755805235 -0.007152348163234304 11.83169058732922 -0.6124344590254549 0.3286947132347952 -1.5280654870146007
P 0.4779438825893487 1.0910323563226554 8.745806792649093 -2.757850097199573 1.4270255036514392 -3.089566113759195
P 7.622441109261105 3.407381283502329 0.19831961408733736 -0.5013093235121495 0.3945753750880044 -0.07403645819112412
P 0.19887231253980486 1.8084368180094097 0.32707777928899295 -0.2529222461891708 0.9999902082625166 -0.4714837555102848
P 4.319632991503135 4.622382686963889 4.036902950478883 -0.7378934946629292 -0.946565512784473 0.9169163224594724
P 7.733719601408497 3.4787551344199605 6.694478176215538 1.3361079534342601 0.43496483464864444 0.14638987225287045
P 2.5061928964705427 0.536008081433346 2.406806305374889 -1.5524405734248554 1.5597864722669652 0.029927126576735557
Ni 7.021692493531705 7.3132011815497195 -0.022318356291263945 0.8870097647080272 1.349163758176954 0.2955200262550394
Ni 4.882777538241473 0.8894732372618027 10.21793642184768 1.287134865969667 -0.3950518005037906 0.09079233749322428
Ni 8.384893767995846 9.31200567635149 12.75894838563171 -0.32710859969459793 0.5646250528516599 -0.3538588712052486
Ni 5.434914875528807 2.972947207175334 2.8342385994453294 -0.3119660876262047 0.7291856824762861 0.08733934594761732
Ni 2.692427024768984 0.26136651573124475 13.690901782800253 1.3486593077367095 0.017651137422859925 0.1997078669497206
Ni 2.0258970060843144 0.9370342951249836 9.864114957879815 3.6711401357603677 -0.11711657721004992 1.9478171042579164
Ni 8.675411152528891 0.8238367890614106 2.617895030578963 -1.8154364017999445 -0.15801665785852143 1.298203722189319
Ni 3.587798517766341 4.993644545923405 9.99786891856892 -1.8446441337121522 -1.694523590772256 2.017501199017616
Ni 7.934589483989708 6.768713714552036 9.437544910802904 1.003010483146079 -2.2434700565463945 -0.8145298523707456
Ni 6.869359074035205 9.122591895365417 9.233724497565964 -0.15658712450084644 0.030226145874393102 -1.864264736156557
Ni 3.6188001314707368 2.6276930368166984 5.492498385701792 -0.08384855918553946 0.5044884925710796 -0.5654501198561165
Ni 1.1363704628803957 2.681129905808227 6.373889693985212 -0.4651845527651343 0.25969915990168824 1.3926012605352984
Ni 2.1735544657460646 3.0316772626997994 8.677862290674268 1.008917078438501 -0.538662567349627 0.9625899132371875
Ni 7.430062769739802 6.078214725754436 6.687387550722122 -1.1284602628121727 -0.19000632339124052 -1.0005576507302123
Ni 1.4615554136282818 7.40837566802623 8.728231730014201 0.47810280348869916 -0.9344070230450681 -0.9430929808548403
Ni 2.3866660111746514 3.8158637827464603 0.34264404957887723 -0.001687157894435804 -2.3076005684777163 0.6961866018424462
Ni 8.58646504455227 2.4450500456713455 11.97753003380722 -0.9355393368772984 0.8209442405375216 0.22267964525454553
Ni 0.7599753352142897 9.347187598148151 1.2119797982163436 0.09882086422465561 -1.2873762925565118 -1.2523285569237592
Ni 1.7480514727034424 8.250478626586109 10.995795433045956 0.8614691972347616 3.9063094288414923 0.15853473514552052
Ni 6.676774992281173 7.638330020779588 10.929603480817194 -1.013974952577383 -0.05469636310161548 1.8366315478203208
Ni 2.6821305612128636 7.561878077481417 1.3762761933540697 0.7006886034778578 0.31629068314348757 -0.38182938827624563
Ni 0.5579037309555485 5.2575931266754 12.525919121691018 1.9266769798451917 -1.654935029846356 2.2832542784228678
Ni 1.2238763752279158 1.1680734705600038 12.121167103203051 0.35893011508056893 0.3333702643335936 0.03846370329283698
Ni 3.207362425611044 2.8076987866152527 2.898706992879001 0.8358319562826315 0.3137640600668919 0.5257594861347139
P 2.3288711476171358 5.854872180207415 0.16495196470655807 -0.09737050493137424 1.168334473299291 -0.5053518690126393
P 1.8807739166529995 3.2069977007439334 11.3066523076682 0.13197575371006948 0.14756100974283617 -0.2195912361372089
P 8.266227259309549 7.99037368481828 1.6040216226814916 0.6794662037639718 1.1243392986652636 -0.45368657942786383
P 4.296271896168722 2.5323969753844846 7.539091190014712 -0.8703729274822946 1.8790665770560802 1.5406083566766178
P 6.359772971244101 6.728809073322276 3.859239856557539 -2.102492613558347 2.6995655025260668 0.8623528853912954
P 6.921121949405893 4.349372096052148 10.432843535852811 1.8512683238968892 -0.5502646703649298 1.4742137313014676
P 4.623261767412822 6.650215540419791 9.668794504430485 0.9330769913797349 1.7043578032538582 1.841010393614307
P 0.06634625890330732 4.437831904205957 2.8887425224711474 1.0922174784300545 0.6201649949004931 -0.00545202425350674
