# total energy = -340868.8420635954 ev
CRYSTAL
PRIMVEC
9.29473017690205 0.00000000000000 0.00000000000000

0.00000000000000 9.29473017690205 0.00000000000000

0.00000000000000 0.00000000000000 13.60377713962306

PRIMCOORD
 96 1
Ni 1.1609303541025116 2.0501943426567677 4.866833042428142 1.087574066120772 -0.09127493355659765 -0.1992026451785279
Ni 7.963101832327001 4.603977151353103 12.584446186500239 1.0497667654650116 0.12716033459929713 -0.3300951931267476
Ni 0.9183806594423245 0.31014004102772363 7.136364421290183 0.7678270489975679 2.7182347968007963 0.6922134761273111
Ni 7.634709730192561 5.208924646963758 9.495748883578786 -0.9563053657800563 -0.0313124369600364 -0.285957579377585
Ni -0.11921048781906753 8.91931576035861 2.7362904071416385 0.07446506108811048 0.18708555020001974 0.94737129651522
Ni 1.1068814997278331 6.702308900167474 4.902120484497526 -1.151214525789553 0.17976356261730977 -0.5906960389070988
Ni 7.763841412708023 2.233979036990477 7.15716416786278 -2.6460186796478626 -1.6964490899297429 -1.1917147998964444
Ni 3.6412569123907503 6.493474908750401 12.246827205993016 -1.2276068858073632 -0.7342109036050194 0.32772489312235814
Ni 5.34182998981905 2.0093997731210043 7.9394774173374705 -0.3623874775015501 0.9315232737393698 -0.28307434429251893
Ni 3.1776822585752567 0.4517861478819759 8.399297929745925 -0.5964630232978632 1.0415757450137868 -0.24434221782964374
Ni 6.074998284414862 6.916478066547757 7.599599817464288 0.48131873932283553 -0.14333205926315315 -0.48787736637695983
Ni 1.3833160617153335 3.692247800627979 2.786557235919575 0.22242921980663627 0.9085880050994353 -0.9489422405467657
Ni 5.419859247338471 0.7977285590156022 0.5617437320845357 1.6190128620284505 0.3654861710315318 -0.906360144210181
Ni 6.4976668319357795 9.304582314757653 7.503258083093794 1.645874976526617 0.03930008315120328 0.29652532759110223
Ni 9.107487567205622 7.29554503610279 9.86949926763041 -1.3339389708073994 -1.6436885103982595 0.6992660120987184
Ni 4.203541597755527 2.971432202070679 1.8832526283767739 -0.47483313159849194 0.9885943077207489 -0.42178150318915103
Ni 5.006318124580396 5.407329951431839 2.477302053178432 -1.2888479920060318 -0.007094959173568427 0.6405533287488582
Ni 1.1693699688526764 0.43013407457745073 12.799331047082905 -0.26121096856052434 -0.5822242539906618 -0.009529022536357783
Ni 4.222958288518847 7.859539951769363 9.023208533300727 0.12639337452628555 -1.9815358366666003 0.5930647962495916
Ni 4.5798573272598455 1.1993454727836033 3.5433480865589373 -0.7155819756499224 -0.9268194405057973 0.3207672308576024
Ni 8.368510066421646 2.7095717765680445 0.24997897227010632 -1.393038090962401 -1.368267311775624 1.3641502042834572
Ni 9.087615434677149 1.9450988316654538 11.601776668751235 -0.3533014560398819 1.0403369875106794 -0.794228164698916
Ni 3.1251019715249457 4.1021453892648365 8.01908584946708 -0.6407561887882837 1.21435979098947 0.06503348336156542
Ni 3.8801872392274634 3.748453032339704 13.071828361484316 -1.2640754130470424 -0.19658217683654533 0.5486407616082616
P 1.5969368390314536 7.615107144831221 12.062850110750352 0.7927325539899961 0.7304509223419549 -0.04253915891379126
P 1.1165944924744433 8.835551654490235 5.055816279195515 0.11659310060641209 1.0480161013224918 -0.5392374660164906
P 3.961172220855421 9.262607314524454 1.788148022556112 -1.1069581270743387 -0.9927466393262256 0.4074776849719692
P 2.3093871806777972 2.061087766100813 7.26606308232961 0.6440258606784908 0.7030527328346602 -1.724066337426379
P 0.8934661359425266 1.6756353171037501 1.1022211221554403 -0.33112106328810076 -0.5169426591740323 0.037298479340142215
P 4.049946186140469 6.436210077829955 4.350106475673422 -0.5831593642104215 -1.5017124509423685 0.8337208234768997
P 8.292674365158875 4.185277453499939 2.687861146465143 -0.479476029687142 0.37607397384970714 0.788421585319468
P 8.791494634759198 7.356183853977321 1.327265122519966 1.7511539376717906 -0.8399030410282116 0.1622479223310496
Ni 3.604096582246302 8.805260129742672 12.936416229974705 0.6448362723949281 -1.0025957642061636 1.6029969462161684
Ni 5.5886422476118645 5.036674712437266 12.479860026707504 0.9701183604037485 0.6899115674670118 1.051947575166414
Ni 8.165448102273134 6.580371338595435 3.475111756463277 0.15836632788845628 -0.5601608464327191 -0.2220340412507466
Ni 0.6557627134527535 0.26168568458049457 9.834183941371323 0.1712580962494599 1.7930503207952604 0.6042298117274755
Ni 3.906426261738163 2.877220819793509 6.003904754347617 0.31900808207465065 1.0910396560718694 -0.779172041696742
Ni 8.910504356412403 2.112561980292897 2.9534617712799647 0.4180798859678477 -0.9362744152711101 -1.0145588501053107
Ni 6.954865301039145 5.693970126850705 1.2887170892012896 -0.12259431249516949 -1.53447499008537 0.1747915633240151
Ni 4.829049035907332 5.344618408789369 10.249874005682523 0.28292856274327405 0.30071365464083694 -0.955545090575264
Ni 6.188012905281882 1.0696189275544734 10.203322280446042 1.8435596423987217 -0.5017530959177874 -2.1010746501648976
Ni 1.2212903300800118 3.321973645559351 13.188385203916628 1.1348101162896005 0.474305541229796 0.3193076155929404
Ni 4.80313532894317 1.6757375591326618 11.789590628497056 -3.1778071455854757 -0.9674253869526177 2.1777917405119784
Ni 2.74653691738457 4.432861173874542 10.957352596304789 0.3904839786274501 0.0913222418547653 -0.4191954876295297
Ni 7.018404074642808 7.640240094483693 5.415663606261131 0.5334038900538491 1.4615189094426184 0.2331556050852049
Ni 6.607140160710495 2.8821377319111714 11.873798092981712 1.0286060722269963 -0.13620521841038477 0.05122331695135049
Ni 0.37333398015205765 3.0937322581088593 6.785169558289466 1.9375267780755019 1.1221515469853256 0.9079989653651845
Ni 5.665109990507906 7.5905318789728105 3.4535637841336437 -0.333566953725432 1.2949049968333892 -1.4181464559942543
Ni 1.6670098077555642 7.882553703004394 8.86884630646883 1.5132613321222323 -0.7323771928303903 -0.9435429239080653
Ni 7.8509702108005825 5.041145477519678 6.3711386032656065 -1.5056238701816327 0.6457873234542879 1.9256742496122898
Ni 3.272358377347479 0.6688292447476673 5.606252042882419 -0.3778377506183493 -1.205829899141588 0.2461952118779825
Ni 2.7893019696593586 0.02569435133849725 10.920432070191787 -2.0953894268546622 0.6706066964908128 -1.4864884349037624
Ni 1.9115913303721235 8.328607790956385 1.3521210892213877 -0.07198111832399216 1.069186821862836 -0.8743558233894426
Ni 2.3803431487425084 7.783945913484021 6.618060538871253 0.6092228940666927 0.1381973091397491 0.09544474866357111
Ni 8.4608439132588 2.8570791400979068 9.063121962441869 -0.01702250269992552 0.4715560035091169 2.396408785661376
Ni 8.770823155459235 8.030860413305748 6.8376801348655185 -0.7194594563274577 -2.066170896309177 0.7794407219770964
P 4.767499334502496 8.852096273714126 10.926104643850406 1.8081067009077505 -0.3611024401415394 0.1476790233779392
P 8.150158271585886 9.166583459916577 8.913289986963752 -0.25548023672433423 0.06138071710032655 -1.3764164232453198
P 2.371048418841446 4.9403441317426555 1.1046972382010833 -0.13087300756419395 -0.5907472038600083 -0.7463195139430954
P 6.7450739524422625 0.16518686927467333 4.065937768935247 0.500154641082416 -0.9495001699327646 -1.8222146010640425
P 4.586419406569997 8.66186103682908 7.016746824301449 -1.0679647765302769 -0.298068503708506 -1.15609936468568
P 7.595894938125724 0.5303340513298751 13.007482805325239 -0.5611180681396659 0.5830333801555184 0.2857626897579595
P 0.712479155309037 3.984306803579166 10.500360470205228 -1.8425605117102462 -1.0065537204126473 1.6909579849081846
P 6.072851201807717 3.4501944445445085 6.243521032251027 0.41424380005120914 0.8172405664336893 -0.649248799640327
Ni 2.471208428255296 4.7749537078831485 4.9877026395345485 1.1588748705482879 -0.08821326391213839 0.04575740874077281
Ni 4.038420721063152 6.134744808218893 6.633228608596797 0.07411359128596269 -0.31374760500665966 -0.5214451750300761
Ni 1.3260047571453821 6.395201729506467 2.437538269188697 -0.1423810082037935 -0.6516833772237486 0.5428066714249877
Ni 5.488928385233266 3.5144860912701583 3.82784396778963 -0.6313102128840353 0.05624828096976764 1.6635315132661155
Ni 6.5255324321791655 1.8784277340851323 2.5407497384290654 1.3154632806007152 -0.22969232912695278 -0.7504834155127977
Ni 6.52644331570947 7.901468478353056 9.734073194025951 -0.5976837830788416 -1.3618230988121771 0.6257854264110642
Ni 9.089901938232812 5.213339643666762 0.8944021152435635 2.7182445669928086 -0.8551836213363659 0.16779713428405293
Ni 6.050627502614278 5.752378209548983 4.7455275224893745 0.1507373505882888 -2.3772232138718605 0.9914772856954989
Ni 3.8921588513400316 2.600005500494319 9.800473814966152 0.23317951634460485 -0.4548068090752361 0.4467574564081983
Ni 7.692578718556577 2.9235643430802067 4.746412380775955 -0.55230484072341 0.6642213617897592 0.3596469386419354
Ni 6.823307694019506 7.946547918373209 1.3123545168126816 -1.1987213131212646 2.4811407758931336 -0.6602356376691338
Ni 0.9544014557009023 5.513317756493654 12.195704332591191 1.6590865901208844 -1.2856104589053408 -0.6009534549690488
Ni 3.11919052330787 1.615108035988031 0.2657493404932391 -1.2754918824141 -0.09370539737496118 0.06425623887590869
Ni 0.026327322444759604 4.475812120747352 4.8863817183560565 1.4278842521073085 0.5210250567735221 -2.7669186351597443
Ni 8.79901407124916 7.066495007150905 12.660001186919997 -1.50993689573469 2.1010201427778785 0.9660704155866202
Ni 2.2064015733740248 1.1045764067123696 2.732590175168026 -0.30857300278425565 0.2959668839844709 0.35704523935303023
Ni 2.8891087793369685 8.03046073992 3.6799304245630906 -0.35883318449138846 1.2962846507897354 -0.20101193047312477
Ni 0.5912442753175181 4.969566762551595 8.686950301251018 0.433784184076982 0.6115235171754113 -0.8919984761718701
Ni 5.769424744187532 7.542682609442141 12.381464157028876 1.3162757491996815 0.6698736749795303 -0.14404785438325515
Ni 8.05126234543858 8.957730879039703 11.124121428608623 0.054518442762854495 0.6425284501973579 1.9062197404321042
Ni 5.580518653678337 4.690687686600116 7.9690783436533845 0.23963375661038086 -0.8680239676341438 -0.21550523899329335
Ni 1.6081741674818384 2.3284041980553716 9.169611682918344 -0.9662300810929361 0.6116078493591015 1.5531501978973703
Ni 8.509529708480565 0.7164266270980183 5.216803789500888 -0.2699475771025738 -1.0347085855803084 -0.030674546265721366
Ni 5.935688872657737 1.3320277421212705 5.553632717966523 -0.9722888856925062 0.24763502964830253 1.014117648802834
P 2.7711307727027816 6.1591155900194785 9.260212992101941 0.9759539932489191 -1.9767399579398541 0.32066695783431226
P 6.012110141904274 3.115584168106258 0.5660286025689255 -0.2202404396854336 0.33254314044660793 -0.710086242642674
P 1.073141630186976 5.442268841129932 6.665564973922594 -0.12205669482414462 -0.10611842632733337 -0.7986939137797535
P 3.0838426654941293 2.9480094827200016 3.829190774152294 1.2432795593476136 -0.566888652074856 1.0384222869864697
P 7.2115113830672835 6.110829468183459 11.39045540761264 -0.4392943152619338 1.5608483378725764 -1.3098078820871506
P 5.041731045503446 6.539046969455311 0.6540236694882646 -0.4099390020282682 0.24598232453622795 -1.2395692003755618
P 2.451243348427814 2.1974042748297964 11.65823285817029 0.6952898010597897 -0.19868893876690297 -0.017953756264943273
P 5.984318899500097 3.2554419689275456 9.699560932430314 0.6673449950204056 0.8522337946794226 0.3444494049658906
