# total energy = -340853.96721435146 ev
CRYSTAL
PRIMVEC
9.44923383491978 0.00000000000000 0.00000000000000

0.00000000000000 9.44923383491978 0.00000000000000

0.00000000000000 0.00000000000000 13.82990886059385

PRIMCOORD
 96 1
Ni 8.311460981503078 6.527303907109975 12.285882409434755 0.9002802565646882 0.44974842071572224 1.2016348872236338
Ni 6.914807534807918 9.17568790216083 13.159766447006044 1.0590641316065375 0.9028055940897033 1.144972915755215
Ni 0.9504322803468024 9.098478213021375 14.004441958069076 3.046433801346095 -0.191724848744244 -0.43541194948839207
Ni 9.07578115350443 9.159671450919687 8.146895016001316 1.2265758734396874 0.6377791084378307 0.46846708017114796
Ni 8.770410265740418 1.0484397330153152 0.6431280793533285 -1.032114342490571 2.1323742316091274 0.8893142444714878
Ni 6.815467740177752 7.884563498215567 2.876413849326 0.7599885267897556 -0.5350535098421301 -1.159196772664081
Ni 4.3936952694130795 6.262848201572599 0.04776304194017857 -1.423346255027639 1.7605626325802002 -0.007131211728142557
Ni 2.0478851889301444 9.096900190981689 2.6980075911204606 0.6866496088862885 -0.0959312013816864 0.3071617242590258
Ni 0.30562507215244067 1.1463432441123516 10.49471589343063 1.6397781196002597 -0.26651746837510226 -3.6248636212913308
Ni 7.131516262102526 2.287177584936452 2.5630555242557125 1.2945139320425576 0.32427550112117703 -1.5063196106970769
Ni 2.565580359519213 2.216393374760996 13.60308480874008 0.15363421252010961 0.06910533943809388 1.7408065329991955
Ni 3.3842997703378237 9.16229833790791 8.158816169326286 -0.4021755560327654 -0.1556702691135319 -0.9106387169808767
Ni 4.682293767234302 2.8162023868164523 2.5856949434466583 1.7428677864035984 1.906171660802988 1.292273215637497
Ni 9.292026868344278 5.558332230105284 9.34330691509387 -1.340890462424568 -1.251142249925142 -1.46413346424733
Ni 5.555884878558704 5.509942703966117 11.946648302607095 0.6858237705508834 -0.30674623398816203 -1.1858166892444544
Ni 7.38448169937487 7.785894599183113 7.574281843660982 -0.7040950580562454 0.8212093212734504 0.25516913324181856
Ni 7.229419773199561 5.039833874645717 4.063614635338987 0.5698924718981863 -0.5457418427939117 0.6857080709086255
Ni 7.822973392498891 4.468476505473493 12.179088114282974 0.2460617716239117 -0.2242037952085558 1.9068296061019614
Ni 8.627840226609823 2.985485409816492 4.935244085732615 -1.9166712747827315 0.3316057162340031 -1.613724874156634
Ni 5.576824380594322 9.05285731237699 11.050152248622794 1.0585203432879253 0.39132447225087447 -0.6568021865075526
Ni 8.26644483182001 4.641652612787014 6.59788968337625 0.7747389456260528 1.586360623211068 -1.2314581412326533
Ni 3.5389175825259143 3.4355524143094796 8.20032003881683 -0.16219238650276585 -0.6952949432661123 -0.09149450576657146
Ni 6.639541905836991 2.514346614015098 12.167097036628101 -1.101720275714167 -1.039588539380429 1.058371219304571
Ni 7.6027401010078535 6.738664368090433 10.233648683123386 -2.3517505235220533 0.29468236084509253 -1.5781734594145853
P 2.01214818680979 0.5840807624443168 12.025008908419807 0.462054748886901 0.06059061709886339 0.3922400420866084
P 7.196923858262518 0.20620873872873346 1.6930853593122 -2.502123548792387 -0.49562230042970135 1.078112149376924
P 4.022283686826446 1.2780183167054608 9.350111308332067 0.8368156603521395 0.80502525531442 0.9614192899678539
P 3.4838946942797953 1.5151279397107629 1.8659590911450619 -2.752943661036891 -2.256811510850307 -2.5184045453405983
P 9.24831471292155 6.8742608726983345 7.195286306050075 -0.5109967260032425 -0.41166215536696193 0.3509306418148601
P 5.07489053193459 8.304770923993503 12.917770625217972 -1.5998620001316124 -1.5132230226851293 0.8369732689759263
P 5.3352830669506135 6.0174232528491824 9.778686030613859 0.014863290265077626 0.44299927491734675 -0.37904874020731494
P 4.149196345599179 3.7463944084266605 12.416298844089622 1.0010577302950825 -0.2500780918721564 1.4860264076656793
Ni 5.807026613713325 1.6766909387202338 5.974714606052889 0.31078415150296157 1.2903394889498938 0.7217058291594731
Ni 2.2226487675171236 3.6378132631688627 2.9549124139517624 0.24022382478589593 -0.2437493214406512 0.10158891388809602
Ni 8.29276094787109 3.010563676243626 10.624689159021658 -0.05352856804575943 0.8883577940954894 -2.7487833590116146
Ni 0.4198077231894419 4.903056215816492 4.152250337953833 -0.19423990185661386 0.5028044200004372 -0.05039079374772612
Ni 6.492436234496515 5.784150018754738 7.4303813524154885 -1.2868903540590289 -0.9519784562699284 1.369848540219815
Ni 1.079471016717918 6.953691131773876 10.675694233068524 -1.0187430633899874 -0.5423996657945561 -0.003353746963581321
Ni 4.439637444005666 1.607116230467413 11.57176129183964 -0.041398360441128705 -0.1494623405306071 0.16786835384162055
Ni 3.0978179008812123 5.584355419909477 11.671171010799707 0.558848812489515 -0.6721719840954036 -0.5933180499109781
Ni 8.370348606361368 8.584789517551036 11.405829912058026 1.5149441191412942 -1.2137010743595484 -0.778332319404266
Ni 7.373284357356726 7.0127204951387245 5.18134748944076 0.8910412544649234 0.33973323043714393 0.7935650771936203
Ni 1.2831020044740358 6.6795310631541085 5.604183692053675 0.13503845179579324 0.550651107170071 0.01664943563122294
Ni 4.908820248416549 4.745613082730995 3.7123072425226504 -0.6155861172805591 1.185448250161442 0.5171840857608769
Ni 3.571753669878699 7.831704484502911 6.203599615984274 -0.24446614500201766 1.3573352382441528 -0.4474197725825456
Ni 5.641173662572008 2.5820220262800317 9.087577576943628 1.5326443646345347 0.5216107540736629 -0.118850272071705
Ni 4.030778547986202 6.226374159218139 7.814783741589925 0.588758969785386 -1.2333725846465469 0.7859078177586788
Ni 3.395969574044497 -0.010702202168565149 -0.12032181821775059 1.0566771194315996 -0.16633469080591354 1.0330916188021757
Ni 5.126464449854445 7.415238955298126 4.364096489550097 -0.4739170475421258 0.06624035918547301 0.3916394323881319
Ni 3.308044453809199 7.2702593615560325 9.82006517021863 0.6159869522634036 -0.5841489818172003 1.0004977440265541
Ni 1.1107668789660972 5.952507016845259 13.065032208915662 -1.3151678608474833 1.581797686430734 0.8894849657213972
Ni 2.0850490253498575 5.109351887495914 9.184953820796267 2.103700517823519 1.112627409544974 -0.010828458074071675
Ni 0.7063699111331033 3.8701604723537892 14.062528287903618 -0.19893062246406384 -0.9505576646630016 -0.8708256987489971
Ni 6.6781892719586855 6.478734845529167 0.1828455082309608 0.6976451886658437 1.7460767802591992 -0.5825320150390677
Ni 0.9343307860017246 5.701280238586702 1.673930817535846 1.145184517545389 0.1041049954417304 0.9828833733789007
Ni 9.09209998022623 0.78094137420381 3.4752070687511187 -1.0542929354701391 1.6677357811554503 -1.0040044716282321
P 1.0712312848699674 1.3665009417332235 1.9474029819371153 0.41655393624162457 1.3386541168948816 -0.9490723383667269
P 1.1323583781318851 4.600548445884967 11.618008676683017 -0.8376127023321381 -2.111760669123834 -2.7834950514611867
P 0.4395008712907191 8.619005193034326 4.394592001697908 -0.3130693479927124 -3.3555197392110276 -1.4004256416757235
P 8.78771181277436 7.861819192529768 0.019750788427277833 -1.8804099784578516 -1.147239857412521 0.29571337321276814
P 6.3216035371581 3.051667843145673 4.32089175798085 -0.949540536252397 0.3735910595268534 1.1885145477915917
P 2.5460582425491833 5.679065089992056 3.9276940220127536 -1.4933561085578733 -0.426816237399581 -2.0893871865246405
P 1.2782923444848078 1.1434328801110114 8.492186081675921 -0.4861809525111434 0.5735665783156637 -0.8407869862950617
P 6.366081080516246 8.85338398747993 5.972639554316869 -0.2459049343310733 -0.1853999349674807 -0.9369359601145091
Ni 7.868169077623601 1.969248665491332 7.607915446344004 -1.890608002036776 0.5189830866428288 2.7307925788611485
Ni 0.9904686838327731 3.3198559960224303 9.622062146096273 -1.0776228684453313 -1.7014578559982438 -0.5690692046659426
Ni 2.464473558173948 2.8000725447700625 11.403949514537683 -0.8189356947479252 0.8297135020897195 -1.3403209630743433
Ni 6.117027626024924 0.5195075336262667 7.889229529851481 -0.6093792171388989 -1.0721032241786828 0.9239338914278862
Ni 3.1750181407868956 4.426899876882917 0.7814563574443069 -0.18520967333354554 -0.37532398305756004 -0.18266556675545317
Ni 3.512818798851557 3.2023831217865113 5.063503260317656 -0.7156506241043288 -0.8234775484823367 -0.1284613127989078
Ni 1.7868123090826373 7.051443455130584 8.06257383352612 -0.9023016578700911 1.4524827673822793 -0.5678816121157445
Ni 7.883420140929326 5.586207469728512 1.963404314404225 0.44291802805745006 -0.26085152833857655 -0.2284337741295034
Ni 2.5825889803062667 7.87105109392363 12.078267624720958 0.7117559170356129 0.58901505166025 1.4734632262886882
Ni 5.22708934027741 3.9634527573707805 6.49376479676466 0.7340286123908842 0.1100460435165137 0.2365702871937087
Ni 4.627752789910483 9.249845488792385 2.277523302793045 0.47869801387053684 -0.42176787634239626 -0.3312979551855972
Ni 5.719668447504262 4.1979165949203185 0.400815708233942 0.7407255647950856 -0.428629636459236 -0.7116129636998455
Ni 1.344380285476283 -0.09680267536276325 5.953042788400052 0.07875314694050309 -1.7158053829691677 1.8926679698895987
Ni -0.158625232230196 3.4815040381358373 2.4208010895330556 -0.29665825362454074 -0.9837066406111444 -0.19022769537342724
Ni 0.27242613422286555 1.8192137316819752 12.5040765562781 -0.20985241158289017 1.560505609821177 2.0551411208575767
Ni 0.26969436073978925 2.9031069898045274 7.02033846740457 3.0158119626951803 0.7255714827624665 0.3732791847133894
Ni 2.334367058386756 1.6373726770008277 6.593160341874072 1.9807948447355177 2.0030330873084274 1.261423834356808
Ni 3.730840969640277 5.59811350427945 5.529736958868739 0.3391840428018933 0.05979100401570348 2.0380538263579866
Ni 5.335727180937831 8.06310677031078 9.01636720632512 0.9159166775503645 -0.7556006821347052 -0.5931920658560752
Ni 8.212763734769313 0.8960802876983944 5.815531869030229 0.364260783264863 -2.9239029950990094 -1.5431560627991359
Ni 1.8918121947413837 9.131786762062688 10.031054276311902 0.9566156979316234 -0.9213735868998778 -0.4933692427294664
Ni 5.6780067758097506 1.8245808964636676 0.6487069069714823 -0.16077622288152957 -1.5524837679579648 -0.5512781992311088
Ni 0.09472384393323445 7.888844001113642 2.326246386884315 -1.3057892478460607 -0.34200659985235293 -0.3901435645688958
Ni 6.07872988155274 0.6606875904692077 3.949601125586479 0.2043929311302157 -1.3272723574205012 -0.04357762748063463
P 1.169635605356845 2.4863579835866236 4.903490880569938 1.0832163033727087 0.30477882584914606 -0.3527946916067924
P 7.698810460753397 3.9243234803267857 8.496362643002518 -0.25126002799539954 0.259708672983385 1.0312008295373658
P 2.115815730506884 4.516894379313974 6.931840723602774 0.419546186100729 0.28576166131669495 0.24987883137715677
P 5.463594212321394 5.751455669908512 1.9481919929569593 0.8387038785137878 1.084134958532236 -0.015430475622457297
P 2.292355765042733 7.0948721335401945 0.5222185187950477 1.1935881056597575 1.1683167326874782 0.9444376678081928
P 8.015435385938176 3.4999489424560197 0.5403846707189982 -0.9850914367738133 -0.06067134973812776 -0.12650624595506602
P 7.9252424495979374 1.0336894790994313 11.20492313839797 -4.058256740577481 1.4303615100032077 1.4688550380927154
P 3.953266483366089 0.9331930982557461 5.1766455507165166 -0.4950484302041022 -0.66343897509778 -0.06147250548318445
