# total energy = -340871.2527939709 ev
CRYSTAL
PRIMVEC
9.23940742125449 0.00000000000000 0.00000000000000

0.00000000000000 9.23940742125449 0.00000000000000

0.00000000000000 0.00000000000000 13.52280669461832

PRIMCOORD
 96 1
Ni 6.542932688264472 2.1705123937476984 8.155036537366547 -0.899180081521974 0.9302968575314365 -1.0139165885356216
Ni 2.5982507685430525 9.031613322091074 11.58039075870456 -0.29325668414215944 -0.07293602603809374 0.6602225250430114
Ni 4.554538257700513 0.6257693696868379 13.109306677548348 -1.3849344880186598 -0.042847691293145564 -0.6454445954028885
Ni 9.018474884485306 3.15707785835291 5.7259214403898895 -0.8099090657692826 -0.7967835841309181 0.8341581681246344
Ni 2.7586746026843576 1.9783789127266516 7.485996250071349 0.015480097913470112 0.9331888343672509 -0.22877984461501247
Ni 3.8974962651133653 6.938139108903774 1.7964106279460157 -1.1103262722156233 -0.07998547668570741 1.491611872173257
Ni 3.6138002547863035 7.155911946012025 13.06140866461441 0.7788689086340262 0.5583618455507674 -0.706411622004564
Ni 6.002113203865051 2.4634478116737535 13.551340263780864 1.2428013341596145 0.4650565118277023 -0.6657136300645696
Ni 3.605678815506789 1.713337266341955 10.689521534365154 1.008691078470624 1.5477922760195666 0.5067528631252239
Ni 7.826397276655706 0.6829095620420464 3.17542547396299 0.6762487252679386 -0.2062011879835481 -1.5599703061429973
Ni 2.64265536146381 5.3892540584162845 8.313348242930722 -0.9778085299591547 1.590045271151507 -1.6952193312876997
Ni 8.059341221041503 7.4171377170583375 6.353190365930044 -0.883523863041956 1.3188964746519802 -0.8343733694592341
Ni 7.471798052413976 4.367772872494481 1.0734713324813345 0.2368273975098373 0.5182451800355397 -1.3824320333117803
Ni 7.93796312341354 4.238522799592175 8.647808330428928 0.9815913940403548 -0.3616372295990869 0.06055976386092796
Ni 7.9043132009380095 0.9136018627959688 6.277571358376851 2.474581634618377 0.5755676679060926 -0.34827212114609046
Ni 4.270934641449441 5.97753637965173 6.447633742525425 -1.1901531118362791 -1.4977226130566852 -0.2501976481691562
Ni 4.057587480581107 2.5575142204390953 1.4588137615679515 1.158416957075263 0.40815002844864545 0.716018806077025
Ni 6.845033598528727 8.231000174823183 9.686603242250486 0.018374388742129648 1.5139928109716183 -0.8265757277916861
Ni 3.3849770861896573 8.7379387515571 7.773788089787044 0.17728141962540434 0.5219007745102561 -0.32280688699545057
Ni 8.569060859462716 7.381344252019841 0.5173541609202609 0.78990511184353 0.5057244218607096 0.7899876442550072
Ni 1.2290352382255698 2.515899928613233 10.687142386908414 -0.805571100515561 0.5713749699809837 1.2319289102214848
Ni 6.494702980597731 9.24153266274018 7.605969957744265 -1.773814869604416 -2.3891060813523755 0.8449501165338159
Ni 2.088180032633077 8.300988687385551 3.3463000020395155 -0.4855659446349637 0.6873088397368421 -0.3988200092969712
Ni 5.151736607268987 4.172396359406187 4.767830906064012 -0.19115329251149016 -0.167585275383563 -0.5850455254895409
P 4.579410742957 1.2814596369422528 8.665022270726611 -0.12876830251636534 -0.21474959177419142 0.08462066146487361
P 5.577506988245755 7.6013437863594495 6.483022521511086 0.35452555825497006 0.8786703916043964 0.2725495335017951
P 6.700556981903283 3.28536703286492 6.1674006621664645 1.01963215086316 -1.0799039511700241 0.3628937277140073
P 2.1289997354054258 1.3469208397811139 2.8953956605712077 -0.12530322678590033 0.15835347237264985 0.5754879637080927
P 3.7182425182853134 2.819248158903352 5.6336687273362305 -0.2636702287342943 -0.698127527618901 -1.1466533887814316
P 5.639374061528609 7.695271604010806 11.509355421261228 -0.17342579332474004 0.44244185975197997 0.6609290641917328
P 3.3377175163208115 4.588908853968765 2.2298432496446288 0.8434401076471927 -0.04655985003741013 -2.0962530604065384
P 4.775073677680863 8.577976887795744 3.187217729881584 0.15663263302680122 -1.3789129644149285 -0.795205698120837
Ni 1.854709442014138 4.326749902754954 6.0786238142515465 3.7606538636514846 -1.5231850189938478 0.21811233759883727
Ni 6.638218698832881 9.057566818036644 13.200936654529835 1.7250598116879001 -0.5737257296013474 -0.4053069025728955
Ni 8.21562580057846 7.778028977874981 11.528125277798582 0.5179204497062693 -0.0634334858642972 0.6230793403338107
Ni 0.10773703624881092 5.513616484698723 6.740186648976882 -0.8904380736632859 0.3686082616002813 1.6168076268470155
Ni 4.863079035061265 0.8204409159753283 6.087696912513757 -0.7719786092720963 0.5190039125784351 1.1651928423465159
Ni 1.4433063398538026 6.940495157841516 12.071457881064928 -0.4289479390306032 0.19580930322626278 0.6268845730125139
Ni 6.686004914934869 5.231269427881113 6.798347795871779 -0.40513361021982486 1.8997940394114186 0.25095226694699363
Ni 3.3524820896640013 7.8725111599822775 5.332556433685068 2.1342801903825888 1.5145096027070368 -0.22866723029654812
Ni 3.08647030548141 0.05538285702988032 1.3840050500611898 0.232975884974231 0.37491569187554785 -0.27851063618123645
Ni 4.639845708062009 3.6834746274903054 7.360666457813296 0.6553867942172649 0.0625161162563504 0.6761533373406549
Ni 5.794827094381656 6.529470871392741 4.589978777368728 -0.0951362162842168 -0.6531273087591268 -1.421546739925055
Ni 1.050834783863803 8.788016340743638 5.703067765693783 -0.8586224718145856 0.8229085633527441 -1.0978481943532707
Ni 0.08507646517152213 2.909563368183503 12.921001083095563 -0.12235777100433119 -0.7206745596814814 1.3099181824127697
Ni 4.347640203336276 8.781539516016744 10.181686735094136 0.14220257364440025 -1.4108951737484798 -1.0457000515948056
Ni 1.9306850907006528 3.492385199527944 3.4559154098532012 -0.15447496325385007 0.8495169099688917 -0.3851630806351689
Ni 6.185654035819034 7.403796012485393 1.4753920306228239 0.012775554498113482 0.20486138612620203 0.6705493608903161
Ni 8.684516496819725 3.0047107876379267 3.2696655835911925 0.3823513222179867 -0.05774106346521023 -0.9922789556611877
Ni 0.02742533357608918 6.005217644818312 10.092179050038135 -0.21979332484568598 0.0433768243237382 -0.5471297242803739
Ni 4.228636633461254 3.6757597221451466 12.449109427266144 -0.9115627714570429 -0.4524269959891498 -0.5013507182730463
Ni 4.5562752663291235 1.354127577708328 3.845359211973011 -1.7747787761795821 0.9705379644396704 -0.8869002357133564
Ni 1.4131304346354936 6.761564790279429 5.03111983682718 -0.8996734762186248 -1.6416627382174822 -0.5452340499195578
Ni 4.866349785351309 7.031632674397978 8.531931376085407 0.5614487120062073 -0.03357192241817444 0.6484913526490121
Ni 7.558010964720175 4.754248052952733 4.421958302299531 -0.19291938327297742 -0.1962132235329008 0.36216224886462145
Ni 5.931191511135184 1.0507331503802142 10.974312414492696 0.26274540292717974 0.3658605236518151 0.1370819645883833
P 6.584971992839888 4.2914738445420015 12.43347727354941 -0.34917123592159216 0.18486617395119775 -0.4675263135244335
P 0.2814092569463114 4.342235149890866 1.3911997767585251 1.19859610039731 -0.3366023981176461 0.013860302921860001
P 1.6349316534569054 7.765435665317555 0.6848174997112384 0.1787528619646083 -0.9198262970174159 0.630761796579733
P 2.191855425301371 7.051451203697817 7.080920294234803 0.3134313593178215 -0.9268070992106232 -1.0719533288643797
P 6.085415702777566 5.264651407536273 2.5828560676016115 0.18983663058259562 1.1641250632036337 1.2576443127097179
P 7.870386096234509 1.4948899524789774 0.837242778694096 0.3611034685828039 -0.5891304941921919 0.0842257400193001
P 8.776688827027273 8.1684863430084 3.8693077564696 0.9184924086973407 0.043197618433396576 0.8751893750343315
P 1.7446496186949403 4.659054436460315 11.761947889847043 -0.25169274465744396 -0.7008140733121285 -3.359015411069112
Ni 8.441982047346174 4.003509227904205 11.086781875313712 -1.838477599890124 -1.874392311508862 -1.9283926769847177
Ni 1.93135032804778 2.6420363211546776 0.9706117795040317 -2.2794590730464934 -0.07669549308052598 0.6223730582954056
Ni 1.9637621699050456 7.282861406422181 9.826618148946377 1.2616758024666141 0.7621937619711905 -1.7286560136795908
Ni 6.434609873573885 8.770295156968771 4.831617928245937 0.30619190414658876 -0.08497907324555688 -0.5937949895473967
Ni 1.2014001700969834 6.13710094888633 2.383692321338491 0.5316665956477682 -0.15748701060729653 -0.4640735790891427
Ni 1.9834698263136963 0.7860638521217571 9.340405411338518 -0.9205387497034083 -0.9783322636731087 -0.4332298542354087
Ni 6.189340559451032 3.150471681919631 2.5656689215859654 -0.2663344058300187 -1.0037627879310713 0.7481295705686406
Ni 5.853192432184491 0.8831524711127294 1.7369642794540985 -0.41340896285473966 -1.5280230638124392 0.610085242066988
Ni 8.043680425161211 6.447221664946509 2.8253877452528826 0.06882920295857178 0.010897620749110264 -0.39159340964154493
Ni 6.723073418222027 6.108458785329453 10.296603714988123 -0.5188686725521515 -2.549581485164035 0.10853834862273565
Ni 2.26990070129006 4.906153153287768 0.15998126651731354 0.5786799882828292 1.044133478438634 2.26959503576822
Ni 2.93957296406503 3.7869005561534266 9.71114680459645 -0.17836179717377668 -1.8115722908588479 1.6593604126075616
Ni 6.655884446162155 1.8305853487731687 4.618836219122661 -0.26663393934830854 2.3025213541825957 0.21047256166539238
Ni 3.29480970743109 5.749627912407385 3.921370894349162 0.12410226449926369 0.3823245827451093 1.405619270061521
Ni 0.8422098842193143 8.24881375267404 8.066016693031775 -2.1973264681107962 1.0515701372223376 0.2184049291385916
Ni 1.8577030100762115 1.8993819777552663 5.143237276218673 -0.19679480706798363 -1.3617673058735773 0.029112601095240182
Ni 8.205480931034765 0.9513910398758477 11.52813913690998 0.7428935189806819 0.6536885805792355 -0.4610923849736317
Ni 3.4046939820059072 6.045797122993086 10.843127609639163 1.6815978838495231 -1.394351924677818 0.7412786090850781
Ni 9.01715364919865 5.448478661125826 12.585703905268888 -0.24970399636218932 0.2626466725657864 1.9538080317340287
Ni 5.113014250021609 5.158333544294668 0.5969572010301398 -0.6272663818319649 -0.3484754954061482 0.5489660061581643
Ni 5.69492138001375 3.5079166437018503 10.440391071806681 0.13591879751821753 0.5544943921755612 -0.029416505488904177
Ni 0.6401652906668279 9.220716277419651 12.905666438303514 -0.2305456782661836 0.7398164227172549 -0.4676607822197688
Ni 0.47581840405899045 0.441683412684513 1.6601136588679593 0.10468246521175519 0.09120602799187519 0.6670518892600189
Ni 6.786067699231957 6.413211405574619 12.847937695684251 -0.8404951660862556 -0.1845257598926435 -0.14151351799717565
P 2.720571285746113 1.8078194484492516 12.720944810058379 -0.14625540355753522 -0.3749072072351156 -0.659929933503257
P 4.606630037743632 4.980437990383668 9.12178254873116 1.5028486214293408 0.4587462533389583 0.6877358999719317
P 0.5313435479658953 4.943785260438465 4.59729454030561 -2.0011546393387922 -1.058783367141325 -1.938888691420035
P 0.7343009949891621 1.092365921021274 7.036376186259301 -0.0539114053064749 0.9743144007629672 1.024030537041172
P 7.519066861690422 2.248141896394433 9.93340814591629 1.2917068016110655 0.7670732015506789 1.472367165011032
P 1.072824573949405 3.6856736064988653 8.086030173831952 -0.33505459401455195 0.3282591683592734 0.6936178126740055
P 0.6288516360618617 8.714415219810064 10.510926557298909 -0.6888836404231298 0.9934840317128826 0.5090131199143105
P 7.903056641504547 6.57990879747564 8.286208407049443 0.2604154692424225 -0.46661228635059643 1.5351658455048078
