# total energy = -340863.77759702294 ev
CRYSTAL
PRIMVEC
9.36096874633746 0.00000000000000 0.00000000000000
0.00000000000000 9.36096874633746 0.00000000000000
0.00000000000000 0.00000000000000 13.70072398148952
PRIMCOORD
 96 1
Ni 3.9690132424254365 6.707190167542335 0.6769197223547171 0.648447129674638 -0.13369325062180845 0.5760070694363564
Ni 5.0051694957646875 1.5411337044535074 6.029894134249908 -0.7483517138817757 0.4696433598674363 -0.17014892234568119
Ni 2.62992668422923 5.8609492451550915 8.292664908059203 -1.1236132191325165 -1.2275222965133568 0.9007528253257326
Ni 5.281205737834522 4.292827868228465 3.107392248628781 0.9731031540636854 1.0555193516780725 -0.6052721369490609
Ni 5.714562418191985 6.83026818269203 2.3494964034986676 0.21350672050602584 -0.21077466628684344 0.8954722936530836
Ni 1.5831738144350465 4.830035134231708 4.272364790869381 -0.5824975622567065 1.129128492523791 2.6349539371932686
Ni 8.492027328522093 5.912977508632578 0.7772814750033643 0.3718537651207725 0.23401975285771306 -0.3680840136656951
Ni 6.5530711805158255 9.451582775809475 1.1257117038363311 -1.2698079446554456 -0.8667931805508362 -0.47357534793199074
Ni 1.9900202317179791 0.49204808128426253 9.358772516530259 1.118399536142061 -0.17854203150538284 -0.47071191034126675
Ni 1.6172945449811855 5.498707843250033 10.990336922044925 2.155735017822255 0.8890959578130946 0.9027120059346324
Ni 1.0831015108670665 6.222076691796778 2.3255061131711927 -0.598532247122066 -0.5432722982074967 1.9594698580054963
Ni 8.089421430014852 9.180507847097518 9.403436506010312 0.1902526350740917 0.158103818255689 -0.44458050336153754
Ni 2.369055211291014 0.28218546234301867 4.25933619477223 -0.5898840845287647 -0.7381554900750643 0.11697259543301788
Ni 1.2753570839690147 7.838612998321382 10.352061150263753 0.034943605954720465 0.08642171922935439 0.7901092574345361
Ni 0.3108281540645758 3.882414921909022 1.703657905185746 -1.492180085971901 0.6245556677690212 0.9460890873686867
Ni 5.369601364322091 3.8815256298920446 10.004309591654268 0.7852254469796734 -0.6436144841726851 0.17218857848352928
Ni 8.717720281462396 3.7919505213609055 3.8914716590292935 -0.3151437140232379 -0.8374270686838933 -0.7619914161523974
Ni 5.039215338562029 8.048186363332894 12.737124553957223 1.879964663390317 0.8209920630563217 -0.1871511133306325
Ni 6.262984124577746 7.0521605823808295 7.341670066556303 0.044455916320529885 -0.5424469740927239 0.1751746576950467
Ni 3.0266258115500193 3.1544123939053943 12.904862814199529 -1.1729462610396895 -1.1126150682498 -0.7156064011299547
Ni 3.945376796711033 5.971296343009107 6.451698443258403 0.4532821449005935 -0.41380337007968093 -1.8557960365639137
Ni 3.82743795332261 7.9171421639048 7.621630426663158 0.021897828514355837 1.4431558335543984 0.23223592148441297
Ni 8.878569804912138 8.285515000242704 5.042688257912541 -0.9925700045390454 1.0405102798637498 3.3265413497008067
Ni 3.3653899042068702 7.613257040250669 3.0734971174258963 0.05372782854075908 -0.971016960958618 -1.0939686567932063
P 7.322580243290805 7.775978757420363 13.601229012723394 0.7549723045220869 -1.1630454569862099 0.41410264648765455
P 4.8818574564 5.730373094156987 8.757050391034305 -0.09273172060778223 -0.4616690834127081 -0.13243341007277837
P 1.4237752411182694 2.3477590077265513 0.8548829685985458 0.03353566986360031 -0.8507312419919671 -0.2319207042368393
P 6.15622227769744 3.861371464496753 12.522529965388799 -1.1565768185427308 0.24285586309210433 -0.04635210490197823
P 3.227250090580156 7.223588000348303 11.99661389971059 -1.7456931716675355 0.5490259128618222 -0.3852620681068784
P 2.0039212700886284 4.5450310842433 6.521284139441607 1.8077346622803125 0.45176519403543486 -0.011598246360560671
P 2.4507296623239525 5.0600154107907045 0.39139145812472276 -0.41642332420103123 -0.5851272865700697 0.5087413543101625
P 3.9461256741990143 8.968135552474678 0.8690011814407096 0.772365817408186 0.21397466128137985 0.4005197655968973
Ni 3.4014109113787607 2.0906225612596403 1.43087647189805 1.9057448576782143 -0.5380812409248604 1.2213909868046384
Ni 1.3965441834615562 2.170125267577434 3.4393059844643243 -1.6181775106113487 0.29444144847888004 -2.2244531491242596
Ni 2.3206309207244358 0.05668721754958942 13.012974512751919 0.42824499942630767 -0.870559589571804 -0.23146407631539492
Ni 6.9162767621866585 1.0645106272279357 4.704431529753797 1.072631842988643 -0.9960132258926395 0.6937527955899729
Ni 1.9995403367839388 0.3514182500100115 1.6390587969756363 -1.415287903499537 -1.7252883827589385 1.6936116204809475
Ni 6.142798648725378 5.792127404009628 13.80909680925603 0.360987768940546 0.4307595383180452 -0.3328125920579107
Ni 5.20359394717388 3.8938914694123326 7.346505942934942 0.4666891623351188 0.3166771199486288 0.37911995976488255
Ni 0.22477838630810743 7.893898878871587 12.859280513699838 0.17589508080083902 -0.2075103937132749 -1.0572173082057859
Ni 7.629432793991062 4.683507892739605 8.626660523311335 -0.7162077821593794 0.526761445036667 0.8432063943698317
Ni 0.5581936215070532 3.7873917296528203 13.083383038075045 1.1027042368939912 1.0185857118765167 -0.2228287692379001
Ni 2.4350125960449494 2.574425501401231 7.920840682598567 0.4126497160912119 2.0981255948389026 0.21024476192530245
Ni 1.2842968089817892 0.854406495296818 6.923427606100018 -0.09649041631926608 -1.981145543206717 -0.7454743923339806
Ni 3.597410871920615 7.29184818337778 9.808293717465794 0.9260725350374438 -0.24450985375575954 1.3288085915593697
Ni 0.9939757288287158 6.660301075826119 6.450013468910446 0.01556263032494739 -0.7897966112901237 -0.4266365172886072
Ni -0.11060546058736874 6.390162243974136 8.97676917381424 0.34658033526596443 0.25634592715873916 0.16863531391463216
Ni 2.991803008358898 3.7469710672390404 9.946122746934996 -0.18901850555667446 -0.03371230465078065 0.3456647654302305
Ni 4.79430431708641 9.529278815187517 2.865588132631423 -0.7383866322492639 -0.025651124909200986 0.2494746539602026
Ni 8.162979921271797 1.0191005685504817 2.4819681506382243 0.5799881655712915 1.4544964553781985 2.859344908711966
Ni 6.653486290685491 3.4617049101298396 5.122057102379358 -0.5939847369606996 0.4506084547231724 -0.2403035289838958
Ni 9.189026328523303 4.451983056361649 6.015206774516879 -0.21765725233928968 -0.5575689173358268 0.2136059650880515
Ni 7.929639056985485 2.7503087404221924 10.960757197366531 -0.9629673511812642 -0.4010560977163416 -0.7502628148615595
Ni 7.752398477517557 -0.2663027069197995 11.875883615485716 0.0007448485858245237 1.3332951665758135 0.45278232244603955
Ni 1.0069406703393886 2.663869556371974 11.005202140181348 0.8291509447180301 0.3868417538891725 -0.8462757773237748
Ni 7.185872657859855 3.753402052667078 1.273637474037238 -0.2576697881764853 -0.32915699758319444 -0.662799284631252
P 6.694534137995454 1.913007543047723 9.149658775076997 0.870749594095423 0.3847524754603116 -0.3441233890850396
P 7.554395269695355 5.29871074911608 2.785110949482394 -0.24900954139832596 0.48566030412098293 -0.739512775433907
P 2.2669270438675913 7.367531614506871 4.867702735780297 -0.6718976473880944 -0.028958077795246902 0.26086746917817655
P 9.32860773131438 2.0534127110755795 5.545148544570321 -1.796898233786441 0.09211439873875749 -0.48023013424434713
P 3.772423540861798 2.037302484115386 4.007872495276776 0.5337705293646484 -0.17077781417893168 -0.7120279397500769
P 7.202759845213828 5.175557846217588 6.444614998318961 -0.6706203233375676 -0.3584745156003891 0.8327666870937463
P 6.313224443052678 8.096460878401876 10.123286566460406 -0.11577986067649737 -0.06496020692146877 0.9005574214854748
P 0.3517075039397442 0.48426256369983905 10.850233177205979 -0.08462631789182845 0.18065779229680498 0.2771232689154066
Ni 2.4315490376630366 4.073828007836991 2.4990257076207136 2.680719316353841 0.24205033647167346 -2.110499285912907
Ni 4.128645839957208 8.526279112628629 5.260913966200814 0.6693219162411183 -0.5602626621179061 0.34552566874920493
Ni 4.0271448574299695 5.243827390215666 12.444641090057603 0.4144464029803185 0.014397406372252624 -0.8843448162813545
Ni 1.7616032369151435 7.175659841117513 0.5702421241918092 0.3374614036838317 1.0875074745488948 -1.213236218907988
Ni 7.986450775417451 6.32856707058769 4.677303442751682 -0.9808506592195881 -2.0982528644453864 0.3035737497974514
Ni 2.0574566495106774 2.611438771244697 5.504252344951674 0.8205984271623287 0.7269043426412772 0.9308882112585324
Ni 6.121811357124708 5.904019061682604 11.216947249908005 -0.8934416363762999 0.5330891870269077 -0.6937044588505408
Ni 8.383187346612639 0.5193193911059543 6.949226435560967 -1.419719199798013 -0.4686737968653154 -0.18565318862886737
Ni 0.6801239819064162 4.193049303923583 8.185223454858555 -0.09063575731070198 -0.08236014756547107 1.5990824416531104
Ni 3.603064896954872 9.349885212941643 11.021848750642308 0.41918211789309096 0.3504706714593061 -0.1873722282025031
Ni 8.027011852360229 4.773672742292531 12.312347201321442 0.2802646427578657 1.0130809800082037 0.1090098889425155
Ni 8.199609391402673 7.521556991847384 2.5123978512654763 -0.1823331231166989 0.39368551628388326 0.1251736431865715
Ni 9.648163116404517 1.853518587596224 8.777985261210816 -2.171338785797783 0.5638334101882999 0.48600534616522745
Ni 9.017261915686237 9.19388467122658 0.9115889080853348 0.6831752771844428 -1.419208835820498 -0.46976600148822967
Ni 0.34518010053512893 1.3809488097743499 12.927633370318455 -1.1662904462860688 -0.16876875416870288 -0.4737470976231648
Ni 6.101928659818809 2.0909876390350313 2.7552981366858664 -0.6202868651903382 0.6716521070361917 -0.22195999347970163
Ni 4.942441645177671 1.271650140403508 13.260108764269983 -0.9603720796502623 0.4509172442128428 0.8259566061504485
Ni 4.500781785672217 3.9571809781153355 0.8694935683890571 1.2911699552709892 1.2253186039938189 -0.30861439754515235
Ni 5.89471425889444 0.93040726326144 11.23501859978985 0.007788899916799489 0.16156812265520562 -2.325763869650304
Ni 8.23929989826567 6.980801918744831 11.239100918196206 0.0695748228753447 -1.2003290239280164 -1.5287897667751347
Ni 7.595536726691317 2.8725161854921084 7.264794984124464 0.31249393510521667 -1.3797771121874367 -0.18263522773815
Ni 5.8713211983636295 9.557455330672806 7.847157690459247 1.5816225943054503 -1.8260278041625455 -0.5293631443255723
Ni 4.175637902328022 3.909196653072946 5.069350168678388 -1.1243894351769086 0.0895990885160715 0.5578052017163491
Ni 4.507708902436042 1.7122615714257887 8.75605063958785 0.5292381887119336 2.860479793647358 3.3546105971331968
P 6.21684391034951 8.428447629792498 5.578496059110119 1.7301413399758656 1.255385084361896 0.4404482263607189
P 0.09494549621682392 8.074603016721426 7.732414681750782 -0.17575829811265858 2.0798396520455213 -0.23370607827203624
P 4.772072016661971 6.210534617513269 4.335278924731534 -0.4885561376115392 -0.4527154737638462 -0.5971582495926748
P 7.772861554876641 1.7164740072956826 0.37298311337328727 -0.07861970668643234 0.32105570863229865 0.32423462058091257
P 3.3441311445168065 0.7125288469082185 7.506421241718426 0.3149236275926318 -2.6436895172940535 -2.340659555815214
P 9.273995840503359 4.637143015264975 10.469270774198254 -2.4875955303795414 -1.4215315704164035 -0.780579720677546
P 0.43128509800633597 8.745522358203695 3.4026980445612285 1.3302882614286895 1.5376850123822356 -3.8500719465050017
P 4.018074078856799 2.1974873787945435 11.16252725895328 -0.2821618597805786 -0.17234233045257416 -0.1968140903416933
