# total energy = -340887.9691853189 ev
CRYSTAL
PRIMVEC
9.09017366902421 0.00000000000000 0.00000000000000

0.00000000000000 9.09017366902421 0.00000000000000

0.00000000000000 0.00000000000000 13.30438801345734

PRIMCOORD
 96 1
Ni 6.875871097536044 2.0847859113736438 11.418996340672573 -1.623930611045042 -0.4531900994074195 0.4233485905659548
Ni 4.690229707792735 0.6794750386497659 5.941300329423258 0.2928594487037408 -0.5425385053652656 -0.9614421727859893
Ni 2.6718838767619375 1.6747827120599599 4.434379493903877 0.15244250620485358 1.3784542796109551 1.117761902558062
Ni 3.6443688507991965 4.555822397907756 4.467759521134273 -0.8183206868717455 0.7485437752879237 -0.06512501463410719
Ni 3.9497259692664115 2.5613200927682267 2.5173363777939626 0.03129109680379772 0.28423288337699437 0.19149833455573473
Ni 4.947663429958475 4.900349075301954 2.497806139373303 0.7206365073546944 -0.8719824380612596 -1.2127749630008533
Ni 5.593792984038306 3.0176649981412655 0.6367175881218354 0.12761644830010926 0.3863966959319539 -0.796797468087989
Ni 5.770378700379819 8.078646534756455 12.519615495651783 -0.6445094851831288 0.1358804880811144 -1.7620962956159072
Ni 1.8903107329833249 6.805213176547545 0.20275632672693594 0.5428820047476134 -0.14980918234706458 -0.7824175452172332
Ni 0.8846193540353509 0.371928097312857 0.3442394279019515 -1.339144940488371 -0.5341963040481574 -1.7238513932020958
Ni 8.240142562581191 8.987545743025727 6.8174749119934965 -1.3291945141438786 0.9855272387596511 0.7056559747854622
Ni 8.832176492345754 2.5608746742517674 1.261724305330319 0.34704647626910556 -0.6243993446968149 0.22911125981250222
Ni 7.140931475524419 0.6037111670348368 4.634464218549439 -0.9064005105298132 0.30742500522274147 0.9547369928516719
Ni 1.2104020930430468 7.852955699518778 2.19817764843818 -1.1792979142893303 -0.8376852074412864 1.2149277476777978
Ni 7.805604984167036 4.262118882258919 3.786389181246104 0.1285307325842625 -0.627816340798164 -0.3508187988273442
Ni 7.8703997430511246 3.902911574169181 12.641510181293786 0.05311719153995369 0.5451851989594932 0.20197249461418118
Ni 8.401411336060795 7.171601721943459 9.138211737778844 0.5726219550142074 0.4721113617919547 -0.15321280871197485
Ni 6.85186394851628 0.9979647312134796 0.4779304320910747 1.7827257989408007 -1.0062367033928605 -1.1704165526393004
Ni 2.2027581870186643 6.9571827022243395 8.856917218391606 0.5114669807714418 -0.9559181576439665 0.5341307409175445
Ni 0.13666530905821322 4.902303462670091 1.2091758285967136 0.39414471530848894 1.146512235217877 0.6777605339267747
Ni 6.431170704807577 2.008210287237903 6.942269363079386 0.6560591376939411 -0.06943752596653202 0.34750541818339503
Ni 3.8274358610638797 4.348284639759239 0.22200749681177367 -0.8223159240740676 1.5440592913396958 -0.7757077372972253
Ni 6.124759126178949 6.023067351819199 4.2621806954407955 0.07040940296149809 -0.2768219356249039 2.5299883935234555
Ni 5.782368639628993 2.986703866160457 9.27374441118092 -0.06217364531526711 0.6144262926445031 0.01833376531218133
P 0.28480514451084077 5.849726827526173 12.366495153971238 0.8385550116407493 -1.4320553527658628 -0.41584431176910963
P 4.157390989848203 6.345132209740532 12.456473330365496 -0.20454642598894449 -1.3914262663905907 -2.2593386481475344
P 2.8237806810482904 8.868473556350267 1.1714097925052662 -0.0095678461940932 -0.7438545973423706 -0.33843456623037843
P 6.56742331997503 7.90331526240007 5.76972693491798 -1.309136567051739 -0.6852964372925036 0.9224907312234563
P 5.027247901623767 1.328628893554615 12.573285699832962 0.05354142356156586 -0.16476503232594852 -0.7226141999063556
P 4.32492289307965 6.381247470268939 8.148764499420919 -1.4750871350453563 0.5565821279425253 -0.7356172970342427
P 5.3123884735480225 1.47174458994506 3.9597051620698562 -2.5399431907433225 -1.1511618181747465 -0.5796824614054145
P 0.20265815284983885 6.019649446468411 3.400149514294203 2.0651974766523145 -1.225498838325425 -1.4206064874989728
Ni 0.5175426824823757 0.28242533700861655 4.793930410563455 1.6543071664543703 -0.11684892537096005 -0.316969454378067
Ni 1.835187919028062 6.922485508809557 4.738423991273608 1.0286860335353123 -0.10732941591629902 -2.2051809311582082
Ni 6.021676555226989 5.812502565793521 9.227271806618768 0.9843815551909819 -0.6569641660067137 0.6999175296397881
Ni 8.822977236454804 2.722952473200042 10.336458450409461 1.0479433391030275 -0.019147776573044444 -1.6150358796585735
Ni 2.3489100014600752 5.408407979453274 6.564079045032066 1.6687652508612292 0.46449986799328385 0.745085127315362
Ni 0.977039151113708 9.100900210377661 8.669258761337872 -1.3401471565006402 0.7805419254610751 -0.049593237547095236
Ni 1.7019986924329906 1.6978263026563636 11.443118025882285 1.1054537746146704 -1.1603982491713498 -0.7901969320523359
Ni 4.32303213692815 6.9644184805733484 1.0341118073502051 -0.3870482134730237 1.365839419060422 2.79320302277757
Ni 5.9661628637980995 8.093927116923142 8.264646035090724 -0.35950552796806473 0.235393236166472 -0.2928892735004117
Ni 5.545860497563025 3.33436665351748 4.951068609065936 0.16940047421543084 -0.49788821364574254 -0.7737189890019707
Ni 0.9937832512630476 7.730347435233061 6.740189345283563 0.21935829419079642 -0.9478050416185289 0.5107159615380301
Ni 5.307016180829097 4.774750143834298 6.86481108306715 0.13197575371006948 1.9011091586784163 0.6058390651961244
Ni 1.1389715072810982 7.506083757282815 11.175300598178765 -1.0341190316254254 0.22932826091931474 -0.5547990679001736
Ni 5.102850877162343 0.3996367651061341 10.454148930666518 -0.22760870712504672 0.7271686520462574 0.19800965331169124
Ni 8.282457321644802 7.438425593650061 4.521802422441468 -0.3417546317425469 0.6435106116049693 0.7486131950732785
Ni 7.330688853709794 6.175564107576701 7.182413574667468 1.023289030889457 0.42545843782010595 -1.290545691423429
Ni 2.382143676892206 5.620418103113992 2.2271543954772945 0.3102704450913366 -0.15488813953186872 1.1883034602220504
Ni 2.480444816422584 5.536515798891189 11.215146466036863 1.3345310958654437 -0.0215674417581306 0.24298698935332988
Ni 1.08858467387839 3.7062365737179825 3.6132059169599104 0.9236628971546867 -0.597576568077016 -0.4043897900752648
Ni 1.6150875406806375 1.1716234115896906 2.3325385984367526 -0.41348712439084273 2.0438220963003317 1.3597659591728322
Ni 1.6497483734001985 3.6753027122585897 8.13828080197128 -1.7607683208331029 0.10629274712166854 -0.30488295552717815
Ni 4.139119740499575 2.969859774099259 6.981757078089554 -1.6734387450774986 -1.1835507760284134 0.2653573866287301
Ni 4.149755243851762 6.999624723721226 5.869629763072849 0.7712517584084008 0.516456206455917 0.01603879863041754
Ni 8.348388352254553 7.290483014969008 0.15261765506911212 0.43585443634244936 1.6183680293556 0.7129000579423851
P 0.6041474953774906 5.768724288747257 7.7095200290103865 -1.5037361662406168 -0.05230009495529703 1.2766460506232014
P 8.938340632217706 1.8068083964079544 8.072663382357813 0.17055001443884177 0.18534079959477112 -0.9600267804957014
P 2.0624422641602473 3.547031269692179 10.320533374919977 0.08087662104140911 0.08158033197665304 0.4209530937505847
P 4.162208781965005 6.629627379324613 3.52177785784371 -1.2420181761366869 0.051556789031369274 0.19009554067093712
P 7.3776759621093255 4.3357947409507736 10.139460748788174 -0.8259949155875518 -0.08071644131446098 1.0527644146407547
P 6.891533467002553 8.08100997994583 10.458526758371143 -0.7385254718199733 1.059703307852433 -0.7250397786287126
P 2.567619583215291 8.779808001053494 5.68988793838614 0.5148078722192166 0.6060756066869626 -0.631171373313326
P 7.107334193140077 4.203160014957825 1.7526136891982116 -0.44928973591174887 0.2944782152540864 -1.5793852203344994
Ni 3.115666161936069 1.8571497789416365 0.22159662095577468 -0.06514455501813296 0.1180894826462805 -0.0050846136117589855
Ni 2.0896127936642515 1.5370302182146343 6.817833973858805 -1.267552058741733 -0.026227309127645152 0.3662629012965563
Ni 7.280292930133281 0.9243434135644568 9.208139717810779 -0.6120279676156557 0.07149980781219945 -1.1163899619111999
Ni 3.084086898136501 1.9510330940026448 9.115142694695786 -1.3270093335671016 -1.0820783331135237 0.4443966694855056
Ni 6.708848244037693 2.137854346048912 2.5202897752633007 0.3381031510328887 0.3600580580374251 1.1900394690765506
Ni 4.333549468020868 7.1911092349296055 10.456504194699466 -0.38664506449733416 -0.043487638869989624 -0.4398622719502618
Ni 7.4147911417563135 6.299544988107016 11.431436243525111 0.15536610760955177 -1.1656013906388443 -0.540093900479515
Ni 7.787470087425487 3.7561052672137896 8.057203723767161 1.1247912986010178 0.2514266354802509 -0.6902843774253983
Ni 2.8316618617374747 8.740492999345626 12.200655841102336 1.5479465422092438 0.05640871780703189 -0.06446012735659866
Ni 0.337994478497719 5.016157889581317 10.205090894644968 0.4207931711339527 1.2973853400530817 -0.7081630574780321
Ni 8.554562584332277 2.2603717085965758 5.694224860308642 0.4442876547114671 1.719425239109942 0.8488551080151769
Ni 4.150718802275122 2.9324809794119173 11.130451498658237 -1.374033267725124 -1.4136621949706556 0.8743432249839523
Ni 1.2522259827211741 3.8106826707407353 12.44998021921638 0.1114354676648726 0.1217083103457904 1.020070009731527
Ni 3.5106160334281973 8.800742671327072 7.749207727844271 -0.340259278143943 -1.2566104721285647 1.166174489533495
Ni 5.926475164964215 8.116698002305387 3.226952614747301 -1.1223829462698411 0.9056998849183627 0.6883015426674145
Ni 3.1883057408141213 8.763391147161144 3.4508254152239193 1.393740259235748 -1.5771727860642129 -0.07402360267531767
Ni 3.7616684535826255 4.342676002521377 9.138504441375375 0.43054125165965207 1.6970504709591676 -0.3137931135326144
Ni 5.7281821135756745 4.379527567128012 11.563229219423688 0.0690210072544037 1.3911583574411848 0.0009423093086112803
Ni 8.181801827098855 0.02312903823017332 2.542268906507105 0.35063393651004776 -0.5530702581345249 -1.3994424518268478
Ni 4.829554801706376 0.4012339086437231 1.5660596882618198 -0.24794767579271496 0.4524889595753368 -0.03537657972708101
Ni 6.249858098087315 5.677758919477745 0.304151761420634 -0.0373316465709228 -0.00046819788567016145 -0.038919816993649096
Ni 8.689642567078847 0.3520597044266403 10.940331422538032 0.34571927281724973 -1.8702011562456502 0.047754641676459694
Ni 0.2401114869623841 5.235403791591044 5.438448276827607 -0.8019293899979157 -0.6448157035696378 1.376334662164791
Ni 7.4426707048171306 6.516736510836748 2.3377936279135896 0.8900506084168801 -1.876555123488136 0.37589733906252687
P 8.701487063547138 1.8636674335600274 3.5235740761876344 1.1123098783045553 0.744669379934182 -0.19219381796086255
P 2.1717879648640497 3.5872461986067705 1.3837226189537009 -1.0405565597206532 -0.5281531831778711 0.4953289375589986
P 4.886804716332076 1.275533188357931 8.389707737286487 2.237039213319386 -0.9791069370556041 -1.8278921110647939
P 8.853292966095436 1.8144350522305908 12.406448285880238 -0.5860040327480681 0.9987301106031701 1.7096560755383203
P 6.488047922307261 7.912060009600757 1.139982334608246 0.09979454099183459 1.1905549752603883 0.6141766385275422
P 2.284424308485366 3.4596474289019508 5.765882700415724 -0.5789319563926352 -0.8471047009829733 -0.6013409202154547
P 7.1450402340844095 4.37569151378218 5.853824677877596 1.3755414768395342 -0.025530283060620548 0.8867487977371566
P 2.5446941648783556 9.012316466645135 9.979209165757382 0.9851428588370389 -0.5872970405278788 1.566243797856535
