# total energy = -340893.61567060254 ev
CRYSTAL
PRIMVEC
9.04513179782217 0.00000000000000 0.00000000000000
0.00000000000000 9.04513179782217 0.00000000000000
0.00000000000000 0.00000000000000 13.23846468205064
PRIMCOORD
 96 1
Ni 6.532846463382575 1.9688809805799592 11.41800367291426 -0.08290290744281852 -0.24571055893208008 0.09750368807512885
Ni 4.623889481168709 0.34047413876179705 6.000162368744661 -0.12380350231192226 -0.632635359453362 -0.08871797146269883
Ni 2.6917046004183693 1.560638000616914 4.915270262416271 0.3853973081331621 -0.060219606912689835 -0.6538929832805577
Ni 3.4337219899975864 4.514036355107398 4.823236046057784 0.5564535727844611 -0.04348455354619608 -0.5721648128721307
Ni 5.047925261304915 4.279658899158393 2.8034436364659934 0.46047969109029735 1.0856195134975626 -1.2493535334558354
Ni 7.047722502475863 6.11397545352064 2.6613681327776093 0.3414255305379023 -0.30459627752469476 -0.5805864612769227
Ni 5.434441834615076 4.63529539240488 11.427006292623508 -0.9880057822071306 -0.7334141187353369 -0.43449663676297434
Ni 5.611961591887969 7.736518336374162 12.46221439432924 -0.25254635090699085 0.3613451522799648 0.27655325534454955
Ni 2.0128312761363123 6.539087604344479 0.31909054260522696 -0.5494982245125505 0.10808557735603322 -0.8906517323359887
Ni 2.613057179166571 1.600943108046243 0.11896066929977334 0.4979807733595488 0.9256079366961993 0.415915017106045
Ni 0.4147817057621162 9.280576610348804 4.724967020329674 -0.5544049177855483 -0.6555734563067742 0.3025622778138015
Ni 8.358515871716447 2.253350376597103 1.326454110489046 1.1965721279887456 0.14920908686922046 -0.044727424814361684
Ni 6.7761243290511635 0.8877028053804931 4.858953462623523 0.3559229528231289 -0.3135748268742212 -0.03199892150409973
Ni 0.510093877895377 7.424732642233909 2.3426656263278396 0.29368965791452006 -0.1470359904773016 0.7665713222135959
Ni 7.666626602732685 3.913593368913247 3.7491329729748397 0.4260649610558533 -0.32865074737073724 0.1451655129274661
Ni 7.595956987753926 3.908898945494077 12.697051342975152 0.6094509509170988 -0.6233583050268103 -0.17894723736360152
Ni 7.819824000517815 8.67053673928425 7.005596610009388 0.7450648156003878 0.04979789735873359 -0.1968338878360352
Ni 6.821838425314142 0.5724908153034743 0.36530121660560805 -0.1478083498669519 0.162634616246507 -0.23602084244814192
Ni 1.7053601098784181 6.452371925501351 9.151472730216167 1.0482032776326335 0.48263128748667206 0.2845984942465292
Ni -0.039476573353806735 4.966175359835822 1.6035616737106935 -0.15809173407083096 -1.2941159252731904 -1.1952721782303994
Ni 6.422812434684689 1.9656518685170619 7.006920817309131 -1.1345486350980976 -0.47046457021715105 0.04490431671185815
Ni 3.3816582111907603 4.223488630501271 0.5977999986737628 1.5392744683565425 0.22722149898895708 -1.3358536713316091
Ni 5.865813216664475 5.426626840714955 4.732089157131706 -0.29890282668434326 2.2112783023051983 0.6397472879077949
Ni 5.175479710355273 3.1511249362690137 9.237562485936738 0.8831405115606082 -1.1527541023625307 -0.18465071550628198
P 0.20503233475668703 5.427856978643678 12.65045172830613 0.4798256997170768 0.9203757417629828 -0.3889210050157044
P 4.022379169418754 5.906968566485716 12.625034003353896 0.07601132252930778 0.9521700034554441 0.6753814921716368
P 2.45649499234111 8.305556624858566 1.697052156293625 -1.4059938797921205 1.0819636619125301 -1.0117391212683284
P 6.19463993917027 7.639916328442108 5.94126408832796 0.43247446412662294 -0.4113934750866076 -0.9457221909475714
P 4.7065258055570265 0.9887504956064237 12.487393327801195 0.4239710546413021 0.32523452260033664 0.3864571168562441
P 4.148034140785054 6.265146741776109 8.401539945773527 -0.5474531690580636 -0.39762701743013457 -1.255053669164406
P 4.614247370639161 1.0165823662437767 3.740131257778774 0.5905872812433764 0.1385400371911485 0.7914423744236627
P 0.2798283388757638 5.538442760383124 3.6137960924989443 -0.5323597650600509 1.5190617408540934 0.8304984598848599
Ni 1.4727826351633524 1.2675938196260264 2.708709448256596 -0.45734577344700583 0.07166872928989593 -0.6937365976400568
Ni 1.7749623993013726 6.389254995599678 4.971705553435978 -0.4861590981342725 0.7753922629393355 -1.5279593004540395
Ni 6.138080729844509 5.586978937776701 9.239508093793122 -0.011404385182199713 0.3321438481256603 -0.23219375539256784
Ni 8.72218444202695 2.2131990364088643 10.071281231023141 0.14854137137823448 0.6261446095226959 0.5855273502219659
Ni 2.7221233787587718 5.134333405665862 6.996131784063685 -0.9252487535845678 -0.23083749847498958 0.9587810810140585
Ni 0.7610673417239455 9.215180307226262 9.090615274245339 -0.8463724508026391 -1.2588535025264707 -0.6172717325130982
Ni 1.4048446499969052 0.8815077945909178 11.313049390251452 0.09938984935424819 0.9099563462018716 0.5314673351527686
Ni 4.191297006322415 7.047089343247843 1.4177068274575213 0.6209460960408918 -0.17623549485939324 0.1220600372582543
Ni 5.735165332528653 7.945876957684584 8.021278081123011 -0.9133568872429884 -0.875816467095369 0.7031062117804149
Ni 5.2686536133241955 2.918864041167957 4.799763928961934 -0.44452599597451825 -0.6434710166162854 0.5040922855739254
Ni 0.8449781251869484 7.3085388787605785 7.042518838134728 -0.6449062064009151 -0.139606787892766 -0.023750308342062324
Ni 5.159478872150048 4.5243206699967935 7.149472999444894 -0.7858710509834723 0.191910739502805 0.11988051310843227
Ni 8.253447620392595 7.102689768599747 9.394371604861126 0.45560590793776373 0.28114961646598036 -1.1733126432401726
Ni 4.728080354705162 0.17126866666597818 10.371476493237912 -0.7673948465561559 0.08806413992878383 0.18502378257498459
Ni 8.04184580638862 7.185986387611572 4.627320299671389 0.27068008439322416 0.037447603323496795 0.6134829548946273
Ni 7.263403670934648 5.843987313561475 6.958018312076486 -0.2912800200317629 1.507137992833314 0.2939794212407969
Ni 2.3288320017088058 5.452197428395097 2.2791344293884057 -0.044393695624026765 -0.1790631941161755 2.591130255140099
Ni 2.498428223499631 5.071460694323567 11.32199864368291 -1.162945955293868 0.3862411441906961 2.2074152198053665
Ni 1.3714590684166421 3.6709396173408493 3.866650943747912 -0.5809374168584381 -0.8674261861491448 -0.2407958952392821
Ni 3.5484956677737878 2.607829092969499 2.6989388968550787 -0.7500630401459276 0.2381905964059511 -0.2087920886391759
Ni 1.1392343538429013 3.5230336216755918 8.167590324560026 0.27788354412019883 0.19848402184494848 0.05628993284098048
Ni 3.772588808833398 2.5273274196927877 7.115555564113095 0.1832242674724006 0.5495262495370085 -0.5121367531449567
Ni 3.776288267751395 6.892417588974611 5.965410972258242 1.941870399756178 1.1290001944760428 -0.014196088994723938
Ni 0.8616410670420448 7.132303530207383 11.464258668060602 0.25620194538170715 0.7013015544715084 -0.5829235940505316
P -0.016064154128026937 5.467619378163276 8.154390763682194 0.6942706157666558 0.4385273551889222 -0.5747937658545456
P 8.357068650623834 1.4698339221871493 8.003684395202727 0.7478261803956089 -0.3295308359828454 -0.6703351879969811
P 1.7762468080210685 3.210063015265761 10.304807540067053 0.12464065350123694 -1.0178912569126535 0.9319418493340272
P 4.1508200413883385 6.181153647613463 3.5005808909368525 -0.6719727236004039 0.09158886525259065 0.9876625399350989
P 7.081795514075118 3.802808594273566 10.26906389261901 -0.16577933252307578 0.10484598737281298 0.10276210826059076
P 6.342518799440041 7.527005947822649 10.314789747553364 -0.8002206348369251 0.980544697943395 -0.2334926767096495
P 2.1209567820183133 8.590396871280692 5.835727299175375 1.2583048291118524 -0.4967111626185059 0.09270318136269197
P 6.879700133623256 3.878208813198809 1.6318919311118156 -0.4185180019465308 0.9816353599044126 -0.7358070444475456
Ni 5.3346378500156115 3.0707318045742484 0.13179118879898857 0.21600351878595056 -1.3151557766626254 0.5374608337320421
Ni 1.3834348229580316 1.3268575233686122 6.9743013583947695 -0.1146110371793768 -0.7811587331094676 0.38874694133168536
Ni 6.812322946630198 0.6338973107763133 9.385740740070043 0.29085655934109905 0.23512584143769832 -1.163765880092002
Ni 2.782210189497782 1.6630922088422302 9.139571145755774 0.21755106577872854 -0.5941423455844864 0.5216130680665081
Ni 6.197036899104913 2.0119358080852563 2.5409647649511355 0.14134202541631785 -0.1839611456384251 0.13452834492859414
Ni 4.078730340712452 6.823991166689407 10.67336681315741 0.08843489300464125 -0.2924596421621608 -1.4943560105772973
Ni 8.222657991647212 7.249193768831534 0.20289406559234832 -0.2633259580209982 0.4096968041104751 1.1293868883915001
Ni 7.7966955984314605 3.5220929279653923 8.099107822457482 -0.8911276435311426 1.9515493176068388 0.24009655517941225
Ni 3.1097886838111966 8.400892314334582 12.328188153455345 0.1256760367442868 0.18129156922606196 0.30560749239802854
Ni 9.211109997903284 4.833239057347303 10.282011094318817 -0.45973767071795013 -0.7128933730741658 0.3365540613782139
Ni 8.619024713518984 2.528485196566879 5.820555899558854 -0.32696513213819817 -0.39907429139962236 -0.26738675835393305
Ni 3.857766815265622 2.63152733836107 11.284996818397474 -0.5570048173022407 0.2213845805922058 0.04445077411420732
Ni 0.9699366214024281 3.397107296354426 12.439113127638374 0.26071757386387356 -0.8348042863490656 0.19073420269620053
Ni 3.1125655392826515 8.340941180573004 8.008145454220713 0.16052605454393645 -0.17728656183172695 -0.4603822462804846
Ni 5.656590272331485 7.984626302439353 3.8625869660172127 -0.3904235577031599 -0.5181122540021013 -0.8777849036756497
Ni 3.1750493099563055 8.351505894549094 3.760954960275139 -0.19904812187853463 -0.4265439575748009 0.166869480263461
Ni 3.217461933101755 4.486104988019927 9.347057424777624 1.57387226093607 -0.5023033119943027 -1.8536789902209108
Ni 7.408469495205647 6.086794832374963 11.544735919481376 -0.06318100353385893 -0.7245286433202489 -0.6008241284800362
Ni 0.7820420979218519 0.13803413878725668 0.5120376767253955 -0.7733628912141326 -0.6482936348159093 -0.4706892846334475
Ni 4.3554118782249605 0.6496539304221596 1.4707800429764464 0.274052857520199 -1.2434381964126648 0.06366797047260647
Ni 5.981988889874147 5.494465329431286 0.34526353606516996 -0.06971623354921543 0.9003329641794946 1.2899214275758688
Ni 7.963234565664136 8.618246832181704 11.25078903433397 0.6453278673193661 0.9942803023619329 1.1763689135679931
Ni 0.1395455803158565 4.859325217541689 5.81957631178179 0.35450833186378944 0.12440771155482444 0.4620483211289978
Ni 7.747444855623405 9.07678979024495 2.7190751693324513 0.19893165090532836 -1.335029632768417 -0.7144450338320019
P 8.40138075145334 1.8159006659587205 3.6324625310541294 0.7164391814438952 0.5286154675262702 0.052280040350639
P 1.8078957242901936 3.2988771646931805 1.4525378211040338 -2.068572049551502 -1.3433363528618993 1.2581551909078654
P 4.76479454479844 0.8840006329229472 8.19462260554371 0.43007845309062065 1.4454613417591233 0.3337785555156058
P 8.59637570341956 1.548354711593344 12.296891997327544 -0.8193411577164599 -0.2583303045786196 0.9978407660196814
P 6.322827547448647 7.742072047317071 1.448632133180339 0.6013571181653707 0.2882615449204132 -0.4611463781400187
P 1.9650820252118446 3.275133693642465 6.056358868284086 -0.8424422625102975 0.25571369289137896 -0.33786609532141815
P 6.8252846205409305 4.003800468642308 5.92381602903012 1.5028229103977278 -1.8466634781350262 0.36443793227267557
P 2.5519663587945587 8.525371418563132 10.109302442665687 -0.4359973896782169 -0.6902316698105919 0.9802724181186149
