# total energy = -340897.2316190203 ev
CRYSTAL
PRIMVEC
9.03228972416324 0.00000000000000 0.00000000000000
0.00000000000000 9.03228972416324 0.00000000000000
0.00000000000000 0.00000000000000 13.21966900915665
PRIMCOORD
 96 1
Ni 6.264904562482594 2.0394007040866433 11.360520506122048 -0.44298976183565003 -0.35072212534847985 1.1274019967509874
Ni 4.716508161840983 0.3615977848768071 6.002166092218031 -0.5179854986162499 -0.7260445657441431 0.14059614838922882
Ni 2.80567307014625 1.6862652714825623 4.7132484084679165 -0.5106514268486818 -0.7610802171920376 0.7534913491011862
Ni 3.3509343381576877 4.227581285039912 4.808469516766302 0.19802790814413637 -0.19761756007959516 -0.045719870634618034
Ni 5.0903456025666225 4.642479514997925 2.529610166033118 -0.5506822175183226 -0.06473009318853368 -0.03311580871736232
Ni 7.320192136165942 6.0751993807299405 2.5526524404305464 -0.08567584220226536 -0.1758259181258004 0.26237413563069006
Ni 4.649244700025433 4.47568022006738 10.891724796729932 1.0891470670348469 0.41872471864069816 0.7902938626415165
Ni 5.561966612194525 7.784126667211189 12.462948503272772 -0.7366066575307056 0.17592079183245188 -0.4849257399478036
Ni 1.8607329804162511 6.278118802396137 0.4287808593135265 0.7867745366343482 0.6717521229491656 -0.3056008075298092
Ni 2.711954031634345 1.4859652138457076 0.42470007080160677 -0.40435225196911 -0.08407790158752616 0.4157692355568001
Ni 0.7065246725503159 -0.052347538511911734 4.715575126309153 -0.3236211553666298 0.15671567965891076 -0.18097429509595928
Ni 8.717966072830631 2.5035158809270177 1.3413736097391031 -0.11815607421815781 -0.1765273150681992 0.9863723603687656
Ni 6.883498991025851 0.8572139754714334 4.694833376112666 -0.568815951004556 -0.848289465319694 0.48963188717422124
Ni 0.5990639084030976 7.280937804884837 2.475581718397549 0.8820879019263775 0.3573234327150814 0.03612914162238939
Ni 7.600996992401158 3.8163230678537077 3.8419666417009655 0.38203584786009687 -0.5748523870066229 -0.4966666825338156
Ni 7.527383830886892 3.74457055802925 12.636245627454038 0.6258196220831093 0.5236329267100144 -0.23940827086313607
Ni 8.092516136362304 8.86582465614211 6.916874204904547 -0.24310963097412328 0.3567274510022953 -0.21482569642776553
Ni 6.697108659613778 0.6507584123656251 0.20899273329836748 0.9110956020126373 -0.34925351122275333 1.011708010920077
Ni 1.6969595025540825 6.740761716006225 9.155757544405095 0.8137585214223597 -0.7956044762211524 -0.17524227770818854
Ni 0.18769007790801207 4.975346489388754 1.455670914002904 -0.574774739691152 -1.0670666901960397 0.08351508710552069
Ni 6.418850909089852 1.985604386297813 7.001757857576789 0.5616220043592779 0.1641924476519301 0.7090354327806563
Ni 3.492741287332409 4.212894781896084 0.512016119105234 0.035370151969177796 0.3249275328828791 -0.5046471296361308
Ni 6.016977240960497 5.495922509496082 4.581699430769484 -0.4126072928890507 -0.0560140534717745 1.2290148218984835
Ni 5.540867183323688 2.7762278055405436 9.29274034762095 -0.4943331493046325 0.5858687927217845 -0.6982709951753006
P 0.19936431241809657 5.656832751505488 12.436562475207541 0.1957116013061339 -0.9783960270315085 -0.8719544130368015
P 4.0520748627842424 6.014394006090181 12.523442263915936 0.06828952840501788 0.37840904974078704 0.36149993269027425
P 2.33647271417305 8.349566070538316 1.4476330793487269 -0.7556536468598276 0.6010735254866809 0.1077554477101241
P 6.438577429917725 7.8849541177613425 5.87446396672683 -0.3700084843819176 -0.1034737896156347 -0.3402541359376205
P 4.634449809404529 0.9011307747247664 12.64107067664188 0.07576346818455984 -0.26160151913072366 -0.8388815417422326
P 3.8963491550949834 6.087645876014193 8.220413359312243 0.6741242227257681 0.3371670123718645 0.6611036420963841
P 4.749548277769718 0.9329632735130766 3.824675226191406 0.7115615416366198 1.142800847804561 -0.5717027856340476
P 0.27618935616972135 5.553729163936732 3.781896495447373 -0.4426550042040505 -0.805169237091452 -1.0521697184795493
Ni 1.4978788040343356 1.1719305635968729 2.5697848876403944 -0.2979558893900417 -0.4051076420778959 0.34466049253543224
Ni 1.9192983471964353 6.457075559338732 4.82921126696279 0.51960529360786 0.44471934293224696 -0.2213555271264833
Ni 6.125473105513794 5.633583637672639 9.11686540794322 -1.2007411717647707 1.2570622149540027 0.6335807540857669
Ni 8.348455098898285 2.308833907518614 10.188650458866544 0.8420697096622272 0.545064357110913 0.6805581512765699
Ni 2.4447427714824372 5.203764065037131 6.864339697994678 -0.7888941540805123 0.01506203653944503 0.5672378078841587
Ni 0.5886596138327561 0.27545141809662743 9.303857289853067 -0.5697860282273091 -0.29088484147587323 -0.17070376640788665
Ni 1.3321633838745515 1.0084912804556894 11.620683870577075 0.26516275411942075 0.594007362668519 -1.1418415692150852
Ni 4.027145743056712 6.896893876734521 1.5307716936400415 0.3718370529502241 -0.1622836606649915 0.2604234396622224
Ni 5.774884778621004 7.92162521417213 7.959060442296305 -1.0976995845905482 -0.3669434723033487 0.21174500061991272
Ni 5.267748805671126 2.739186385249745 5.090722249049463 -0.364752635299617 0.5918774608097097 -1.2705977875465924
Ni 0.9410742697142805 7.4561642261580605 6.886495904767008 -0.15169945739124194 -0.32760019461903583 0.15740524952676763
Ni 5.065425515128849 4.41861421338675 7.101394852337054 0.8120906468016336 0.4291379435542222 -0.39753985703296696
Ni 8.244448282353895 7.375171683912854 9.15952491246247 -0.4632788511019892 -0.5810284339103476 -0.380136573954855
Ni 4.630927216399552 0.3899727231463859 10.306225581082924 0.00789791469083801 -0.14104532011150547 0.5991963630686261
Ni 8.081623194916144 7.052276357413038 4.738484626047163 0.24622426534370495 0.7791031361320194 0.12311341822343312
Ni 7.177057440397037 6.10924208082163 7.000263916851087 0.05505323222040196 -0.4613991175807731 -0.5496666317696147
Ni 2.4154962172513703 5.112149550038456 2.5979954382364077 -0.21221345561589905 0.4977568302742008 0.27453005426693367
Ni 2.4340395081211605 5.358134929262937 11.267546631515042 -1.6627468125812912 0.27389961977178634 0.20644749966639928
Ni 1.0624863086191596 3.4584908445763234 3.8127507972550707 -0.20511052602253063 -0.5800958947937493 0.2452143360219519
Ni 3.774882922451566 2.664697091629113 2.706211301807257 0.02216136658838764 -0.1794167208008523 -0.39146202627000326
Ni 1.1614982689282867 3.454615992270848 8.184547943147722 -0.8635327646320095 0.1904074154844011 0.546884183928471
Ni 3.647518604597251 2.552588311173276 7.00202250366665 -0.5480800040087851 -0.4947756361586898 -0.6379865964629464
Ni 4.3579894845421165 6.65004139769343 6.069480134856218 -0.03562751939562251 1.0206742189744293 -0.13449980568350384
Ni 0.698686451499754 7.5009824479290765 11.29804506110634 0.47528564575487825 -0.22910766026807639 0.44840579064489877
P 0.07869834064709211 5.669640538379994 7.9719892618535475 0.6798840080276807 -0.2291896784589214 0.9274059091368867
P 8.556550022594871 1.7610165015061288 8.052298962993172 -0.3927074686413301 0.020408388453022917 0.04283689265986816
P 1.9838972835338626 3.422876526067029 10.430067305932262 -0.6717737202157205 -0.7573441471883732 -0.7392613215447333
P 3.9189118149063495 6.125518266962575 3.8224279925000255 0.7247217331676615 0.3075165364952833 0.0039772394801931505
P 6.81824069753621 4.123231241484781 10.533776056914691 0.37178228845288874 0.008764890676823615 0.2452197353385906
P 6.36988686632067 7.893959310648426 10.218037013588834 -0.8100427631336695 -1.227000619681932 0.2885338247451934
P 2.5884465015059925 8.468783263032401 5.793149874966298 -0.531970242931116 0.4533801039310385 0.1725145943643803
P 6.8968577475754955 3.9342396106228783 1.5823677456442244 0.5577208695326588 0.45261417229929146 -0.15657349765409162
Ni 5.31655929951445 2.7065978838088283 0.45571063122208894 -0.3594985859895293 0.7627689177483702 -0.31173083168694704
Ni 1.3733415928737587 1.1040529060778899 7.0029474101377 0.9509965519726331 -0.38203019143314204 -0.16079087816954887
Ni 6.92549010610313 0.6249459346999232 9.059795788346687 -0.023202149148076168 0.6431763681940019 0.46317395009300877
Ni 2.6940430010474996 1.609590163740893 9.137210640619402 0.08107459598482811 0.11890863611346618 0.7738496010425641
Ni 6.449470371363884 1.9292970919567167 2.3677614691180278 0.2198455182398601 -0.10879314494601908 1.5660352813901544
Ni 4.097922765587484 7.027645303247468 10.468827570963693 0.2631086998038695 -0.3467510565158738 -0.9665532687603096
Ni 8.036913360622203 7.050099575581758 0.29833743388127126 0.011771281603315212 1.3532471842177083 0.9471866913082397
Ni 7.645255212207282 3.93017508023252 8.413512875555334 0.4401607770272871 -0.5249287627033025 -1.285860370132618
Ni 2.906030841629074 8.25441089795515 12.528108344804068 0.8618476636201028 -0.17538111727889796 -0.6648947337077001
Ni 0.03808555298663245 4.820614333572693 10.263512786054113 0.6758944272523134 0.1563158731173308 0.33385928815487015
Ni 8.5942056385891 2.2807254217968476 5.891741833801754 0.12376596420576746 0.5484407297823135 -0.9157953214811518
Ni 3.526648503077753 2.5361676083962292 11.664177055440836 0.20210773464046483 0.14301504224336659 -0.38364715821127476
Ni 1.1189110227270884 3.4174661845029743 12.641559323517699 0.0816564366302271 0.43317071886269914 -0.3760078964984621
Ni 3.224735185681942 8.367233229301739 7.952635774592612 0.39308619213698753 -0.07227988051133358 -0.018659009862083995
Ni 5.585342178083964 7.76679370316875 3.7867477382755097 -0.1495682699808521 0.3765429430663257 -0.3629302373788975
Ni 3.1451245837694586 8.39300235197661 3.605585296174413 -0.2541643461263881 -0.2980193956381254 -0.11814219026108687
Ni 3.491639347982134 3.992281104597194 8.864964782157303 -0.4797349397754834 0.9130959202721178 0.7103554371436605
Ni 7.2784719897813535 6.236507043488625 11.427584354333986 -0.23376907029948774 -0.7920895210893584 -0.7717693214747676
Ni 0.359842810977148 0.08397771400967965 0.4288007303509905 0.3603861308008051 -0.7005407650460839 0.6711697680831344
Ni 4.59379547321119 0.41307370742723093 1.6454655154241462 -0.08176930805900756 -0.9444088714527864 0.24687012645781997
Ni 6.011855932668646 5.648920465678923 0.40966853418908633 -0.6240848987801897 -0.6969335073107997 -0.3586295531210146
Ni 7.872155363176592 9.01916583933569 11.323809667636334 0.2843722371683361 -0.4076941718581495 0.04108082920070989
Ni 0.013872693836780529 4.747913433323819 5.945440602861217 0.3968687991078714 0.2658600372967615 -0.26486296349081484
Ni 7.763957564185255 8.740293893108333 2.5352020566212747 0.0987982385168363 0.24112448222329438 0.03308341281753012
P 8.533481554557149 1.614855988668846 3.5850819984274946 0.5983448137016082 0.0886709202748473 -0.5086673065391176
P 1.8768646499210953 3.18800086324286 1.6549440002944618 -0.35983797160681896 -0.06265341316516307 -0.48411789933452753
P 4.787899380075188 1.0689624603744636 8.23652786746655 -0.25360821651260196 -0.40572342128502387 -0.9965207616566774
P 8.463517438104448 1.6989375740107238 12.534784110162988 -0.06261947460343409 0.5032489637370235 -0.6418774468769204
P 6.143790589139675 7.662326239846787 1.4771786023707287 0.5614438269102008 0.404811965214348 -0.16386771732265973
P 1.687358178543081 3.1726279060775493 6.054000596671783 0.882022853016397 -0.16298274361454512 -0.7348706486762053
P 6.919348149068811 3.9974927357866097 5.978872720165377 -0.165659776226076 -0.2059322505928776 0.3005624737749534
P 2.4544524829705154 8.603012121101544 10.079627108591476 0.018570049692703504 0.06762078447276743 1.5033718409226626
