# total energy = -381166.7655305105 ev
CRYSTAL
PRIMVEC
9.32483200597295 0.00000000000000 0.00000000000000
0.00000000000000 9.32483200597295 0.00000000000000
0.00000000000000 0.00000000000000 13.64783420920556
PRIMCOORD
 96 1
Ni 6.970563800021346 3.8103875103844045 9.433505605362154 0.7089287319994629 0.12204743885276399 0.4804823594644693
Ni 7.600707981989413 4.141978541516068 7.040399332933362 0.10052781961343332 0.5393205126486001 -1.3720368061203854
Ni 1.92718170939379 0.7050440312188777 13.530859230157647 -1.8713147010248028 -0.12624707875640837 -2.4954371379111477
Ni 6.963710048393625 4.88697668103331 3.4148113460294773 -1.097938954294864 -0.07719197310097028 -1.1238109369656193
Ni 0.14172812379556116 8.995618947625427 7.1568291871153065 -0.9021887864413107 0.8464267010793423 0.9764867258239376
Ni 7.000766931344054 0.7352163905955009 5.80011086898517 4.164923326098801 3.6866426022713408 0.9580855976089306
Ni 0.1976062479506056 2.167137615021211 12.514996163896782 1.043071869943339 0.9227074752199528 -1.2945121322703448
Ni 3.533309447981529 8.398186276827493 0.46629848880407987 -0.9475391895516521 0.32403690274780966 0.208556318479286
Ni 0.32393627642255274 -0.05345273531372427 4.769809232628573 0.8830314967865696 -0.6464846066316285 -0.24787954155894082
Ni 5.714471610551166 8.524388555099032 5.709612440519593 -2.2119303340669005 -4.223845040135674 0.21592972812522168
Ni 4.748446974664018 5.2340376086961165 12.996450302388666 -0.7620217551697006 -0.7136130248490097 -1.476818001693534
Ni 3.8401430497640763 0.001286826836225241 11.281013151446095 -0.3288620920505949 1.56657418461276 0.051249799313911736
Ni 9.08600454562203 2.1302206045529815 5.115235517216086 -0.7125125926959793 0.11353323073416575 0.509975998048212
Ni 7.981459528197739 6.410234636334573 0.9233551364677045 -0.06957790819913823 0.30725814062757406 0.3909547476162816
Ni 3.4053447764342897 0.3478749855092008 8.233779228768284 1.0501254343560107 -0.46487344928261876 0.061450136885681274
Ni 1.7855095345911083 3.062545297062462 10.679089641486376 -0.7064579018614672 0.7044717246693738 0.7951709882281596
Ni 1.9689662822425242 7.863397828390146 11.827840890667863 -0.7375137427260073 -1.2320569511589168 0.6494359759504685
Ni 3.673937241583796 1.7820873211933208 0.762090556841886 1.17512655652046 0.6636053254723152 -0.42529183033525464
Ni 6.618234342195734 7.12746342571936 7.93857649012214 2.6883588351769703 1.0771143042400286 1.4952839217082055
Ni 7.28499714000334 8.587872012352811 1.5507484929525355 0.8671215104245323 0.07477333635714865 -0.8003273356181184
Ni 6.357306889070699 2.844857090601025 4.4998823839988935 0.05773103616288122 -0.15848665551640448 1.096223514265654
Ni 0.4072452593031319 6.614952001280145 5.2734956359242835 -0.3832393812498948 0.5394007310672323 0.005207512342868451
Ni 5.552825645290554 5.051140350973494 1.4447055692986437 0.6268115536827334 -0.4280580802264822 1.8303027773888154
Ni 3.2356235065347567 6.1400476248880045 2.3218244580508465 1.4968291547081383 1.1053882114840574 -1.6870905315329785
P 7.997600812643433 8.053251410894102 5.904721498421351 -0.5219681374130817 -1.1756837145755108 -0.34310934599822845
Ni 4.241222730051903 7.2043746412641845 12.038304217182146 1.9434290024925498 1.1989575975017868 -0.9086314567428609
P 4.965398519385877 3.4245632554883496 0.29876109459327077 0.3183326532741808 -2.590498792203687 -0.2894645640895789
Ni 5.974541179118717 0.46140295192713604 3.687986033695803 -0.5230955661493055 -0.24254218850642745 1.0476679739544539
P 8.98075516518381 5.747350968699936 2.8100344374329125 0.23569919744266504 0.9973738536855921 0.8144738023218296
P 0.40163077786768825 7.830145476955514 10.012338033477347 -0.33975431348306645 -0.32293904169794063 0.04007347098211808
P 3.409699473046733 1.6862187218945404 9.99523722380377 -0.030096305164748167 0.053192010641947104 -0.21891683577800358
Ni 2.0089231879905323 1.1558595687268098 6.062368043174304 -1.6612823122206226 -2.322765706253929 -0.472803759873289
Ni 5.381789574058355 5.015165148552066 7.745077830732094 1.3185354917681356 0.47467140920964707 0.0914587674326296
Ni 2.053794280279778 7.767613152580685 7.335001552389266 0.9613799520894861 -0.43219472810267506 -0.6975953092645146
Ni 0.0019339701871964854 5.335370559632781 12.62356425209596 2.283768756165441 1.851222558260618 -1.7636070758334788
Ni 7.601276796750353 6.6194092710462 10.153497342511967 0.860838248518982 -0.20924074614082028 -1.0447636558234652
Ni 1.24156410098584 2.7433096685249896 1.3948494217438476 1.5883036058700517 -1.8619607706137289 0.1084398753716584
Ni 1.4236127989831255 7.6279831160180995 2.9379963115305077 -0.49331242134960207 -0.4322574630198104 0.42208592180344723
Ni 4.708145050126588 4.742581655243833 4.0692793526518445 -0.36552036670357696 -0.31377897246522735 -0.031791690589300085
Ni 2.233922062854872 5.41774612681549 4.160528430105219 -0.6146180969403351 -0.46030691295785886 0.6426847732695642
Ni 0.849146257278953 7.688230856517022 0.2941108008017815 0.810793782367081 -0.7546234058231004 1.2373701358417142
Ni 9.280417971045654 6.523232952286584 7.926020603636797 -0.2540856703696527 -0.038775578106300966 0.05671570752448942
Ni 8.59080000964683 4.390681139696962 4.647442257818914 2.2396529967931493 -0.08504103683174387 1.8122739449115628
Ni 5.427770321373041 7.207815504326265 0.5997172546738416 1.5105423905291726 0.6610190528023777 -0.19142402967437355
Ni 2.3940947046363283 3.7089613111262745 13.11649725896026 -0.4585991862381327 0.6148461537907411 0.5907037522165828
Ni 1.1449401902831884 0.4666957266535234 10.870541500220252 -0.5198114960813951 0.173343775133895 0.14141735873894354
Ni 5.610070789838284 7.943022570089619 10.056257060404429 -0.6141648114530003 0.22089735654314216 0.3548322908621115
Ni 5.699952846898972 1.4872641032155423 10.347487420556137 -0.1153916240991432 0.08877453573224711 -0.9058677779547947
Ni 8.095157206560742 4.227692398607245 0.14533030645377717 -2.4205786980393604 -2.362995500308253 0.9067483807875351
Ni 3.070033137276149 7.6116833094259135 9.73340339699409 -0.6116024500424628 0.4249760988670487 -0.3971606193166773
Ni 1.96263472121501 3.813063737210467 8.374898441024675 3.9644150747349722 0.7756838260378254 0.4619398205755915
Ni 5.95531337523251 2.5839482871402844 7.393031847803736 -0.05137012694185991 -0.4740959963221513 -0.18049478435637947
Ni 3.4035917079907367 2.417434759499167 7.007616953038916 0.06251868735951167 3.0066624349854285 3.256364117354772
Ni 2.2934704409428024 0.42256036362064153 2.0591029072208142 -0.6996331656301499 0.16381835214196303 2.371449287502561
Ni 4.144216501231242 2.025791809343659 3.3359130087542206 0.9097786829734268 -1.440998935112396 0.7165363691433918
Ni 4.039079018778781 3.1394471877751395 11.57479665063953 0.95314188045041 -0.4833008027498709 0.208906245619537
P 2.842190188607109 8.66330990441848 5.295605745426991 0.09312921315651702 -0.6083656882727201 -0.1323634760667914
Ni 0.4913179459365143 5.580613645087301 10.310106033447008 0.565534966260439 -0.385779116952613 -0.43541194948839207
P 4.685150014053172 3.8597811462647313 6.108497987803334 1.0992461031420617 -0.4832822908071097 -1.9547050896270015
Ni 7.712773814726767 9.060128136415326 9.870291000422371 0.6447156876566639 -1.8501882034588328 -1.2318553766710718
P 8.619996059097708 3.6413842525601563 11.167163478319102 -0.26440993511379624 0.4603544783663427 -0.46287441657471895
P 0.6773324950457315 4.752680448458557 6.4612806324712695 -1.1432039967802505 1.6153112448071472 1.038318928639386
P 0.052748710486659016 0.10710502203538491 1.3132207736160784 1.8378507649394027 -2.5869632682466026 1.319553905730321
Ni 6.2610000226610305 2.598187305828081 2.1240671478194666 -0.12960288260251873 0.3005465329353534 -0.9487702337452758
Ni 1.7631765616000976 3.3366487380105845 5.420114634180715 1.1692664981952572 0.47902248708949113 -0.4476231468426033
Ni 8.695583148477722 8.16620310268538 12.262033049908123 -0.11437243880600947 -0.3023661026425954 -0.9221225492507603
Ni 3.3678962505337062 3.7945446205673994 2.1551020541696464 -0.6551749353167748 0.7656534383850168 -0.4756335160126002
Ni 6.035236511560673 0.30491641629321486 8.123818943129622 -0.21873094501944268 -0.5988019558436848 -0.5280865916059938
Ni 6.473121304330972 6.237445496658822 5.954195327858138 0.3380599564997791 -0.7243707775861461 -2.3857762456481946
Ni 8.545285503939473 1.762300027378321 0.7516420824216659 -3.127987393849871 1.4522847924388602 -0.11753026770870081
Ni 8.24090433301147 7.910525530058859 3.544888092057912 -0.3218599497011489 -1.4022917483501849 0.21529286587217117
Ni 5.620747722646094 0.8419652040428873 12.715073492366226 -1.0523381257366133 -0.1629539472591387 1.3002066115519608
Ni 3.052586376329936 5.106576478084792 6.796184776464607 -0.39478183467185557 1.3055691614154548 -0.9797507412871901
Ni 5.390713438422613 5.266665196376929 10.483475177682276 -0.18732337724243867 0.9197051980585192 -0.39138000807915824
Ni 5.983297196504336 6.802921967690495 2.9239260723045635 -0.6750675604756439 1.724369727599411 0.5420741641343374
Ni 4.509451526747694 7.36200160386963 7.556451396138625 -1.3493236807935858 1.263512341454721 -0.6503091225840413
Ni 1.0467776822763541 5.004059273465513 1.3150670903810973 0.6902650941516886 1.8927505023010758 -0.5100988967793215
Ni 8.69580694444924 3.5990774891112145 2.2414248227999938 -1.116106626342826 -0.19753477055780172 1.695961351660047
Ni 6.435029365012276 3.353051117756383 12.083901713895608 0.5357924448906837 -0.02657775048852842 0.10291586022963566
Ni 1.4791981234087679 1.5768943898082743 8.83994833480433 -0.6600770006040826 -0.47899960427135574 -1.7206678532677915
Ni 4.099447982095609 8.372673536074505 3.3380558551815 -1.0113187459014583 1.6026364775529562 -1.3281331627589
Ni 4.149195961597505 6.896813702574206 4.9084303223529 -0.4489133264089365 -1.307537083775103 1.4573339248269934
Ni 6.842636427802693 6.035917224307372 12.204084813016543 0.4923603418489778 -0.1503524564450443 1.4231547078421232
Ni 4.627242806423036 3.4327131587844426 9.213434904287272 -1.6020219838974088 -0.8422987949538977 0.38439792033437026
Ni 5.339268339470043 0.28207057753414355 1.5928799495571215 -1.2943020731420676 0.27886956218255193 -1.1139862375657137
Ni 7.99115735363016 1.063767526447386 3.066695779850895 1.6258879918817288 0.6737210737500784 0.22226621186621073
Ni 7.596558431684193 0.9916492746258931 11.669539742698221 1.0222927284144587 0.7850428986552223 1.5188923051557648
Ni 3.10220380818178 5.40573574301072 11.151577021386128 -1.5478642669080827 -0.6890065391542392 -1.0147056600958202
P 6.517638052998648 8.163181857069894 12.330572431151767 -0.8940738706436603 0.6457994076391458 -0.16786912517256894
Ni 9.278944647566497 3.900325516437973 8.4871787449014 -2.7608287202119226 0.12027234923021222 1.027523637796095
P 8.811565410716632 1.8566673287015054 7.429689627938292 -0.27404694398292806 0.05051317825820333 -0.5882982280988835
Ni 4.568552312892589 1.1630863136403935 5.785944583988117 0.6296024861643092 -1.152248366370706 -1.8302130458884867
P 3.7073481151649195 5.8673429087618665 8.792057861866027 -0.7694463297685459 -1.7378412797232843 1.3931139385056588
P 2.078934027746903 2.3821122953279987 3.524362271536905 -0.7446128156646337 -0.01574517864939869 -1.1976309082705634
P 2.915660541089853 6.389300388165546 13.477850356854098 -1.6676326799186827 -0.670025370066046 1.0362167946947187
Ni 8.543252690531522 1.839798707348379 9.614258151691068 -0.11631696412689001 0.8137130128964051 0.22046952497710415
