# total energy = -340859.044902255 ev
CRYSTAL
PRIMVEC
9.38008756138734 0.00000000000000 0.00000000000000

0.00000000000000 9.38008756138734 0.00000000000000

0.00000000000000 0.00000000000000 13.72870629987141

PRIMCOORD
 96 1
Ni 6.562900351031838 0.31833766678126196 5.712872107061983 0.13728071086275068 -0.18460983496601754 -0.49513096261557954
Ni 7.563024069490178 4.330336280258567 11.89909533541273 3.6277671680913715 0.7750199672015814 -0.6808381444108339
Ni 1.5445440127627224 4.053942613959929 0.7605759749380784 -0.873744672168005 2.343662604307596 -1.383599057036688
Ni 6.096372305588647 4.017425932262359 3.9405504849156845 0.4953965575721404 0.1693246266721729 -0.2072985348127849
Ni 4.92589681309754 7.276837591557256 10.096296870085446 -0.8943602915358275 -0.1558625876299961 -0.24012123776976066
Ni 2.467319527450662 4.00642308930545 9.64908430138298 0.5142404297515208 0.8093135982771288 1.376532894218526
Ni 2.14147403841645 1.9049457451500933 13.055848697501737 -0.05336838831881131 0.5462930873116915 0.00975913626929287
Ni 1.9027414245236025 2.8936914171406305 5.818624154615688 -0.9923059522443813 0.08923887696317534 -1.6181561704551097
Ni 3.063377204941566 1.8783438162278463 10.831606640600052 -3.028569519471165 -0.06302108091722694 -2.1961165069630955
Ni 3.5618632094249887 1.4179597282755125 5.484797148896025 -0.008134713291992442 -3.082999259174955 0.48285625901328455
Ni 4.642899565007201 8.35445959519035 6.30930123602867 -1.5211019112125739 -0.807866581417957 -0.5258530742897847
Ni 3.098552534087697 1.678257163956881 8.148110796322596 -0.4572272455912706 0.29726220575712675 0.49359421425607897
Ni 8.052373868483379 0.47728982014435284 11.861904225404333 0.7837434631175082 -0.1649105567648773 -0.08698350527009535
Ni 5.0479786554540444 4.709573228892721 1.967845799724816 0.772755853757753 -0.4679137787708393 0.29090361052895064
Ni 6.034154183394971 8.393658981990798 11.934474212463519 0.029502123224174996 0.6128296375813447 -0.27605780376536976
Ni 5.024096951985765 0.9612057342910595 9.973822940060058 1.4215593383305454 0.02932343155446563 -0.2169064902161942
Ni 6.995753881372467 2.4539247621118156 9.132788324246286 -2.079620336945864 -0.8181209121561136 2.352423381219362
Ni 3.804957564131956 8.569423066668186 2.04003120318534 0.29310216084216617 0.688316197955434 -3.1107730868541132
Ni 1.126567301628964 7.302398330736778 7.689819405952264 -0.3008211267529787 -0.4562854505032916 2.3679916679712636
Ni 7.736321191083449 6.040860946152167 4.567280111413237 -0.2646516188109571 0.4126931677346376 -1.0623595145283575
Ni 5.766465238549028 5.509516494202371 8.38439614531565 0.7008161301946576 -0.6247071057452209 0.452329294069021
Ni 4.905288760261794 9.209445215547866 4.057107455574304 0.7123416143357539 -0.3183318819432324 -0.2048009652019118
Ni 2.34581925053604 3.5668346559443083 3.386706954435247 -0.6307751663161717 -2.221017126859517 1.2451474657942878
Ni 6.923705427193418 8.654322241095286 0.3135922803772547 -0.8450169652160092 1.5546388666277549 -0.670067021937259
P 0.9158492578768725 1.690817101483993 4.259221144812863 0.2612575055277436 0.06011804833781904 -0.6132615829124406
P 7.571090944974356 9.394345505715474 9.712537781136268 -0.26417262229200955 1.9129038373204992 0.34181145312241135
P 8.84963442869015 0.3184483518169751 0.46484338167928585 0.4302599729738074 -0.06531630470930687 -0.023820499458365427
P 2.4447979367093664 7.421150241934115 6.141262591640551 2.2200642760279443 1.386394103283322 -0.37092945353429024
P 6.3391477373113565 2.906879820548486 11.256097822691673 -0.50814048750137 -2.499245198803328 0.330997650336359
P 1.0593402125648785 0.6210265331319933 11.29232841171219 0.4678597856044523 -0.06282747684918213 0.029082519188253136
P 4.482678285768517 0.4821440155665189 0.10585241449286883 -0.15220493627275075 -1.883191140747415 0.342288649869146
P 0.17053937578821496 5.953832491800752 0.5452166637562519 -0.05849542513273151 -0.9462801203335705 -0.22341960874436362
Ni 8.319462487711894 6.113828648932901 9.446791452467968 0.9784433353296763 0.16776910925959493 0.6257887688451739
Ni 6.3855322713453875 4.259010092837986 0.06115535824907459 -0.9433639751280398 -0.9736317728736457 1.121085053394024
Ni 2.0907559038316155 6.284480585774383 13.39707565446497 -0.37947477200114 0.1636571439737504 -0.4962085119504745
Ni 5.446960688848892 4.915578716548008 11.578076839546142 -1.525728868461624 2.693035414717033 1.026582099818432
Ni 6.829801368504907 1.7951236775119865 13.525370866961847 0.08960397361207793 -0.05784879268766811 0.41316239406157235
Ni 2.502513616772338 8.834241704655803 9.074565181434833 1.9494803508929524 0.7661221504913194 -0.24432576276941148
Ni 2.827130314308379 0.6572580601612854 3.4793756555641457 -2.56369247064412 1.0392334700338552 -0.356099073389677
Ni 3.781366643384618 9.086716147135073 11.521240073707435 -1.1569491142804849 -0.7226967323178327 1.0380407352773349
Ni 0.18197557880020504 7.77695573131306 13.042326362969188 -0.6925261222717235 0.4700498512772357 -0.5464229280213363
Ni 6.875820079115819 0.16786511276433178 2.570644946297673 0.003649938047761456 0.6239506871951706 -0.4848738036639456
Ni 2.922432006074962 4.034854135343296 11.948684107429779 -0.6645748884744361 0.1158708777284069 -0.9115874540473913
Ni 0.6106474660119416 6.380842227459238 2.933976080096334 0.08364081405010756 -0.5502173620667621 0.0009096562984629495
Ni 6.729603270921182 7.723311009343266 8.782048082264387 -0.1345607408284263 0.04679176354255813 -1.2604725261871323
Ni 7.729408066395262 1.6411589168174285 7.244171435890216 1.1817522893670938 0.3326770949213109 -1.3233043739116888
Ni 8.91300630167982 8.56638391822996 3.5386568722763143 -0.15517944552004242 0.21456678633942403 0.5539994548170136
Ni 4.376964696574679 3.355717020453117 5.773676650028373 -0.7281968362004556 4.070283846945345 -0.048574823584909894
Ni 7.721510032490985 5.380249504612284 1.76115931769726 -2.1542018690071805 -5.2209556128575505 1.0179959008113177
Ni 3.6192881067670193 6.175849789283358 7.940423458929736 -0.8231502470499049 1.9619293752895823 0.3242978697186802
Ni 6.469962441383874 4.890374420703833 6.184604225201247 -0.8667319882955976 0.21230678666065372 0.9447773105357987
Ni 8.116468008231514 1.8610187941124052 4.012077406214593 -0.5554356730429079 -1.1083218401910848 -0.6295646909478384
Ni 8.281323050829716 8.71416720108257 6.99819458021082 0.8645838316043432 -0.5035289568712876 0.7210959634896161
Ni 0.24331478676961676 8.783673651475326 9.44852114065318 -0.7942029678879354 -1.048382226412659 0.33002603045170903
Ni 1.7641412476000744 7.248500346397133 10.680206395902442 0.5923567144389733 -0.044593470339658686 0.7632633408862856
Ni 2.161134702387194 5.374171207735833 6.163983040242619 0.03614688223420226 -2.2834121441569706 -0.7115612845263036
P 0.36919368865634944 4.9624416350584255 4.695753545577789 0.5901900458049578 0.06568114424789333 1.0442918583933694
P 5.928243612357913 6.882517461785242 1.0274375960425037 -0.728769420874474 -1.1556766753259646 1.075924397696986
P 4.654099389807329 9.199971326897842 8.202394302269683 -1.3322351007424151 -1.727306955850864 1.9703762205053548
P 3.7064197420839284 5.040962349800362 4.195794867314114 1.6945996954258298 0.5012897831281238 1.0063488034906927
P 3.68022115693589 4.0987606733359865 7.722246369381111 0.14420417745546132 -0.8622981208939601 0.5341973324894219
P 1.5827209699959897 8.353840509397378 2.7248601553357514 -1.0905038381730576 0.9298163183505921 -2.2141723360235415
P 6.463874764419651 7.209216538806734 6.45710515507438 1.1926427110273525 -0.8794340092432983 0.6727373696805704
P 3.2358301186353304 3.1659390846439113 1.436791192487185 2.050850206791707 -1.2353086253269951 0.3820019092983679
Ni 4.709742070472622 2.022525145375894 3.1323283541382003 0.11606679578929688 0.882104871207242 -0.2611739446750018
Ni 9.245108309258157 3.779171702845899 3.0185441374250734 0.006446269845975995 -0.01926681864941198 -0.7985483893408247
Ni 0.34014355682553143 6.945045126875405 5.547083745730439 0.4466679820181855 -0.5926914720705728 -2.215329589556436
Ni 8.758469355631151 3.6533659656437907 0.11799587612289045 0.07369373013972469 -0.09382006857595455 0.2615842927395431
Ni 1.490852390354068 3.2921669257957737 7.9128694510986 -2.700567975648652 -0.11723176263167552 -0.24020479862250244
Ni 8.699065259769165 3.8336606327151994 9.871118483023574 1.0475036804624476 1.2953014609408597 -1.2112911793664751
Ni 8.20941529796725 7.291020284268975 1.587930670744726 1.5160360666538921 5.130590078489099 0.10255873400053306
Ni 2.8597917799315327 5.484837483273446 2.330873956688432 -0.552804406067648 1.8431261544057291 -1.6719225655432886
Ni 4.12384302803912 7.38835745508215 13.42708724529245 1.2345522067769448 1.1926193139885848 1.1417968320200786
Ni -0.06656954491124706 1.657227007171381 9.495638259542229 0.5488364225588354 -0.21077878005190154 -1.1666604280309778
Ni 8.417559445634623 6.277586221261741 7.177340186530121 -2.0164390763016886 -1.7160239267378767 0.11497921915207296
Ni 0.5640584460644741 5.238253735915182 11.60742901020323 -0.1682483628888586 -0.25148319974979916 0.05616214901386457
Ni 4.807867168658669 3.5650524392675713 9.981868241342362 -1.2765820301544855 -1.247433433614987 -2.504649657648351
Ni 1.9563298659667614 9.128823361144935 0.24967542428801448 0.2574805549838146 -0.781833390578989 0.7990016748281595
Ni 5.215722765086114 1.6103922289242794 7.459190249885908 2.0311871811451407 1.6746489633355157 -1.1457442467036012
Ni 8.298648072945156 3.5487029462804496 5.566455502997796 0.6393245985480795 0.4373999264526983 0.911840450598462
Ni 0.07319657692237813 2.626677838614294 11.635216582219897 0.8478865734543204 -0.09397382054499943 1.5938001102082486
Ni 4.8472822974778795 6.800779376937406 3.0569434027385443 2.269126580772234 -0.6570778087664425 0.2638813163038358
Ni 7.255244629505417 6.362926259814141 13.016598658227318 0.4885970181518036 0.31319893159204126 2.087205348381973
Ni 0.89599161206291 9.079821782622432 5.546686030008893 1.0954192731968038 2.264735907903706 -0.14957341218717465
Ni 4.56965983968107 1.9400835539451353 12.362452911188884 1.740529368078409 1.325953895719394 0.7501406874613984
Ni 1.1560582975850802 2.003868150796786 1.6177771720274123 -0.4913797231032634 -1.745803986213787 0.7094516943824686
Ni 3.0013373044155633 7.669459925442483 3.997442593272248 -0.26730062639803 -1.3740407239242918 2.9416127536739465
Ni 3.8683481972971703 4.7792485208653765 0.021499161174115218 0.9952997447653827 0.4283470722218107 0.2610340766630278
P 7.125921359388696 6.771823045984312 11.050716110873246 -1.1215797336422555 -0.33488927208128133 -1.7705246288889187
P 7.673136919849225 2.725590864173214 1.840868489559947 -1.0631771253336464 0.12300697455255588 -0.09834392458823708
P 7.833677122072166 3.842890639083144 7.823152663591644 0.27604983334556976 1.5084644249542216 -0.9639662247594238
P 6.808339727681881 8.105493305537921 4.236184587252867 0.154988669665475 -0.6224350218815925 -1.0071026509375816
P 3.6542664540699317 6.412856467026103 11.603173264380937 -0.951192212923207 -0.7687732149609211 0.049540015711656615
P 6.0830244406886615 2.3457442098338612 5.309728128722566 1.7983475646384577 -0.8707452232200487 -0.2812054094045802
P 1.2535174095392936 0.6629480214039636 7.494487520173078 -0.672012575699404 0.0012467279229075303 1.140304049524636
P 1.1076195243289149 5.649401743150705 9.373397893702371 -0.4006583480572906 0.21131305528881672 0.05238776957309687
