# total energy = -340895.68727624946 ev
CRYSTAL
PRIMVEC
9.07459574889304 0.00000000000000 0.00000000000000

0.00000000000000 9.07459574889304 0.00000000000000

0.00000000000000 0.00000000000000 13.28158815270536

PRIMCOORD
 96 1
Ni 6.401528474687474 2.0043785902465996 11.504392439499217 -0.3177320435757044 0.04168375289203144 -0.20835988619776374
Ni 4.513341010173258 0.48388467646266015 6.107909942720153 0.4100940395488938 -0.8531884452832079 -0.9514069000371744
Ni 2.652105095442327 1.504241312550989 4.774212955424093 0.4941673131507296 -0.17807923293635136 -0.034692152065546704
Ni 3.5197544319504814 4.347030891359028 4.931706196874876 -0.6707146828235868 -0.15485034431539782 0.2069892311024822
Ni 5.130776514299421 4.610439186160176 2.923224074368343 0.4097122307294428 -0.6644388771172041 -0.7340273268393036
Ni 7.165564075362111 6.1118673739863105 2.671856860849161 0.551790620091153 0.05417365782892605 -0.34065111426572303
Ni 5.072572056282589 4.324916101183316 11.670173509373255 0.8343761976727113 0.17783703501855824 -0.6075676178514569
Ni 5.715942755452735 7.727490276449771 12.382517489498895 -0.6858913905640253 1.2218357876515407 -0.08528760562491118
Ni 1.7283293833753786 6.576277967676267 0.5526093134908593 0.9471216423982592 -0.3268610024601661 -0.6900113262696697
Ni 2.739457155447007 1.4818996574781111 0.24242056943455534 -0.26541112268480094 -0.030029199372238607 1.5969764510537012
Ni 0.5974332798728579 0.11329360726578348 4.518635129413516 0.13957027822787574 0.2900260930200037 1.0336148382954973
Ni 8.763028711456428 2.2785856541528355 1.2894919083535283 -0.2693389969842974 0.6729726256198281 1.2818664184818762
Ni 6.7434683222915 0.6647713186495802 4.801944920453629 0.13925300409777308 0.4354489733739145 -0.08104502829847332
Ni 0.7805014549109234 7.522041425576515 2.6507929088771207 0.2073682117084558 -0.43095622770988357 -0.11068393421082874
Ni 7.60305941765233 3.9141817421627634 3.8674394062103317 0.2045862780879444 -0.07589150912199188 -0.11332368582652097
Ni 7.589420300034727 3.9910072709389555 12.536664019986686 0.34349141192799554 -0.7730247911484235 -0.024782606261318608
Ni 7.751338314439829 9.002607117459291 6.891351566698343 0.8242990159423675 -0.4560558509909888 0.4860415987198016
Ni 6.864069701624785 0.9454186232565557 0.4160085141498607 0.023335846512463038 -1.5923790614910058 -0.05463619928764139
Ni 1.948987256954623 6.605679658348942 9.122193049512862 -0.06212196614172527 -0.07256887250666212 -0.13625818313550725
Ni 0.18105542967041144 4.671293426175903 1.3149034992148525 -0.8185063205199904 1.0062991811996798 0.7099736283242094
Ni 6.482319601866122 1.9646590840508293 7.101811409420194 -1.2965546166216702 0.4600297480370723 -0.018135533258446187
Ni 3.6747848280776325 4.48397561788413 0.7079164847925526 -0.7187212926098525 -0.32364275263318454 0.21398905945908306
Ni 5.900356693060787 5.651876108493142 5.053922854275981 0.7227489257120069 0.22597734216921078 -0.34968571366416557
Ni 5.548525535940336 2.813215470813519 9.208802807574017 -0.4526234282706721 0.30900931899072587 0.3184275269808322
P 0.2648811017135481 5.510212592106994 12.45364054221993 1.3925850625853822 0.12838983613102406 0.08789444712013894
P 4.0736405410825896 6.010313571419058 12.598874912087465 -0.08234240695365819 1.7193352504992971 -0.26250963276728984
P 2.331898904986774 8.53914935633743 1.4181814750005648 0.5868576389976151 -0.17537391819004636 -1.0337367085853422
P 6.4158300378048 7.686545699809306 5.899588982248779 -1.6241568681232348 -0.04530000948838004 -0.6090999953355833
P 4.642073227420961 0.877836477850483 12.607029343951188 0.9394998641869433 -0.038742410875520376 -0.8271861076821755
P 3.9758889941918336 5.9417549994955845 8.300846838516227 -0.4199313373542897 1.5835671196263308 -0.13931779589743748
P 4.680712856706223 1.012017082468518 3.799437107014708 0.038679675958385 0.13174692552871506 -0.014117927458620847
P 0.1699762555524274 5.60944329812727 3.525823521679458 -0.174085538395926 -0.520108972717156 0.3630413090354651
Ni 1.55006802177846 1.153054451738489 2.5475947895352107 -0.2929874896411728 0.37585105920562367 -0.6122920199103197
Ni 1.6839999824692011 6.5398525397873435 4.855389752927923 1.2024913216866582 -0.0842185409304485 -0.29462553946522807
Ni 6.077392984213011 5.820355055724276 9.029992432925958 0.2258133057875208 -1.090313319428806 1.9009813748513003
Ni 8.65500472202201 2.3979347392537655 10.35143054863877 -0.05674501810052808 0.9977662040280043 0.1509494665990949
Ni 2.290128540120626 5.169379845201136 6.960893824815927 -0.021056049339350832 -0.23534567075798823 0.40559383768569496
Ni 0.5447371015592095 9.473515121804073 9.503972187978365 -0.2316098578646398 -0.8887342035983017 -0.9082784442788164
Ni 1.5056932478928493 1.0490323590900732 11.625533757287755 -0.3237939334990682 0.28751721055522095 -1.3206651365166289
Ni 4.054084786946906 6.7565720387517905 1.8125779315868322 0.29140934652077555 0.46184777508241753 -0.8071721264540936
Ni 5.525612181326601 7.813372251920818 8.037645444501294 0.3493491562603532 1.3700418871775437 -0.15582479241352518
Ni 5.299391580468854 2.8677174937086063 4.9391301237697265 0.2952258920533883 -0.39681223483832306 -0.04333748644537052
Ni 0.5827424165919959 7.609819991587867 6.845277121003168 0.8592179393067395 -0.10655319987190683 0.23951137209990364
Ni 4.95375837233897 4.463113121940772 7.12180002177967 1.3423901868985462 -0.24291448424418163 -0.2838173931061306
Ni 8.404564024742852 7.419888699680745 8.955150610810582 -0.48944625352597637 0.055998883963122914 0.9871092385347903
Ni 4.661320445296499 0.20468839973795647 10.417507218587252 0.21990131117845996 0.10934233258126975 -0.0534051550940177
Ni 8.253417555655178 7.346339100019625 4.784054354663142 -0.6400054266651881 -0.843337006410425 -0.3150969199457025
Ni 7.398200415511704 6.128237944965788 7.1310443126093785 -0.3583714143636215 -0.057073605084540416 -1.2838803635881115
Ni 2.3786602975905677 5.041355446432589 2.8169188133948513 -0.4107321873535249 0.5149264000749518 -0.7582064951886685
Ni 2.4557489896474722 5.079423376176994 11.370978638233602 -0.025164415080769567 0.8987350235647553 0.8658783820460507
Ni 1.042525873839361 3.267290099788606 3.7826890328463474 -0.8700533393593467 -0.027597450002294403 -0.3201401387965647
Ni 3.7089053086113535 2.6452356263561496 2.541418619574771 -0.5571603690434985 0.0944759569923986 0.3112495211751543
Ni 0.9734772737380091 3.2838149388981557 8.177965013236633 0.9063264627587682 0.6512079802492269 0.4215189935563837
Ni 3.519445895690336 2.662250493643577 6.985477812532391 0.042341183970372245 0.0005353036781797233 0.3234614898603139
Ni 4.077642437868592 6.80829723530557 6.237074110732059 -0.06872918704559777 0.43353530129096945 -1.0266687459949673
Ni 0.7498411177887736 7.367065477024683 11.213352907682873 0.6573014947414745 0.135567841936702 0.4287538207419261
P 0.3073556552204987 5.6515857214247704 7.920621270866518 0.2245830329248455 -0.31145315254552813 1.1725824499423676
P 8.515047229662548 1.6153778883745211 8.041948617870734 0.3685614675227459 0.6172653047551949 0.904968406068977
P 1.9109737747855386 3.20231599324035 10.349956834266782 -2.0825097426785164 -0.016916059029048285 -0.026167145313671064
P 4.021552360693345 6.187377086358941 3.953423924614897 -0.4987338494754895 1.0194460029942831 -0.4158083163248516
P 6.888208126683216 4.153097702665903 10.309102096125596 0.6844119778050213 -0.010153286383917997 1.0389560480027527
P 6.511149592997939 7.808181583073666 10.249388532812818 -0.41991693917658646 -0.09408977729757344 -0.661393405422661
P 2.3743589391403064 8.424364792967475 5.800454466944901 -0.20297831017087622 1.0563745005895162 -0.05756108624392022
P 6.900794591177968 4.050890529194813 1.5414217468176807 -0.2581528984604909 -0.1625556833794555 0.050692127038228826
Ni 5.227030752868884 2.703966410934405 0.45139853064812085 0.044423520420697686 0.7193848943357805 -0.26983419145316107
Ni 1.5148404405465705 1.2186910037864687 7.156013970651023 -0.4042756330949037 -1.198354159589833 -1.1000961098471829
Ni 6.933009406575497 0.7497957448093404 9.303925444036416 -0.19047195017374938 -0.8473854654481859 0.05661106362582509
Ni 2.847299652963693 1.5619103694105094 9.279566506297943 -0.2557049511406306 -0.33393616413939264 -0.2472107976266904
Ni 6.275337144288026 2.061657439482995 2.6008136645719286 0.7714862430167101 0.33608020706558894 0.20006962116451352
Ni 4.118296627440685 6.851610281472445 10.363358197472154 0.10481307725234852 -0.12185743432914496 0.3433826542642731
Ni 8.372739416968448 7.044971770624713 0.45019796161231995 -0.8583501919898056 -0.0032943544805556168 0.43813809017030353
Ni 7.770748875041327 3.9159331391688825 8.256034669108882 -0.5859685515244425 -0.039855698544357165 -0.12471110172785617
Ni 2.9560223862813824 8.252038217080411 12.311103142249898 0.912640577902254 -0.4925806853899001 0.5601564755573449
Ni 0.2892835975122792 4.9017790871003655 10.215108339391492 -0.4356088959905466 -0.4123167582318254 -0.5098446146766704
Ni 8.512542641197838 2.206651332559536 5.93555523558584 1.2423259371850928 0.8543438990438899 -1.567891617872603
Ni 3.576779192502051 2.543763495151876 11.50139056317992 0.8831556810692596 -0.0653903524803519 0.18706498137472946
Ni 1.0499761170622826 3.346066666680423 12.535003368939435 -0.004178556857721836 0.2510697663614644 -0.09508685110352011
Ni 3.1625329648733733 8.464093373759132 7.84042725209721 -0.5870005923333826 0.010239418339821076 1.3258952745673167
Ni 5.620024276931078 8.037959425518972 3.5260757954451063 -0.19725709141638287 -0.8540623632477292 0.08925584624403983
Ni 3.1080944641494925 8.41743180171009 3.482578534981733 0.1239143168581737 -0.38545824327808453 0.9234206992368935
Ni 3.5627952402407574 4.125474632787008 9.355152445276019 0.24323175837428432 0.05287859316658635 -0.4979833444627101
Ni 7.64662655250403 6.271525814015642 11.443509160776653 -1.8418688849598603 -0.16597550769428188 -0.8845818719928249
Ni 0.3917094687442371 0.03130463343010031 0.2943608339108475 0.8235711366374076 -0.47157605811377495 0.9273539728530288
Ni 4.646973509199741 0.4374835453155656 1.5013111255391969 -0.1641644226274721 -1.355708758384323 0.354661312501886
Ni 6.150915360086471 5.707240217997459 0.25194889511551466 -0.5661116646995155 0.012071329342237274 0.9640245888011849
Ni 7.987468374005774 8.959430190230716 11.531420215887948 -0.12370965704653533 -0.4114513249077365 -0.2612168820977953
Ni 0.06630262738605817 4.889827844317677 5.8535943929974055 -0.4221244883508666 -0.9408612633108442 -0.8148694950983515
Ni 7.963665708995149 8.865671465530076 2.668616322658046 -0.8010279612295689 -0.1766461000342506 -0.9684761968146354
P 8.356042160537053 1.6995629144147684 3.5022350171317576 0.40714549844353104 0.46361412295422094 0.8643020386978664
P 1.795608437278838 3.2205287071848128 1.3838223325950252 1.3389850178717393 -0.46259776587456464 0.9085409539115836
P 4.673090196161455 1.1035706803687069 8.166874949603585 0.890230328527854 -0.6163867588049836 0.4718725063082712
P 8.619786215386007 1.7091366130751608 12.531604025320304 -1.2233501674135383 0.18279283636193683 -1.3292287098159237
P 6.419387279392358 7.835396296137663 1.3111575060328522 -0.2017223262765881 -0.09201926792178991 0.2864697431273131
P 1.766978087256527 3.22115485430099 5.824680008123842 -0.5678260762874608 0.2129225658677817 1.015305498463348
P 6.944815455824 3.907693406103824 6.073789462186432 -0.05021570162244255 0.6004906564000174 0.004716688749378973
P 2.3993050032326466 8.56826973453762 10.168344224408933 0.482431255660724 -0.5073822691791069 0.019632943739579092
