# total energy = -381174.43846346927 ev
CRYSTAL
PRIMVEC
9.20603912712344 0.00000000000000 0.00000000000000

0.00000000000000 9.20603912712344 0.00000000000000

0.00000000000000 0.00000000000000 13.47396882324040

PRIMCOORD
 96 1
Ni 1.2886337591438861 8.683090210932637 2.872043975165769 1.3619238860560996 1.9127953367670927 -1.1327349789281265
Ni 1.096117065892731 3.85683332874897 11.859518065560417 1.4888073128449262 -1.026178179511794 -3.07401196807468
Ni 2.8904661803524987 4.699646224079079 9.834690234308445 -1.5742651254991145 -1.8260203479633779 0.5487549185886227
Ni 1.548188830372036 1.8018336243877127 2.055966338484793 -2.5863793707186744 -0.8781417727944361 -1.1816784987063649
Ni 5.4305505060216115 6.6305945492533 12.857548465428199 0.38423491239394475 0.8971432535976033 0.9501835691530345
Ni 1.5583338856495215 6.682940088552558 9.356405193606713 0.5308975786922276 0.202583902945935 0.1463839587155995
Ni 7.534922198997346 9.006010450468349 11.240483731640522 -0.4143936953655121 1.0079439158919543 0.1464855172904703
Ni 8.10865177245303 3.5175723695058765 11.285944994772354 -1.1499192040168968 0.17347901516017866 -0.29539995573740735
Ni 9.018364955171057 5.865996163576108 10.752928209392126 -0.4050721608542701 -0.49486588187965097 -0.3929357826020523
Ni 0.5836269862767578 5.485961656398366 13.20435469445843 -1.4710181071823054 0.41725199074991365 2.1796390781333623
Ni 6.52186201941448 4.176411776029029 5.453399895494132 -1.695125743132629 -0.11903410594773692 0.22277091941677118
Ni 2.8911474272586095 0.9632002708869842 4.035656038583374 0.5903890491896413 -0.6811729020424333 -0.3557308914169809
Ni 0.39657039491768664 7.314161377260414 1.3551851376434045 1.171634998427434 -1.6130579299965961 -0.9792738016507715
Ni 1.3792395976566 6.571068299322066 3.742179474450551 0.5686267178118852 -1.052393147344265 0.5570330994370148
Ni 7.000437970957198 6.102011392386355 6.9629159960933364 -1.7426194178382182 1.776463620081173 0.4852450709604353
Ni 6.6113999573716695 2.075087282052249 3.8256101259548507 -0.07603317690617874 0.8566542923446214 0.06084721319435973
Ni 1.4621675994166614 7.258869905394192 11.930256350720734 -1.1836963004673422 -1.6023441431235177 1.184474059173631
Ni 8.364441573619027 2.9124962323298327 2.338245597051368 0.30837811316463015 0.37083432271732264 -0.9290401023061999
Ni 4.34919072108152 5.289983492381028 5.947989752350085 1.131446084913374 0.16466990150898092 -0.009552162464809355
Ni 0.3470612363180602 1.5095879077055245 12.120832410893401 -1.0966901694894273 1.6454875112802114 -0.03051410942845712
Ni 2.605916712501506 6.929422584014801 6.342938043148087 -1.4970929498924863 0.004469091514947142 -1.235586304468414
Ni 3.503643632087696 2.652655773884258 2.586665043176391 2.443328075920734 1.9578834873549826 0.42016710751417957
Ni 5.346812372805634 0.33898938108457644 4.956884135222527 0.09686039806417512 0.7244862201180877 1.1484199937635513
Ni 8.313311231503643 0.5130424419722791 2.254518511082517 -0.2975576255103585 -0.44502761820128517 -0.25998378102164255
P 8.51084521615791 7.520579189811936 6.172155888013642 0.03487675727252703 1.3992799581070547 0.4876703925724762
Ni 5.17813011522908 3.9500352703363215 10.131050129941183 -0.6238208464855256 0.854533903567509 -0.7886257309104742
P 1.755969136735778 4.818054301192524 5.234084421922868 -0.17195692208869742 0.5538302762290009 1.2188533079844492
Ni 1.7233613456351855 2.368695492546659 10.1699493282801 -2.0568074528164058 -0.42233609014104045 -0.6330328520020969
P 7.928130548372983 4.2451164471142135 7.331118901599006 0.5206530181460839 -1.7932711785568147 -0.5305116561077186
P 3.2106430201852225 2.760522936031532 8.508596180763817 0.7886031052026548 2.0258261739435435 0.30267566346321423
P 4.571940047301152 1.7141184822063331 13.22540154144154 -0.9163288253871187 -0.01910586759151548 0.9970596648792828
Ni 6.825578461029289 2.71524763489299 9.22837496424642 0.44606737231970917 -0.6412490692643021 -0.9669052527830896
Ni 4.442779316318286 5.714391108848678 8.489098710190145 1.2568518987154096 0.9061858234158459 -1.2177143092839997
Ni 8.447921937735394 7.4189445162516465 3.4743435708974486 -0.6342353569506303 -0.7266857988725678 0.2536933200272405
Ni 6.674001024419674 8.943685564598496 7.202590625514111 0.687904564339312 -0.23806358390978358 -1.1261503837320734
Ni 8.31152525988492 7.129497435508076 12.542957850225582 -0.7712515012980847 0.34939954988231436 0.41177245569258114
Ni 7.98797900967873 0.09973454705459617 4.785374702985613 -1.4579180794652375 0.8675321155993898 0.8473931787576696
Ni 4.868190391066559 4.529233231119433 12.330271645533916 1.1000642281679829 -1.6614651176553903 0.6854638161083034
Ni 4.847504420822903 7.388840767832974 6.50233508951514 0.6665903762425681 1.3072272658441682 0.6638457236178955
Ni 3.2418606993557786 7.577849960121586 13.27456731477633 0.8275321781676845 -0.4422204877697932 1.1699720089027141
Ni 5.350430346239438 8.015624745611841 8.969405397115954 -0.6221969377288574 -0.5150917220082226 -0.13921160933687637
Ni 4.130952354105053 6.454501430062974 10.601844216487478 -0.2334353411091528 0.6492557416188625 1.2389850457373177
Ni 4.444353549033758 1.329075889664751 7.131327596115302 0.2998358800215739 -0.33868370612670706 0.5590300752623857
Ni 2.0762472430004917 1.0767383532256651 8.344590591137319 -1.7724724966439087 0.5277145529785557 -0.9494844862034809
Ni 6.167825367140204 7.083412002913618 4.543637920767964 0.2033179528984821 0.3063909075312723 0.10015578098599524
Ni 7.173327388480949 4.906248157416036 1.0141695073151125 1.3293397814724912 1.3905700890378825 -1.3437163619091375
Ni 8.837272956656163 0.9918126409436306 6.8760358416739065 1.0745645412349816 0.302087395059912 -0.16914850610562482
Ni 3.143089104009009 0.3799847945656743 1.0461430023098806 1.2978046869786874 0.5006493213306474 0.632233496029253
Ni 1.887551056047119 1.9614847574386658 5.7703076707814525 -0.8112254705878609 0.37287423596548686 1.6896251250293741
Ni 2.4568801427308977 0.48725816717991904 12.096565291373027 2.1891063941938493 1.1399330393384626 0.14669660486001188
Ni 8.406393494580461 5.575877041965698 5.216608597573276 2.0788382073642 0.5198125245226596 -0.7422363450126572
Ni 4.83581275094776 8.608953976677112 11.40351808412385 -0.4697513462002103 0.4496903137842771 -0.5411066580147456
Ni 4.1857098756935125 1.1655674261589282 9.773249128208683 0.6558038271500254 -0.3036087168004448 -0.4133467421582365
Ni 3.9828548003401645 8.041677836750937 3.659987955832231 -0.4474714517560874 -0.14416046870171947 1.2041476263431585
Ni 0.7629624724985995 9.01186549144519 10.734751805453953 -1.4601050598142273 -0.02114938038410551 -2.6670783285316393
Ni 7.050758181616667 5.264280230734259 3.394523527995535 -1.043333608245158 -0.34506672683491535 -1.0176829975565893
P 3.444669744512767 9.077412491060159 5.981957275451117 -1.2313190445516278 -0.46511590431072797 -1.5407492531298561
Ni 2.1298540096799807 5.1294761976778 1.5311281983936005 -0.5344955804561311 0.9336488047228049 1.0278733078260298
P 6.4379857956094275 8.909116887133019 3.2330385519216462 0.20651614812080563 -1.3792145548157473 -0.7400313669415385
Ni 6.523371809855051 6.883843483580291 10.715133735765821 0.36583866927494413 -0.42217076820776966 0.029114915088085343
P 7.05150387079768 5.321928448654053 12.154261380697037 0.34433807619900697 -0.87325487701578 -0.08357473669886252
P 2.851810021450356 7.218252860127165 2.1134994809136898 -0.1676662651331435 -0.7047262638823412 -1.0784757033639298
P 8.129742808424643 9.021448978327097 0.05243115546448471 -1.4735583571056556 1.2071010525445276 -0.06040935432599274
Ni 5.869457634342291 2.22518254633911 11.668592175895425 -0.16450329402412958 -0.5426495770218331 -1.4142741175230418
Ni 9.155396849731282 5.09661984351687 2.5374449542098976 0.08910749359163364 0.4533029708361999 -0.6438697947166008
Ni 5.221858801769964 7.2807066305468195 1.788938725179751 -1.667905216853779 0.32996458108615434 0.14796338738757744
Ni 4.94585253836317 3.599404852592598 7.477338423352454 0.6934062108838316 0.14651585630777347 0.6248546870666787
Ni 2.554970491171557 4.788907980858116 7.379854752899804 -0.5192831343817508 -1.5865470281902612 0.16473109376421954
Ni 3.1653861311252243 8.42391258731463 8.018601058108402 0.5196703425178405 -1.3963404158627566 1.4801282970136895
Ni 0.5236505610251343 6.007833610636196 7.343798379488009 -1.056607956756561 -0.12524100608939723 -0.20149195543333684
Ni 5.174567378030907 1.0136217479784424 2.173796276331971 -0.13787206458984644 -0.24813176677906296 -0.17293856927567633
Ni 1.48646233705485 3.4344326288425644 3.6324342802918372 -0.013233210860822372 0.5996689318296705 0.7134482171363713
Ni 0.9608803489904993 8.565740828335446 5.077153673476722 1.075963221354721 0.2004869112075902 2.2958855940336327
Ni 5.8000809223902685 3.274956410537775 1.1352160352838452 -1.1503624622019026 -2.969965336674711 0.06699137841888463
Ni 4.036746954237079 3.0604280773878285 5.244607845414424 0.5415167489689706 -0.28570689681935957 -0.9715034136767334
Ni 7.221355295361748 5.1292828708530935 9.154026070483717 -0.5493164475190475 0.2863985235697455 0.8542996760695158
Ni 8.005332393706007 7.834090857211901 8.986383174740944 -0.4364319061124742 -0.46821871160576783 0.5106887078445205
Ni 8.563199961496439 3.2528158860891794 4.891266249105165 0.6667567266171034 -1.278782123129598 0.08104451407784106
Ni 0.9978241845880933 0.06032165172431471 0.32035543699459634 -0.28636612766991326 -0.2576427915932918 0.577101845162432
Ni 2.749033799020369 5.264979889718913 12.473297592263988 0.9328525340737547 0.7902552960940971 -0.20111246060673107
Ni 4.4365468277313 4.989912642317838 1.5314513303720396 0.1990938875148055 1.0828506925031736 0.0025258517456472626
Ni 0.17014785902861995 4.083265070677308 9.06427547301935 0.5666487681499079 -0.35752397876166164 -0.23892258947596917
Ni 2.8636950181502048 3.2649034156530075 0.4229005878388624 0.22128765000302533 -1.1136103422835337 -1.0946656828602308
Ni 3.4026257631586154 5.371935653978282 3.897520339914464 0.837362791104861 -0.4810004367514683 -1.303714367594903
Ni 7.461034527802157 2.077453234145093 13.281937669817307 1.0582154104529968 -0.5554086764597144 1.2999716127230192
Ni 6.835944461249297 2.0680630740878923 6.477583732329071 -0.4996594466135523 0.584414062553129 0.1815661630436873
Ni 5.667449514601947 9.0004500027482 0.05673405822010779 0.8826036652205316 0.5862477733277581 0.3446594640941677
Ni 0.7377637018039237 8.482619499750678 7.968101329683134 -0.022144397307523152 -0.9090184077686345 -0.855385710044843
P 6.509783695889925 0.5395862150045599 9.242240179993626 0.32545332347936207 0.5773121614010251 0.7811757023903321
Ni 7.367399902369033 7.2781473516292685 1.3857574734610096 0.10543631265864421 0.43059344505382613 -0.2964353389804572
P 0.46908176324174566 1.4148209394419726 4.163766360485332 0.3712966070657218 0.3297830612029675 -0.6627378352656974
Ni 3.4078455874257063 2.7239841661618955 11.442323380862195 1.5066906208832502 0.7585924177731774 1.9238150849163644
P 0.34562693539951916 3.343200779659371 0.1823394168362187 -0.9968871438571606 -1.5757219125502993 2.571794530925964
P 2.687463808370803 8.173029605080483 10.601777012400794 2.960461253839018 0.1781774490771125 -1.9145606561976318
P 5.324506139650147 3.9490962543306014 3.3870325738400995 -0.8727727951730387 -0.6705948694162709 0.10080755563738124
Ni 8.675366343983626 1.1857470642426378 9.275884571116219 0.45776152082818583 0.006728576973085186 0.15712859882661326
