# total energy = -381158.31026672816 ev
CRYSTAL
PRIMVEC
9.36899712896300 0.00000000000000 0.00000000000000
0.00000000000000 9.36899712896300 0.00000000000000
0.00000000000000 0.00000000000000 13.71247433099022
PRIMCOORD
 96 1
Ni 0.47100478937571094 9.085116658894925 4.107667276973243 -0.7762705517792308 -0.8214643747070498 -0.028643374768305505
Ni 4.360022155511967 7.608665747109226 6.745399779766502 -0.7894739378433824 -1.3428627556595905 -0.1449063457288085
Ni 1.352208638903771 2.100379285405486 5.320083918215497 -1.4989009496355024 1.1861409053530927 -1.6981609304145269
Ni 7.561352310863564 2.9042579897124905 7.682647097202346 -3.8475383814498705 -0.1752458772526143 0.01972241812959184
Ni 1.2749050423764512 0.9005733144972252 1.4477630421254575 -0.834385196533776 -0.7313914318783533 0.5374981147278808
Ni 6.0286499394305455 4.2420945867943125 8.681052418159142 -0.26678537732450824 -0.32731814460224273 0.14018014389773278
Ni 2.326734259602559 4.20324135508921 9.277763854691077 -2.4714456600925563 -1.612315909624249 2.3359459523896287
Ni 7.273105740658798 4.678952191796841 6.217510186527591 -2.516454106482447 -0.8882240967311026 1.0494003832645282
Ni 8.438234241948035 4.947411439753916 1.709671487186895 0.22897704822748308 -0.15677610058320096 0.9581051379929566
Ni 8.882849376695397 3.058068817998639 9.60405230143681 -0.26868490834006625 -1.7558924807980405 2.146295726786226
Ni 5.105738124727274 0.1264308706456878 12.371229681299566 0.7196923982738702 -2.0881216895486556 1.0199054591292047
Ni 2.2310018454326213 2.891057072550087 7.242805466567294 0.4012766983675799 -0.4348943864220252 1.6362302543480016
Ni 8.733694940055605 5.989684279758127 6.967143333504145 1.0658888678378546 3.400343837504254 -0.9455049327304426
Ni 5.663371473619475 6.968819447116888 1.238790368575232 -0.49958925549724925 1.785545527777783 -0.21170360585901604
Ni 0.3394200333282926 6.9694003249480225 1.95341063583027 0.8637741912188543 1.2182442136455407 -0.7182538660551308
Ni 0.19521523794960535 4.6636713572390835 8.395298001229891 1.3827763040250765 0.222390653259217 -0.9166440426346923
Ni 7.701353237164343 3.949069827978598 13.350903566001719 0.5052508246584008 0.04222111345274019 -0.42452075649718496
Ni 3.132046420492848 0.3861469703444549 -0.07380333914486839 0.5396647833618964 -0.6451093235506568 -0.016535021540545716
Ni 7.135222207742476 7.980071537139042 6.880645939949526 0.4953379364200631 0.1414070743262984 2.194524222775311
Ni 0.5148160944394672 4.825464571204698 12.885886502785334 0.5462894877672656 -0.49106167764221237 1.337820822360309
Ni 7.760340444016363 0.5457881256356876 5.776297871591004 -0.6915077083095381 -1.9043945142979073 3.037234394235014
Ni 6.1562650513319666 6.706056549503846 5.404305582331688 -0.6058750606403823 -1.9906491118217784 -0.8378394736309634
Ni 0.8112230612719501 7.797394828244401 10.301798067697382 -0.638947674824635 -0.05549186241971734 2.153847570991555
Ni 2.957136610340317 7.006192377252324 1.1974674691880793 -0.2421871191598539 -0.9408126694610959 0.7716891030561356
P 3.202323269062891 6.121459226450256 10.934409627992908 0.5975320879923257 -0.961197403765035 -0.46996911863797125
Ni 3.433081671979857 0.3280985370195284 7.208140176644728 -0.23880303317896936 0.2355089358087299 0.5998584221326573
P 1.5038458598218016 8.289510779182955 0.2249149593156948 -0.595183128144175 -0.3838111945929648 1.244292059772528
Ni 2.1739352830222582 7.868983336433136 8.57065283875305 1.9962942259226972 0.45955743638634405 0.30843442032386237
P 2.0520071524675934 5.219861880550724 6.8047195860218315 -1.9381461568270557 0.7120865609021543 1.1488241711805052
P 1.7630579074671 5.1068155594140565 1.411535003457194 -0.8977616039078926 -0.5624506709081603 0.1922724937175979
P 5.895404060166027 2.2478473025355328 5.4635569949069 1.9134357985645694 -0.12275937731812406 0.06401275540653492
Ni 5.070295208030771 5.3416869521353485 2.9989588772822997 0.8000967076645511 1.7879654500731852 0.5359595665961674
Ni 7.871906463583363 8.894776110228214 12.932700571476168 -0.18667160259105273 -0.0031359745258204056 -0.35650016548283764
Ni 7.779069069571824 0.5829277677389415 8.910667803408392 -0.18203693203251872 -0.16546102995170858 -1.418667361494731
Ni 1.7797815676054187 7.380287069500458 6.445631216711258 -0.8027511145682626 -0.45979346365655005 -1.5700577722859863
Ni 6.054358467956901 3.274904890962921 2.087573739928145 -1.0533498548305795 -1.1781146926145065 -1.094165860405677
Ni 1.4870753546971014 3.0014425984602653 11.165519368307738 -0.4705998102434347 0.44420100853493183 -0.08028449598336496
Ni 4.116062835432597 8.166879973832563 10.37206086277151 -2.2869805782345196 1.0435781201557963 2.1330046661042745
Ni 1.7422681025108375 0.9860682253432742 8.773309871239274 -3.6156583006429797 -1.4393703983700372 -0.2972529497857462
Ni 2.2467511298541973 0.8356883238597324 11.027119603641488 0.29583627194387757 -1.8517077254271528 -0.993940916744643
Ni 8.273180616930244 6.449355393128615 3.9677319336533974 -0.0027863044958855235 -0.397284032268419 -0.4118691291714455
Ni 5.4260454036117745 4.563057695488158 12.82581249224926 0.0775383006967955 0.17273185258150894 -0.09440293766261806
Ni 1.6055556942540625 2.644914776105323 13.512286417886628 0.4572403582173932 0.7339447944278263 0.7815569969891508
Ni 1.7771582483680353 6.818821800722222 12.357174311585558 -1.9974990448640761 -0.4016099133372825 -0.16577341898580483
Ni 3.778985051423397 4.150653173376952 1.542448002399897 -0.6062198455743109 0.1794537446863748 -1.1972866375572668
Ni 5.298533350680393 6.2325099511670565 10.203905162755515 -0.06176689679515169 -0.41762068694324206 0.1603216518426142
Ni 3.5925138986318266 1.7985195621581564 5.266550404678053 0.7435095552981259 0.30532184283680963 0.11179670765903327
Ni 3.815748996735869 5.284526699752221 8.449379601108003 2.15680125430324 2.43772641346324 -2.2964800330845225
Ni 7.858921033358316 1.4710543693545106 0.47580640047985007 2.5593773882085338 1.4350314046750512 1.6972584732049156
Ni 9.216844760600672 8.098514400706899 8.345467115416067 -0.43229757222912646 0.4798974334952768 -1.4070287488145383
Ni 6.636126353833029 2.3260222158095547 9.994377844566529 -1.2078554142120488 -0.3957053749273895 0.06567265960746109
Ni 3.0976809384831268 4.446488631375576 12.697819809757599 -0.5932568576557395 0.6867797067062494 -0.4555583425292799
Ni 3.602744843657622 1.7948937602122017 2.4478135590039845 0.8633332470266938 1.0171140124269966 0.6160046928752166
Ni 3.935381722957823 1.8934556115596026 11.956482909869267 -0.2765730528388914 2.898207904325751 0.1591461434772743
Ni 0.9406941715338196 0.5413893814144324 12.72307862641469 -1.889517854296391 -0.1982215122121812 1.4545964712911723
Ni 5.417341605142027 -0.01377148909653465 5.5556504905346955 0.1780715196268675 0.872795163770542 1.5149433478103458
P 6.39136129998789 5.073415084123801 0.9857674805307028 -0.37012212714164644 0.7739262199167704 -0.09866762647624297
Ni 8.24232850889916 9.147354907801844 2.339869593784028 -0.5966363156509338 -0.03213313308911885 -0.4306240411814455
P 8.791895151136409 7.760799524882905 5.497125175248401 0.6082499886304621 0.8096717529474958 1.1636908038796927
Ni 5.5210845119832594 8.096865457186256 8.717088392383241 2.0396731071289644 -1.8056335567769097 -2.4396861082927725
P 1.8784933229092415 1.2471915484329519 3.4721354002266733 -1.0351801259000881 1.1831129171600463 -0.7745569115222338
P 8.462556158877488 2.222429212924744 12.309469251253743 2.1728233407631095 -0.4744502943377764 -1.9589659217858846
P 4.472150314915551 7.925750090930656 4.417720188338757 0.39995875088710475 -1.354172524245455 -0.5811490186486121
Ni 2.714882447765246 9.190077535382086 4.737673319126211 0.7557773169218855 0.7105582971830859 2.310707489537814
Ni 7.228078339748569 4.216751449161734 4.093146268094599 -0.20223577557789688 -0.7026364712328479 -1.4134174259497012
Ni 7.715772123972676 6.444530359531285 9.253314519398666 -0.3196158908619786 0.6762050165141967 -0.6167690818450668
Ni 2.738913925779132 3.621267351273003 3.691604161425615 -3.625727254843207 0.9022085839356527 0.2636851411326297
Ni 6.548226421386135 8.719894407067514 10.779198134613942 0.9183880219089925 0.30769959904036687 -0.7071729256506207
Ni 6.366795789129252 2.054639840702253 12.390070734822345 -0.7860942227378719 0.46420367690910375 0.07299310452827429
Ni 3.8029415774590727 8.988793997896577 2.1698616430064934 0.8466159342720129 -1.7732281438630109 0.9340313848732043
Ni 6.054096136033163 0.5573016863886172 1.1161745536204817 -2.4995807277658755 -0.8452956727986927 0.25390312204520143
Ni 9.40141400694514 2.297990175958659 7.320486633684851 2.1700298371783724 -0.32524609256456244 -0.08671688187227
Ni 8.362804444875987 1.7942191924083033 4.357330442594466 1.3179909321185752 3.2109597210780443 -3.2584377120543495
Ni 0.060848826610833115 4.219103067478103 5.521629787624744 1.1903068638053242 -0.33292212105258145 -0.22501189293214796
Ni 0.8516315465249293 0.4122771037482478 6.630255740139655 0.1626559564027457 -3.0505871613928366 0.18311705247057494
Ni 4.7952682929829615 2.458752800223873 7.210828141963318 0.47936881468531634 0.024204879380977668 1.8520476252650746
Ni 7.019524460376597 4.84272226418777 10.767419431238093 0.6517476548027807 -1.4469420400697082 1.719175070772349
Ni 6.3438698527939765 7.895413277749773 3.4892216405595873 0.4130047854377855 1.071697761210148 -1.8943957512139826
Ni 3.4586871415361737 1.9891786567322638 9.329528501542745 2.6211376001354667 1.8026819303477535 0.8157853220444016
Ni 1.1568744146887557 5.493080579124194 3.642321361952459 -0.41594098524797396 -0.6848148696703947 -0.17514817533248547
Ni 9.117167998577383 0.5658424643057552 10.825985033212675 -0.7196468897479155 0.7941245492415162 -0.735281768071695
Ni 3.59229841169447 4.140440966345709 6.052508090994819 1.7707763398884084 0.9286274402488136 -1.553515551656589
Ni 2.6309081251771516 7.276113188784512 3.8485432979023426 -1.0638209295652323 -2.766336023183397 -1.7380554526166194
Ni 4.729900798985735 3.3503534260295194 4.069546700855153 3.676621727700229 0.5270326964201827 0.007031967146116921
Ni 3.951608826240494 7.168528993059968 12.85486856350246 0.3991056588581901 0.34918846231277284 -0.4739365879261515
Ni 4.591520709213767 3.894654691797448 10.579064173094242 -0.46660123060700287 0.04020356880207915 0.32100402945875683
Ni 0.08343466834497563 5.312099658736575 10.67863038094967 0.32454341007058296 0.4650724526673023 -0.08033283272279713
Ni 6.121299953496557 7.118198739691314 12.49445073347837 0.32445882077657673 -0.4364321632227903 0.0606554088985278
P 4.1354004458110225 2.2205179374803645 0.5163582313911576 0.8492723980582536 0.4757178481962905 -2.488592604185488
Ni 0.5502674432335195 3.2231599190055356 2.539591319423567 3.482985263755569 0.15175473610920961 0.31314673819786715
P 5.9028243060089105 5.9822171889288605 7.608859685352847 -0.050508293162196884 1.699526700413802 -0.775908797564438
Ni 5.777879358331255 1.1451537990960183 3.5636527025219724 0.7808424874206294 -0.22956274552762398 -0.907062055373212
P 8.035404835053276 2.76668363370629 2.3840369207442866 -1.7195311685601868 -1.5817349515135986 -0.044001088171298414
P 8.05144455839042 7.108782897428563 11.539911057769533 1.0742562659659434 -0.43582821109020425 -1.3872937322794558
P 5.013303597598618 0.555178671605792 9.273500024030604 0.27006456229641235 2.4425135504392386 0.5857818894349331
Ni 8.151018261443669 6.534969290240073 13.6541142986563 0.06635143084204057 -0.13086092337933591 0.11353837294048834
