# total energy = -340863.7986783623 ev
CRYSTAL
PRIMVEC
9.38101234924402 0.00000000000000 0.00000000000000
0.00000000000000 9.38101234924402 0.00000000000000
0.00000000000000 0.00000000000000 13.73005982038151
PRIMCOORD
 96 1
Ni 5.034348364254041 0.9800531112475809 2.615288312993819 0.22099660112516778 -0.4558061968740279 1.0899268826236648
Ni 6.569982544692665 4.533852598964958 10.46361013908221 0.6712515291636634 0.1710117845666087 0.02334638803542431
Ni 3.7497313094640363 6.5986696801375215 2.69041896386065 -0.2166540078857559 0.08125277343390522 0.2398137338316709
Ni 1.9645340602747474 1.7802815987729694 7.0158958283361095 -0.40709099105651186 -0.07017774656666623 0.7656413542001589
Ni 2.3045582301028333 0.24649829205026044 3.419896795136344 0.2747393420642623 -0.7346827010351153 -2.3706149645267236
Ni 5.575829772041022 2.939315042640703 4.544910936199228 1.5249732212425222 -1.8193501350320538 0.8696129093878184
Ni 8.094518987645591 6.723840526521016 3.1796209285081156 1.009928293311835 1.6434751088358728 -0.19086610028837453
Ni 3.351873199146237 6.851347244953488 7.160857796252638 -1.0898919156206712 -0.040510044298904424 1.5827855042653
Ni 2.875946304926508 7.753190857115466 9.82653527841863 -0.21115776065787506 -1.3278948214958486 0.2511548698761029
Ni 8.223620478159692 1.5228009556876227 4.193901601032382 0.18406578953708946 -0.8327890556912496 -0.3790358846915085
Ni 0.18487067020871575 5.292035389608774 4.388470361699859 -0.9597365029487923 -0.3210580226251438 -0.6145049684012384
Ni 3.1868705747709622 3.917613904598491 7.1251874352926885 1.6089896734644933 0.14922528481913655 -0.1629994557850935
Ni 4.53205144461394 9.083840538991119 13.368148831229902 -0.12363638060643868 -1.017092415160442 -3.380951806130887
Ni 7.0728610870919475 4.65198768616479 3.485279636179516 0.8939998228726151 -1.2385140196381703 1.1398569346848886
Ni 3.8847146946556808 1.3869545173694493 5.340553984939317 1.3856243149968333 1.7873427288875219 -0.9481164022113607
Ni 7.352903064626242 7.301964168136518 0.969722740563514 2.0324148829046544 0.9828568910163396 -0.4248418872820296
Ni 6.297285899746115 0.7535607659107614 0.6726795545378156 0.4018855355961724 2.821331148472354 0.5361094619104703
Ni 8.968060085864753 2.9193522485835888 0.8490407085391964 -0.2848417206055869 0.8792200934602793 0.7957805967877004
Ni 3.859564200827145 2.1698844183152706 12.90205511404526 0.37440918455277455 -0.13598487486946256 -1.3998188613296603
Ni 1.6592853028384484 7.339713361409934 3.7481412278885284 -0.7720914807008767 -0.6794790592797781 -0.45665697491009744
Ni 1.129661494529 5.665784298457221 10.414841070724728 -1.0803731774969587 1.2351854694855695 0.3518377270101618
Ni 4.01356289783917 8.652623549130508 4.2820896828428685 -0.7679368351025548 -3.318904916201471 -0.3695629122040668
Ni 5.822315868775364 1.8613054015320376 11.638573479842982 0.29003277788822307 -0.7031519774166858 -1.3838759648471586
Ni 5.122614308466159 8.207494518110737 1.6458910935552022 0.36602815957793094 -0.8937866784205445 1.1091715897858896
P 5.799501246995805 0.08356418087498278 4.611610871361582 2.7344414884676453 0.6547568739427498 -0.5352430001451168
P 9.32500760178261 1.5775860671977486 6.429869622005517 -2.4371533145685897 -0.036002386236537995 -0.35869357358973064
P 8.00607480420082 5.37847203643314 9.026580716450791 0.8109642465066742 1.0709395428878847 0.12967898725609278
P 9.184489419366484 3.467587985186888 3.301022484171616 -0.6284999971287498 -1.4415409236587948 -1.358945520154066
P 7.76948567538483 2.096534283572518 10.730000867597749 -0.7167171176956302 0.9072011520542376 -0.5648304839942466
P 3.3321730734319797 0.9188682731839948 0.761432373285444 -1.3567569971431794 0.8287722212223727 3.015389016225149
P 4.818087888972715 3.8920318842066903 11.373171510018054 -2.021926324668505 -0.3667737794947038 0.7324597252418676
P 1.1338360449779736 4.184165986524641 12.251593548908229 0.3158443396346883 1.1170509925339664 0.25639760633228104
Ni 5.66916146286538 6.667995360627219 13.32476164959731 -0.9361800557850908 1.4633143107801443 -2.1259320755282096
Ni 6.01044268833428 5.734753500481612 1.8544919723385778 -1.467818626408401 -0.9265916407657073 -0.8834086776203303
Ni 4.061209059030939 1.493110051932563 7.949786854529063 1.366591209624782 0.3370006619973293 -0.8841992918424255
Ni 4.548815313495549 4.567689910132257 3.5304238814055737 -0.5764179317215299 1.2444211291512244 -0.08365469800717851
Ni 3.4026057133665724 2.528511135424963 2.7883557935960206 -1.3540074594225004 0.26508793501742733 -0.20484827350007945
Ni 4.047372065969735 4.584359968891417 13.523064991239476 0.348784799116451 0.08982380293236789 -0.0005733560049667545
Ni 5.084396064580499 8.117108465131272 6.481316031257689 0.3436109682249953 0.4648701068485091 -0.20068899991606728
Ni 8.269268483743302 3.470205287603211 5.453305309211809 -0.5910037999555047 0.17793345138710645 0.09992720991495693
Ni 5.960338701934351 3.2552675350484153 13.449403406890193 2.0121648744063667 0.15714762499000678 0.3040887417606569
Ni 1.560981675524303 8.76355401892627 7.989810005170638 1.4812477553301135 1.1394998084557861 -1.951185249399201
Ni 6.500825722423375 8.81105008392212 11.12682706656861 -0.46295463499335104 0.04099855389954875 0.2750820701156617
Ni 8.898171544640363 3.955147334590274 10.618168882525255 0.17773316245084228 -0.1208585607509854 0.2228413676433904
Ni 8.135851727596553 6.664017811435388 11.820908462441905 -0.6606349299900816 -0.617817320603923 1.1543954946206958
Ni -0.2828450239930657 1.9952287323400095 8.569520914057975 0.09431680570671498 -0.24526704363675825 0.6857211835347481
Ni 1.2121393541860253 3.8949306169903597 8.78538457252134 -0.16451126444392955 -0.490783227169845 -0.6890510192389293
Ni 2.9102057616448267 5.691047364432694 11.723877838489392 0.9623957949485104 -0.4030569301964542 0.23676774791649544
Ni 3.5180953551133465 6.831159306602496 13.85170811701207 -0.6143172778704645 -1.3827817033417154 -1.393964202321096
Ni 6.257669885035968 0.8640081135759098 6.625824896282789 0.3356986553564541 0.12984302363778283 -1.0946250594302827
Ni 7.870369081066319 7.550176371123919 9.70096011040738 1.202309030472523 -0.5737115885339603 -0.9329579493033674
Ni 7.483374182928095 3.7500690259048524 7.70263189162166 0.4998515080197004 0.9808691711623495 -0.16555384677583102
Ni 2.1649593868867063 3.235548647309668 0.22287596511641664 -1.8994996480994515 0.008469213813275736 0.8083566336804983
Ni 8.421550455514513 1.6241815550180905 12.88666368725508 -0.43222558134061045 -1.1501266920420126 -0.6085011854093197
Ni 5.0365529021315885 4.445708607912023 8.538709917440876 0.5203437144357813 0.30900083435029363 0.7886079902986612
Ni 1.262703010185953 2.3217161014987275 11.27984826210472 0.809795937230186 -0.5878308015441619 -0.5689938713433168
P 0.5380001141429057 8.287908555073885 9.609050581039348 -0.5992130752391744 -1.356384187184793 1.8174675732973602
P 0.046448205928096974 9.118175043807396 3.308916605975686 0.0333862887699296 -0.3093427910707447 0.40279827721842887
P 4.1441184452512285 7.525297926650485 11.694221644479638 0.026745129304328128 0.6772059469748853 -0.5992693823984067
P 0.9264593882925554 6.50978458911724 5.829206222269232 1.6184423342369612 0.7652202075023402 1.3979841221137665
P 7.3396101702752405 5.8975046819181145 5.375867867433961 0.34478390548717397 0.14744376743868157 -0.19653435431774538
P 4.980416924858199 3.5953855149989504 1.600183987594451 -0.09041387110788299 0.0623317681596862 0.8958571877963282
P 1.017417683018956 0.267788499340026 12.623636989730556 -1.0207341256780873 -0.4037727253165562 1.0024708085925251
P 2.8577189981346973 5.425001857167769 8.78642774108297 0.26867230993457597 0.35477058438624065 0.7911006748135279
Ni 7.646350508658476 8.41882058095125 5.374742145964574 -0.4388052914406572 -0.36628167034963366 -1.1963186172170428
Ni 6.991659045100227 7.005308417916534 7.332291104521781 0.44082540719447955 -1.2383389275128867 0.4088295710141733
Ni 5.471100151339131 6.941217342259481 9.622602391328307 -0.6403646097768197 0.05076951724338353 0.07687084231612568
Ni 0.9167434739105285 7.37337243334458 12.809376341673147 0.40117899644745103 -0.07306175298268063 0.5052986471772006
Ni 0.851517295771846 1.494667299965214 2.1136874644622896 0.17714566537848847 1.1971200300724159 0.3892349367116974
Ni 8.810731129505793 5.234060733935388 1.226466036086413 -1.0766039402625136 -0.35906689776874934 -0.008341172875843699
Ni 2.1491617622663206 4.756351447389131 2.9108005178211522 -0.9586388990092393 0.0321182206907834 -0.3909110388625397
Ni 5.8889773417875135 6.847182075516759 4.011964373352642 -1.1793326241820077 0.4157041866468195 0.664274840735514
Ni 6.848917562782063 2.4956213064943977 2.191084567887485 0.5931889805322815 0.7395963362866488 0.3118537304180564
Ni 9.498556328312974 8.905760783546475 1.0491029899772784 -0.31020333929882704 -0.6609545181130294 -0.9371964128647473
Ni 0.805762346648646 6.2932614454930595 8.169399165485485 -0.5904155315522025 0.7886676398920031 -1.3365542969430593
Ni 4.574312904777146 0.2446080180829162 9.854722405910834 1.0742652648270081 -0.37924208716504365 -0.32373068436130054
Ni 2.523004481237216 8.1771188004618 1.3836327009335356 -1.5908885929884087 2.458780405920062 1.4143396806536546
Ni 2.80018525003682 0.3619654193676467 11.326612608145469 -0.34557580526085 -0.12132110220970072 0.2660369291942579
Ni 1.3562035592307176 1.573327087638571 4.744545443478943 -0.9587080616842779 2.636006803937815 0.22616811802377823
Ni 1.1087887422841318 4.002971735014695 6.242453883174765 -0.5943711737658409 0.24113296686372662 -0.2915173328535496
Ni 0.8683646556624343 8.749604453718126 5.646926587642553 -0.6281572690773504 -0.08668114353832813 -0.24425839986658582
Ni 8.376906218241107 9.0621422576687 7.542841357649643 0.6048155090276164 0.8752382259943958 0.5033734051300298
Ni 5.295450078065913 5.290224854245512 6.376981351171308 0.48045073489558554 0.3378622386666762 -1.1686448054508585
Ni 9.1441135426645 0.5206058412384408 10.853515965320021 -0.2927774305128958 -1.97137740807636 -0.799372942124649
Ni 7.3131932397936446 9.105717059546189 2.5529261578934994 0.1220384399916995 0.19256354259545547 1.2486055995462173
Ni 6.455065144692829 1.9238298481441933 8.625291969955038 -0.21488534602110734 -0.7803830312857076 2.313473996539358
Ni 3.0819439528119283 5.823798068710056 5.167486504337115 -0.47620018714934764 -0.8590513318218883 -1.040544475535795
Ni 3.374059293105389 3.213475125497455 9.600469769138952 0.593609870119784 0.7279875484031268 1.873527649515722
P 2.2756928554253237 1.472537492079531 9.166723658377121 -0.9457409600006486 -0.9866922056020297 1.4649148224980448
P 5.635174055502162 3.0576002260364525 6.740004010618953 -0.5674175279951325 -0.045429850198024986 0.4913758664485215
P 1.1340611892718508 6.3344722322848375 1.4334590093710156 2.0470922824111715 1.6121277048728426 0.3045224868639659
P 7.074530907271537 5.216893481527249 13.516309724321934 1.8352462374370198 -1.025364425361247 0.1961324908936364
P 2.966576264224338 9.247389106468436 6.246655638559249 -0.30989120737504694 -2.7052697519996958 1.227684533122834
P 6.904912824871779 8.748957163873229 13.1765594800514 1.5192111219477642 -1.7365780967401447 -1.2491794697718164
P 2.9532458458243567 3.2960561762891736 4.971022779196171 -0.3810380027232018 1.535996311825903 -0.8691290277728645
P 6.384154073133747 8.827992192036382 8.598614247333035 -0.9921198043755044 0.41037326135220936 -0.3197501024469977
