# total energy = -381161.24146244006 ev
CRYSTAL
PRIMVEC
9.26440524741842 0.00000000000000 0.00000000000000

0.00000000000000 9.26440524741842 0.00000000000000

0.00000000000000 0.00000000000000 13.55939354003946

PRIMCOORD
 96 1
Ni 6.261070458196966 4.755975156728115 9.983361244328268 -0.25434483756831033 -0.34772679016558183 0.6583746732009952
Ni 8.683832907864723 8.342013406184343 6.353280938035571 0.9357077441343628 0.5392066127785552 -0.24010992491585098
Ni 4.292977232400851 5.783379186903497 1.658286876979366 -2.121685384436714 -1.2900846926266105 1.3004259266516185
Ni 4.971650514466604 0.2370224006637904 13.276016156422342 1.0086170306995792 -0.7354442617914883 0.3719848913819981
Ni 8.671270374140779 6.071965415148941 10.793439926163218 -0.9486601905299727 2.1372937803979317 0.4854327614912092
Ni 7.792800925194089 4.598424678476365 8.466119380937984 -1.3422408058048754 -0.18836390269181105 -2.8513917153031607
Ni 5.302741834692467 7.664915073036782 4.548647954696592 -1.097875190936464 -0.3762022718974553 0.6176594548698201
Ni 7.724837247171341 7.051537320238249 2.079929422036491 2.37058333995784 1.1343601732363753 -1.3576388855275006
Ni 7.5704551955667805 1.956633156314908 7.78726822228853 -1.5039930194464293 2.6589140475532917 -2.0792418705605225
Ni 8.843551256980339 5.176959002561219 1.4239937701467509 1.495441273221676 -0.27204816838534435 0.6651209907858933
Ni 7.523679212696436 0.10636649129154362 1.5524419717119062 -1.9004977503466627 0.9093387672225307 -0.7472399688748357
Ni 4.385297032223189 3.21584187403216 10.211389760228634 0.44085471777051816 1.1888318219216945 -1.334601801202379
Ni 8.762997252017446 5.213729427598335 4.127140669958323 -0.7012025669997988 -1.4516253044779903 -0.5635133078447199
Ni 7.453371640107202 7.282295129969791 4.3991686264303125 0.05022161515971351 0.9652988275279182 0.21611896131789232
Ni 1.4679450358102888 7.415276405097723 0.9750573603373337 0.36823339475936584 0.19069846436225865 1.3011800312088238
Ni 5.031415193709344 3.501185560387205 1.4948692507870756 -0.18095706870477868 0.19932348702710834 -0.2823680622541137
Ni 1.694209608922278 6.4717708302350445 11.46705762220157 2.370894700550672 -1.1372680909117898 -1.2346874468032283
Ni 8.89656218468565 4.071187367097611 10.240501301320629 1.4801720057674315 -3.242765552734731 -0.5290111603027922
Ni 0.6515017074647556 5.264294552277745 8.106930972011549 -0.27172780893144816 -1.5584916647149418 0.6629980309056195
Ni 4.7481096765425495 1.2665646556057557 11.053374127824561 2.0747797210241106 -4.107795470737558 -2.5693712661964523
Ni 1.058263764566573 0.9430423545926216 13.04901784240258 -0.49054848545121965 -2.6971792616820776 -2.6119687891520047
Ni 2.8875669330482427 4.439141756414602 11.392955349160028 -1.582751565703571 -0.8168942388378642 1.969648341200395
Ni 2.76069090107966 3.0204462997167623 2.1754695291762647 0.8985565890053622 1.5450453094020486 0.6202994635958285
Ni 3.3289324707638497 5.765600792938714 6.0062965303440565 -0.9634584318850697 -0.38908992649340085 0.43422512826914256
P 0.7869547259537115 3.7942928184684037 2.814550448319715 -0.8731741443765156 -1.3959082134213443 0.05271378545394793
Ni 2.699008489918884 1.6361866378949514 9.215356859622583 1.0688181256695077 -1.0727796814204171 6.556313061279031e-05
P 4.5816097826733 6.986982943403121 13.675733559657134 0.5986263494977689 2.186288208018764 -2.4267100077480785
Ni 8.02942310354455 2.2669073576044148 12.99339713169577 1.432797887358842 -2.456396221958602 -1.5635397686618107
P 1.9503611538583374 4.5755045395139495 9.681352745537655 -0.9283281638408399 0.05614209440920654 -2.6431117904137125
P 7.458782052861465 1.080127761313258 5.456042730186715 0.6535219730943842 1.1396175649805729 1.8373825670537325
P 2.890216552992968 2.9597181223123035 13.48011193384995 -0.02103625184500893 1.8156207498966088 1.142359389391768
Ni 7.2441072509063 4.1915968440962 12.11095232639145 -0.5121922889732404 0.19921447225306982 -0.5337700151440162
Ni 6.273707107164118 5.518463514457962 0.3113349757079373 1.0444782633725624 0.34478056305306426 1.3316807709008422
Ni 5.639039750753771 7.667073679495247 2.2332868304036855 -2.012394988139302 1.6757565945773978 -0.7776309224618672
Ni 1.311561872639082 8.410078992666502 9.98306293047435 0.32416057280986754 1.518288610133495 0.7947747812310054
Ni 2.8863532959406935 8.430284660846382 12.877166827973637 0.018808648066070837 -0.846788198183819 -1.2132213065096524
Ni 5.857373992842385 8.567712850566862 10.462577436750761 0.4993149187899401 -0.4756815956417163 0.09771914652004461
Ni 3.7729568928295834 2.554493030066535 4.274368747712125 1.5905906021320155 -0.12652938588351756 -2.131191009934304
Ni 8.53285089304238 0.38817024834281394 8.744670405252915 0.20500665345481467 -3.1653303532747037 1.825084980633302
Ni 9.196302757034063 4.181433791371152 6.276101029519772 0.42915516994540287 -1.2452562234580102 -0.21465780339133353
Ni 0.3908587787902241 3.8171295777822087 12.368486120613362 1.1125978418586193 0.48508617678506777 1.026364070270355
Ni 3.5437462388000327 7.914229486786802 6.312331339722002 -0.20823570191507362 2.7988735907997864 1.0225686077836649
Ni 2.0587732258624527 6.851824533005921 8.282769386525146 1.925484502198987 1.1445219442607257 -0.23545828507645256
Ni 6.448174389678345 3.027209315659593 3.418052344960635 -0.7097630549753002 0.9096349583067108 0.3983399843367591
Ni 5.746395680542156 0.802503177538441 8.592669305836447 -1.339698756109312 0.7081556012788642 1.6825728461682827
Ni 5.30496529198874 1.8448766339609823 5.866457742338201 0.7454792774299871 -1.1567107730174337 0.6496897438324875
Ni 7.05260272685938 2.018343360691887 10.336529642625042 0.2064199888625735 0.1367639191273322 0.09398101963385104
Ni 6.372465668740247 6.570955554459625 11.78753378671881 0.3519979067371099 -0.03354826826909061 -0.04615233018634632
Ni 1.7231608758008334 5.651092742180651 3.0283006626158473 0.24817598975343708 -0.8921828242685343 -1.5851483480705217
Ni 3.9192974405459564 0.3143950088119331 4.471508809564558 -0.4056231482617337 -1.3774932012492664 -0.4895917779649053
Ni 0.5425448884230537 2.2042243906603165 8.685090087677658 0.24059714896491466 1.7838856235768568 1.5896742609653332
Ni 6.469139739101121 9.060301285745359 6.768578291833458 -0.45477055652066195 -1.2946468580759962 -0.41222471273865136
Ni 7.401111129239383 3.4314987029598467 1.284399562443486 0.46004594598698834 0.9560744807161726 0.9677897122705719
Ni 9.042374661294158 7.309838207227372 8.74218847104595 -0.5471166116542513 -0.3076201519526831 -1.0672466674173295
Ni 4.278580346407483 7.689882645592848 8.774039496815062 0.36944746967212505 0.9191141014417397 -1.892878800348824
Ni 4.029395634333079 3.73026651274114 6.089564079648942 0.8508387141041089 -0.05366175118951404 0.8262587107718996
P 1.718074717235609 8.79528370484041 5.188149477845253 -0.18640189386943382 0.057279807558075546 0.03982484530642173
Ni 3.0649710320746304 0.9900684764087974 0.923821492706881 -0.8143850992627653 -0.9995641764686913 -0.320292605214029
P 6.45202838232522 1.7159531683987483 0.6388696907003041 -2.455618977472945 -0.9318719153280403 0.37677151413736404
Ni 6.330294095354268 10.075133517791398 3.700398996168412 0.45289879341924577 -2.365925529470854 1.3249899891442278
P 8.363117721688134 9.142096721032004 10.954282047653994 -0.12211608730717034 -0.3768663878440155 -0.4145631310638409
P 6.193236481849835 5.526681042048771 4.717163783181128 -0.5216860873962886 0.4874485063696573 1.5450285972315003
P 4.00653108180307 0.6911681856302672 7.3769884704559 0.04240906109383019 -0.5791440724034413 0.7567414806073677
Ni 0.31100701575673695 1.5823233848927363 10.90069487393273 0.3157126991528305 0.7304504081213227 0.45038039787276624
Ni 5.5485450387954565 6.718463417256542 6.812225684999838 -0.629162056192781 -1.4923922019827072 -1.543404431364516
Ni 6.5257267272912705 5.444413122086667 2.678901950876795 -1.4078270763461174 -2.652640041619122 0.3110474324666772
Ni 2.866694227679479 1.8392068178554861 11.772740384174273 -2.6546516727325122 -0.016538621084971516 -0.1467994489864633
Ni 4.759486366375145 1.2383545411592911 2.3966497966041094 -0.8895767541042551 0.24976570283806016 -1.6554106839311942
Ni 2.27704261711326 3.287279704080334 7.539727942172827 -0.37774570512517525 1.3935309714384194 0.5589182322748697
Ni 0.2658652739991528 1.9457289511577687 6.590191239394008 -0.5459426459508082 -1.1147238870626868 -2.56891849492975
Ni 0.260900479144683 7.571288992052883 12.524351403522644 -1.848173487021649 2.4304905578364333 0.949134816173546
Ni 0.4113368204888992 7.270140230083497 4.189391915610729 1.7104500321945253 1.7961238175142615 0.38561816589471654
Ni 0.9949415536497959 2.0443948686798867 1.183735312676343 -2.638919349598919 2.335624050273836 2.5203457282273694
Ni 4.182823452181322 4.951982181799988 3.837606693040344 0.439096854539147 -0.759937361836846 0.5337522745322033
Ni 4.722725205743431 4.737715013682472 12.418222081009368 0.8337439634053513 1.656173787349464 0.558175183461258
Ni 3.0135350532875136 7.054446343534207 4.109648546120435 -0.020714606839532065 2.1157885593363046 -0.395458549023906
Ni 8.621048032461212 2.7468220861941566 4.4088638266826035 0.6713168351839599 0.6052148013485641 -0.5293094082695012
Ni 1.808411934302104 3.316703455634348 4.834764292462091 -1.4256139680158932 1.927347523549655 0.2574036789992922
Ni 4.54733148268909 6.179284287315721 10.456462002745472 -1.2984947710671766 0.00023191350514798772 0.37273051129877094
Ni 1.9261532625451645 4.970270118061834 0.4520186774863756 0.6207704896949761 -0.4035297560678147 -0.09341203450425847
Ni 4.081507914714479 5.022539893335053 8.211446435103946 -0.529764750639365 0.41679459149752085 0.6916372919088669
Ni 8.595274456635247 0.5724902260011515 3.7735118307131112 1.9280190956953827 -1.660890990319475 -0.7286202968911194
Ni 6.790030948980331 3.7757547432607272 5.705792570990589 0.25205578442381754 -0.04387613255765992 0.9330805909241607
Ni 5.664322313093476 3.3651099738552928 7.84524857705101 0.05037279602559711 -0.07452188246797489 0.9562737412111725
Ni 2.4415691926320666 1.4124790406736765 6.136872765829852 1.5231845047732155 0.787529926743134 -1.4294873349283703
Ni 1.750741010680021 1.208912260794475 3.669579098720447 -0.3838577315601841 -0.5221177756170685 -0.4001323003504915
Ni 1.5051601523066593 -0.11776263637548326 7.451022186897473 -0.3946550792860042 -1.007629212865013 1.4045178094672264
Ni 6.753714479807871 7.225847107860657 8.51836414231662 0.5744217272271075 0.2626836964513089 1.7576639708761665
P 3.4390955153887797 8.204140525004608 10.649913904807711 -0.2977520009093517 0.11227930372240663 0.9267880730472297
Ni 7.934110900777644 6.0252264899002 6.438027086442479 -0.7976119935694844 0.8780970355994298 0.5204247041853618
P 3.264887636225784 8.367879626064317 2.3037139138225955 0.7464786652287789 0.4441238754400932 0.13623375765547507
Ni 7.14795198724789 8.623892204919361 12.591619324699765 0.388932317869614 0.512499278690698 0.6795078556351847
P 8.30129634444634 5.8497308583864465 13.075797532655113 0.16672215605231933 0.3069218403340779 -1.2339490259753072
P -0.0535389988131755 8.478533684175508 2.1802694176145945 3.1179948014135332 -0.24553778079964164 0.26300431301552124
P 1.1640447454367646 5.975958381976949 6.004519617388117 -0.5569677934167182 -0.24561080012942219 -0.1733247489705015
Ni 5.1310260805823775 2.598526748938143 12.67048072279587 0.4649089305062445 0.2523013247757203 1.4142766886262028
