# total energy = -340862.2804235533 ev
CRYSTAL
PRIMVEC
9.29506778349769 0.00000000000000 0.00000000000000

0.00000000000000 9.29506778349769 0.00000000000000

0.00000000000000 0.00000000000000 13.60427126100209

PRIMCOORD
 96 1
Ni 2.404866343108523 3.1427459828083086 10.77795611230589 -1.4162703220174642 0.9560210017704182 -0.7681756905862384
Ni 1.2772538175252814 2.2341996084450173 8.19269574637824 1.0143765588911755 1.599966901140593 2.207614994520998
Ni 0.961844291500732 3.1535561463295583 2.382611162954674 0.8287678503469985 1.6030625093467812 1.0914124660302558
Ni 7.745338089428588 2.5949876540832717 12.736358983959814 -0.677805271121781 -0.08276021121736714 0.7475662418660028
Ni 8.73320856997446 1.6934311704921032 3.9476876756234076 -1.3801699767504814 -0.3982404826444174 0.6203850813310993
Ni 1.490064388306882 5.5899978337903455 10.43097960748984 -0.6271892487371263 0.7421990640168186 0.13127461387798683
Ni 5.367957260965237 7.720501669025512 2.6531729177206884 1.372833590990068 1.5038870899961843 -0.39973043692638255
Ni 0.05807558184072685 0.3412302940775831 8.064448911338058 -0.5600014380367193 -1.0501840555080881 -0.8038001246580673
Ni 7.865067854103749 2.52705000560794 8.239168295438592 -0.9310329643665127 -1.2365106160548964 -3.021908562511222
Ni 0.7959812477295575 7.211485181707669 12.341930229967213 0.39065855653210135 -0.9988208705447637 -0.7781919371716598
Ni 0.4145581522055137 6.947542444519884 5.028954994571269 0.5005197377313187 -0.6088161455465773 -0.7121037872933349
Ni 3.2097076491944474 6.626611648390759 2.8958457519113328 -1.9475157709674138 0.013926637383421175 0.11276935598494772
Ni 1.1491399019505792 9.344796127332703 4.552913688773617 1.0975180647073615 -0.044688086935994006 -0.25627445049085545
Ni 4.134808538803951 5.141362105057228 10.440039509797804 1.082724708448271 0.14726584709992058 0.9766211945192729
Ni 6.055875912765869 4.9161147339390565 3.218130839377557 0.8738824832974497 1.9374972103891468 -0.0021278449762802067
Ni 8.27204309022961 8.91367230579996 5.674517882714438 -0.32573305950331 0.5309847390893953 -0.2884142684481936
Ni 0.800892761405076 2.1793958903699653 0.16483036177013338 1.3076826082140316 1.8511595662331668 -1.4704393518606997
Ni 5.0377499874550224 8.855420117676426 10.383582199211634 -1.3999461309361438 -0.7596468271796207 -0.4642530420898005
Ni 0.2011564151298876 1.0704850406291595 1.9769456018418334 -0.7480958891172277 -0.6793715871676365 0.5988940013368589
Ni 0.4345825161554941 8.650445288810914 0.6187233806903698 0.9518848681148574 0.08623634269142567 -0.5968000949223077
Ni 5.190849044513058 8.470808813994353 6.893420054893764 1.3551132908921695 -1.75000105501427 0.25351668524006016
Ni 5.914618771723372 6.078063238926851 7.136338278866834 0.670948653211264 2.770606882644609 1.3699588405454342
Ni 5.889020155783974 3.9108717722055535 7.840413617023989 0.3990616929941321 -1.135576819252296 -0.49936119864684325
Ni 2.9618174936070045 7.616229601629662 11.449748751472804 -0.8458386897863562 -0.6337059668097216 -0.5730384737263357
P 7.433358443317489 2.882986026002779 6.108957254830185 1.6933190289411935 1.4849647991703845 0.39475200987518466
P 2.2392654202413036 1.635086031693409 3.3747164762608906 -1.4253871967170677 0.39365569148721236 1.0491874959227738
P 2.600769186078299 5.0250064498904194 1.1524926328036442 -0.1527027018447757 -0.004414327017611752 -0.5600870557719902
P 3.466734856150238 2.18710150134083 12.609703464478391 -3.269388040418266 -0.44086474507284723 0.7768873594276233
P 0.46001846841336047 4.487732957323567 5.507594271739674 1.2629502983036636 2.475285345553621 -0.06837720302281773
P 6.054593193448644 1.3891106600142868 9.38932786629569 -0.13112497567399997 0.10095976494452935 0.3538624707496745
P 1.3681967581030134 8.108375541405744 6.58963679931838 -0.31006578527969825 0.2856981550686112 0.5126481455637364
P 0.0579268607604689 4.301933852743815 0.7917752296785125 -0.8069816077098424 -0.5841605517814262 -1.4630903676947964
Ni 7.530454718590893 8.626092211918678 1.3165570810104492 -1.9356334177075312 0.8180568916873976 -2.4882946133290953
Ni 3.0899871795868035 9.118749380408147 2.786808103399967 0.04317139318115146 -0.9063817414767358 0.7295507791251887
Ni 0.22998692604464155 5.517626438109825 3.0371670289196917 0.22432129462302658 -0.5582433176950321 1.489226916880848
Ni 3.7143461597121976 4.604479005326052 6.943851373209232 0.902121166428169 -0.7130113867092688 -0.2953796440224333
Ni 4.278324381252867 0.966668431541599 7.873172223471056 -0.09388588881688348 0.7027691401559704 1.5788200918596487
Ni 8.130339785946338 3.950887037862456 4.335082852026559 0.7290231887564927 1.4348290588562582 0.2308740081398798
Ni 7.310905223860105 8.386660567770905 9.632762896022658 0.5625326890990054 0.5607912809278665 0.6134580151939629
Ni 6.2176007924788665 2.835934394236172 4.376521192520181 -2.3047924096049597 -2.6377307286074574 -1.3126589783827005
Ni 2.8006131376749104 4.866404712862839 4.605575823292955 -0.1414232722762145 1.1567897058844852 -0.004560365677172791
Ni 6.901578335652664 3.5909169581656206 10.024646660529344 0.06819285492615353 0.3230614262084178 1.5891597832227597
Ni 8.73920388852236 6.561741372195747 7.206767005436486 -0.8339753626898668 0.15385841271577372 -0.9832896076783839
Ni 3.8413911425225455 3.0764442662158142 8.89678502713667 0.757627739867063 -0.5087575522600786 -0.2429635923145622
Ni 5.535463672673262 4.801664567613053 5.454061189394076 -0.6277690324999963 -0.35557251146224567 -0.9723068834146352
Ni 6.331679156104225 6.834560898861428 11.027580727491841 -0.9081285489645133 -0.6674123579232312 0.7926428224896671
Ni 4.944687771483614 2.5947552773953686 11.2725392187847 0.9933145960145539 0.015875533579675884 -1.433693402589918
Ni 3.6139315453355376 7.110392027402332 8.202504831128003 -0.16115263238434183 -0.05605082024698088 0.5231690996997184
Ni 0.36925864066569575 7.613208704686922 9.10966438141789 0.6358312406828405 -1.3119969193186696 0.5235650495865564
Ni 2.369730987897584 7.2253348323066895 0.3522607506989644 1.3989032914939261 -1.1030387374152746 1.4008115642602328
Ni 0.4335228784586562 4.67482407628806 8.346451035202914 0.3894624793414712 -0.28482629398661913 -0.17994071162512235
Ni 6.495774278033834 0.8241889891207312 11.602755787362431 0.6552890922971359 -0.2928962154789472 0.6360114750144467
Ni 8.163876389544505 8.388268614451194 12.477102819813656 -2.2050138094527254 -0.12533202314130673 -0.7929570112959763
Ni 8.398456008448862 1.2104594623544327 10.153928036584071 -0.6324088452648529 0.09970198127802829 0.8659303183299087
Ni 2.106076397802799 4.5195313832962185 12.407734660447595 0.7342646396610903 1.049371844019438 3.4032085606465583
Ni 0.2478083589933012 1.7907505273858948 6.163632700973514 -2.7555569302900222 0.11374534674497185 -0.32219059356769025
P 4.02588893765004 2.413222608805517 5.929693512221017 0.8222760719750678 0.6130780061467248 0.7235292555214572
P 9.177475616975002 0.8775900815076007 12.436765944820696 0.3920963174198925 0.6676594409370308 -0.8785109832083967
P 2.7831105255420536 4.878348874621055 8.906076376625784 -1.817365500501857 0.9061727107897233 -1.9668970037075029
P 6.012709619221001 5.621731194290385 9.28675121921478 -0.35527632037806556 -0.3257613416380842 -0.9097853678416462
P 7.4323731661607795 8.293384565246626 7.571143876642715 -0.8841393851387677 -0.4275569722203475 -0.9571399458662097
P 4.653817223701625 7.926099267414602 12.531329314195958 1.0196033545077536 0.7960135387341131 -0.49649184751884823
P 2.7169761201648495 8.68546910321166 9.636721665277774 0.32689674079410797 -2.334502792185199 -2.484786857286153
P 7.276429818442811 1.3094240461985776 1.0523559409457162 0.19777645425496262 2.135342313098516 -0.5077615068953966
Ni 6.11394219953908 1.3526275200135103 6.41819578553078 0.09404426877161869 -0.7954772066146688 0.43266523998119033
Ni 4.184407019069976 5.775583151817227 12.766927672500081 0.6649968065032031 -0.10352495456854428 0.15702112671447152
Ni 2.3024904694859614 0.9152248803736248 6.670868253355268 0.9598668578790693 -2.296113393773723 -1.0969971592068848
Ni 5.242278653079758 1.8214149551215795 0.13745452892165244 1.0653710476611715 0.18449387821344357 0.4821245230535826
Ni 7.712238354003681 6.057493254513674 12.776519252669969 1.1903132915632273 -1.5796595570418084 0.2079935039972805
Ni 3.1353749942680245 2.0139529836505194 1.4895317809382083 -0.5127368486228008 -1.1879018539082573 -3.264615558730287
Ni 6.154245612288983 7.252411363981152 0.2363744964417202 -0.7167788241715011 -1.1695963707308503 0.11467711453062186
Ni 1.016480698360494 0.04538688517446945 10.724328220271628 -0.06746548984182574 -0.3192435951242244 0.5531075391303636
Ni 0.03141453968423568 6.3891040832188235 1.0219963914245604 -0.8546328910392185 0.8062028205622889 -1.0484603879487622
Ni 6.245997223740618 4.487063712462406 0.29313296721541265 0.2615069025343883 0.12112724103133977 0.3097076306093311
Ni 3.808449423245411 3.1869719140500146 3.21185945732443 0.024870795099750716 1.1826156658086535 2.721571317373197
Ni 9.149785610844475 4.358252666823995 11.984586936350432 -0.05334781949352103 -0.0787372061009031 -0.7080645842269548
Ni 8.702544142238777 8.33346489637614 2.995279736665042 1.9322210495918721 -1.05501875789257 4.215312320074314
Ni 5.143955428894226 0.9791331170807179 2.687823070407286 1.1756981127532138 0.832513947652992 -0.542655233448788
Ni 4.478205513119542 0.4373821904913499 5.0154046451462655 -0.5805473805088711 0.4850797490271646 -1.0609888594330759
Ni 3.198311896419683 1.1962101238522183 10.314404588729651 1.0286932326241638 -0.15947473046128663 0.5652580584499685
Ni 2.356113713986466 0.23995681546243341 13.076724836758398 0.37627606255818424 0.762438530992145 -0.713731809815061
Ni 4.599952307445702 5.576371264811712 1.5219371748196624 0.2746861202288237 -0.43674120982277687 -0.7350804506941663
Ni 7.59437689789926 3.5098360842224934 1.988468697041569 1.8094701569141804 -1.2467911720452978 0.3072874512036127
Ni 3.358819122288068 7.7285047221568925 5.419152633830531 -1.1779084901409713 -0.3188242481986186 0.5921307144710963
Ni 7.206781877544511 6.837842057694619 4.840250251885976 -0.7121207565741994 -0.41913995180124586 -0.6647602650123647
Ni 1.877994031092211 5.907740421761441 6.867191233376773 -1.0435578084408221 0.837262775191887 -0.15150071111687455
Ni 4.364573312734958 8.689568227986271 0.9019849862036614 -0.7082401905728706 1.4572886734113548 -1.3548952613440923
Ni 2.0003914801444984 3.1326701296208332 5.968044031285783 0.6126751142813512 0.17080815319623485 0.2949109319161308
P 1.4496773199493342 7.791924967819389 2.4691342989284903 -1.4177682467192294 -0.23631086288473496 0.040652740524355795
P 5.471178985731766 3.2661380040848207 1.9707011754845032 -0.5828917123713316 -0.5270254973313311 -1.0173492683662544
P 5.970175390267229 4.361208498294122 11.881970320479203 0.21450610830481767 1.0740042978561375 -0.5242494772480907
P 6.598652085302266 0.33416697227208236 4.252110431843901 0.5582158068912064 0.43361551970960155 0.36015138908217975
P 8.64667149139937 6.6729847402286895 10.901142712590298 -0.0356696854874676 0.11926190568782688 -1.1299180783046217
P 4.827300363822516 6.692420726404899 4.271496224655524 0.36913328086581587 -2.4150683097440924 3.5141843150661933
P 9.15624568276818 3.1299373797710937 9.684254781541714 1.8531737684497178 1.2828395810284228 2.5780335698571406
P 7.264439181347013 6.771010522253706 2.3555662345097668 0.9547719598546655 -2.4185634673815444 0.2249527575594384
