# total energy = -340891.76883261895 ev
CRYSTAL
PRIMVEC
9.10369225182884 0.00000000000000 0.00000000000000

0.00000000000000 9.10369225182884 0.00000000000000

0.00000000000000 0.00000000000000 13.32417382586881

PRIMCOORD
 96 1
Ni 6.463867237727424 1.9538162053366765 11.563823866953054 -0.5523032980615133 1.2196835171952285 -0.45758951402669584
Ni 4.648235975782288 0.35367479918202455 6.101459266650315 -0.5741599889252885 -0.859468621864965 0.5446295835663395
Ni 2.8285444671310023 1.711840067557698 4.963614273128539 -0.3099439149898533 -0.5167092030069875 -0.2771397239756388
Ni 3.4780929031930836 4.1576289012508 4.686298512729388 -0.46372108084573044 0.6403656382180842 0.5914869102395104
Ni 5.21398492545402 4.535395711381594 2.7375849268518953 -0.3458583694982753 -0.6471677487415822 -1.492781467001326
Ni 7.2091865153784775 6.249966886589167 2.7002634304471282 0.1869451679674135 0.0030390439366399275 -0.9817094076754577
Ni 5.155839643588168 4.622654600795119 11.4841583671754 1.0183090611763623 0.3971410789326515 0.13588228785332726
Ni 5.860128580645923 7.981689417837959 12.595807486488784 -0.6544743097053245 0.39073286141346253 -0.7429508545811785
Ni 2.033400682254052 6.329487637661379 0.4550362181302912 -1.0392692083677972 0.7317917526405655 -1.0916101838633587
Ni 2.8635208524337425 1.5994185729966517 0.2807933708066608 -0.8301302779121639 0.5040002400807514 0.9072389472707085
Ni 0.7455213796171438 0.02498781425792855 4.671348429453968 -0.02130287524283428 -0.4434888129592556 0.09283790716834332
Ni 8.677011218111955 2.5132289852606973 1.5490414716562628 0.3914478852026162 0.0837742543041783 -0.2004786836774741
Ni 6.88639690223968 0.5510228172236027 4.779887199306109 -0.190319226645969 1.0040047287385483 -0.47543374129696825
Ni 0.8057195440664854 7.30546716372876 2.368665084768265 1.200495888523184 0.6965229021359424 -0.28820703753339394
Ni 7.5157533490770145 4.00555172361356 3.907727089071882 0.9902382710820753 -0.7356350376460556 -1.1433047840241728
Ni 7.75460692044297 4.22216497501736 12.869992487151961 0.4176949918246032 -0.7922257895569065 -1.6644792218913655
Ni 8.02978422355227 8.7718990015608 6.664511702702402 -0.24420646358272782 1.9994944780275499 1.4911668142160384
Ni 6.766273684105985 0.8788522343456378 0.581461922350683 0.8404092912406689 0.48203402022230535 -0.5070233431777913
Ni 1.423553447728995 6.783616217682694 9.463001240515739 0.5235838186396338 -0.3295112955988196 -0.25146880157209595
Ni 0.10422179902690303 5.0351155817715005 1.532480034867417 0.42917779565322217 -1.0992142214628617 0.09425021413483768
Ni 6.168343182626551 2.1326036157897 7.066621785685754 1.5686421228853822 -0.113765658459946 0.12832607277262417
Ni 3.2709474916421852 4.216547996950783 0.07233429647617208 -0.7204891831435528 -3.704118647568917 1.254447145928659
Ni 5.895551046864809 5.409941899332594 4.69883611758075 -0.615401769183895 2.5771154289182454 1.9891738128278325
Ni 5.631807981116323 2.991218342449759 9.352464210233109 -0.17252513588734159 -0.6913539563404931 -0.11143109678949842
P 0.3549047079936852 5.803357956297175 12.161240009825095 0.8956023914730445 -1.5087840130771693 1.2820769918307855
P 4.045981220523886 5.914049749346634 12.932043252957136 1.2173728667841808 3.998338466955295 -1.6370851461491291
P 2.438742575956423 8.591536652363017 1.3701384443127278 -1.4648019510692645 -0.049210657396695896 -0.062147162952705864
P 6.198813240306997 7.8601642311106605 5.776216208472712 -0.19881466571148984 -1.0013233252516431 0.5333167296566814
P 4.798383170680283 1.130960781505655 12.812591887305311 0.41711983604742353 -0.7017424986636689 -0.6954073004742605
P 3.6809413720415116 6.1572366781837236 8.430031691118405 0.4334136881114407 0.6672238960615089 -0.4471264097118428
P 4.5946061252308965 0.8686424435811861 3.9781323131780253 1.1820777910273126 0.8974430442262092 -1.8944528297041634
P 0.14404316930052263 5.788109271918703 3.5796190989695598 -0.1910450490684 -1.270726856925289 1.2732072001449815
Ni 1.6098240931426775 1.1278109040161317 2.6178932237268797 -0.41612918999938014 0.5664477078826954 -0.35175545170900063
Ni 1.9472979617456403 6.398074854441921 4.94274861068349 0.6466113620174799 -0.32655786939745046 -1.736674770219009
Ni 6.175389440363231 5.623277821556544 9.142954569826633 -0.9351053346636734 0.6503641441916929 0.24792813540868913
Ni 8.843572369985704 2.1941900932943947 10.097298261091701 -0.9787891487048692 -0.1546045468531789 0.8353244205185937
Ni 2.2977354879933456 5.133517390396518 6.932127479098413 -0.39343226262249664 -0.09285590489047234 0.9540479372044472
Ni 0.6086919759891593 -0.0022140179348324918 9.081409969305904 0.20915358574365267 0.08845391916803476 0.6790630547882821
Ni 1.286506465858237 1.13099719627432 11.77663723724666 0.5464509530457944 0.3148683488746642 -1.0190451680114385
Ni 3.968399555883085 6.972554244901089 1.7254801295303932 1.0233098568250634 -0.6375651926548117 -0.6646234823241844
Ni 5.696453299188878 7.923079847671628 8.166386034876098 -1.0815810817621307 -0.08523181268631128 -0.49707163128171816
Ni 5.418927243500685 2.772811663689207 4.831998554004168 -0.40268103491427426 -0.09441476473715997 -0.0610726989416045
Ni 0.5934032353651557 7.286312995410965 6.744470341367811 1.074211271660621 -0.713831568617719 1.038374978688302
Ni 4.878896224198615 4.541240281752327 7.170803528467125 0.44514871716018173 0.4637897293001368 -0.15876690576098462
Ni 8.031732413675847 7.5307471300748325 8.915990420429805 -0.12122314317925574 -0.8568797780918662 0.5970582336797007
Ni 4.6718054348007145 0.24725263775853842 10.498969546112638 0.030885376724946813 0.007549015991851515 0.39825565215306896
Ni 8.112573200112164 7.347371458770017 4.7427395834217165 0.31453230569148416 -0.16737444492433756 -1.0427862203821203
Ni 7.451663356226601 6.365665710330064 6.825907419641018 -1.2581176528017108 -2.0117835798075485 0.6097209167490337
Ni 2.6268794782641876 5.013712801488641 2.4666772553685674 -0.4653964116656243 0.6398095086042981 0.7242689619009591
Ni 2.3756539892442965 5.321663396396448 11.364174435531849 -0.2278624750070656 -0.5024256965047799 0.20871624109591796
Ni 0.9196003604817818 3.2570643610886507 3.913549810581417 1.081461525465131 0.8460909150064783 -0.6873096110677905
Ni 3.6973462253250977 2.583737081088319 2.592350994616027 0.6773329594710529 -0.35816212656629287 0.49609718318359086
Ni 0.9882148883388232 3.1441512671506273 8.312072420612628 1.9695861205038918 0.1589869921915907 -1.162395996327669
Ni 3.71215793247959 2.476522898446369 7.380219400844288 -0.9089551586308668 0.985556806446006 -1.2095312592525749
Ni 4.1328577548664285 6.865157988415814 6.280362293993849 0.44615633248908965 -0.16924029448848274 -0.3396686957477957
Ni 0.756283764496087 7.8243776172051245 11.814065246849774 -0.006653757871091767 -0.012680423681145903 0.10601686775246259
P 0.04326529702011273 5.593881999551717 8.181948796634305 0.9379145219776944 1.0285369095519576 -0.5163662178452719
P 8.659668684535246 1.4775838607357008 7.886231743259508 -1.3997288727190154 0.45579102736537624 0.1973149412375118
P 1.9477349389696201 3.0567194075859425 10.481328411432877 -0.1407002780672609 0.4994961815628107 0.06752205411137403
P 4.033736754560276 6.178156962781771 3.7523534645012426 -0.6388792834805449 -0.1787837152025437 0.9281204187054081
P 7.145406048061716 4.13970373137545 10.42759204768314 -0.19878664068703183 -0.7211923798581644 0.610577094101742
P 6.23013904505107 7.708250919932414 10.357546419417565 0.31698873765177665 0.11549266845338174 -0.38435241180841545
P 2.419843311019284 8.261318426416556 5.933747408086753 -0.17184302221865244 1.0342054206916447 -0.36840025935453324
P 7.031100089222256 4.212041669328488 1.5321468397341322 -0.019471478461050337 -0.7265760127675809 1.410875119143822
Ni 5.3784704355138615 2.9856286754596812 0.5669824999602591 -0.06376541528241922 0.46540412497510814 0.0694624656671965
Ni 1.4930874484948278 0.9153398325479758 7.002012882381864 -0.08049815465606781 0.9556327651930637 -0.911320830649566
Ni 6.918705905737709 0.7341199155481298 9.171761382948306 -0.24380639993083172 0.5655524497619357 -0.820087291853865
Ni 2.8219260829261366 1.4290884925660763 9.262126452128957 -0.5656846044644258 -0.18464583041027555 1.3608296245506564
Ni 6.510050268086821 1.983348582723998 2.816237185691446 -0.2813733024410122 -0.09898515771666179 -0.8451151813567703
Ni 3.9197403212544684 6.95671382053181 10.655741497800015 0.8255154048479718 -0.0762522348955203 -0.4713078920540528
Ni 8.25839614123119 6.918359965435391 0.3820546491410986 0.07425988705583986 1.0635908158322973 -0.17080866741686712
Ni 7.865753898100739 3.8981190523596196 8.268595917934258 -1.5546262682222645 -0.5825757237928095 -0.9291799703181739
Ni 3.2419158173240077 8.421288505161938 12.689556398047632 0.3136702148015049 -0.2996749289636774 -0.6863822141575147
Ni 9.373616638981394 4.598957690086366 10.201360745505694 -0.28667286027705463 0.3454210248505406 0.5294145663887979
Ni 8.509639837635413 2.6152358559835513 5.814976088239747 -0.03754144858888373 -1.4565317406406721 1.2333476449458822
Ni 3.868177008824817 2.6529979710891647 11.492872421316937 -0.41422503099813174 -0.2568676039901641 -0.3594661900896971
Ni 1.0782321964787234 3.5186407481015705 12.545068968569396 -0.6164554072593899 -0.22695821802524138 0.4201851052363086
Ni 2.9189077155732197 8.43196713607295 8.06885271848374 1.18680322152744 -1.2096310180552328 0.5243124692755422
Ni 5.587463896574509 7.908905398968775 3.5369956122471677 -0.2880975085387232 -0.010854169105684533 0.34678782329108016
Ni 3.018110649108868 8.391901786849276 3.5794725295256833 -0.012093183719108206 -0.1955352236292697 0.7824795088034202
Ni 3.74713431778233 4.3507728342500025 9.50626471679742 -1.0570604709129474 -0.42384044260070874 -0.12720918555936156
Ni 7.593207562027487 6.216228603421038 11.23083902895727 -0.7038546599106653 0.22661266176036457 0.022331830727980895
Ni 0.3538131753029516 9.243342804082328 0.49539015439563655 0.3691080840548353 0.112869886118554 -0.12971009760434435
Ni 4.553484747715936 0.14884809802587046 1.5931452187248873 0.46073500163421294 1.5113412322813842 0.1742796566846031
Ni 6.10604661713289 5.814182246282849 0.33873746107563824 -1.0343815412581927 0.10308555303828051 0.32207797924922593
Ni 7.8745480647333395 9.15958883615281 11.18693647348552 0.7804298253632431 -1.0803443811415523 0.633886972472276
Ni 0.030979864441755635 4.884704379800684 5.557352524365413 0.2557949397512756 1.0013678053363335 1.170052227321346
Ni 8.358263644294974 8.952752950135563 2.5406802586188135 -1.9474530360502786 0.4991773647708113 0.46763841362226566
P 8.609844177309348 1.6746241739820595 3.760734323509494 -0.8883763060382507 -0.4092494321604114 -0.5402970176292565
P 1.8779278274387996 3.268498598449464 1.6103994464875848 -1.3815267478886917 -1.3839880649449905 -0.7618962853354299
P 4.8215520672433945 0.9090719404915113 8.309620796312256 0.13446483868051037 -0.06523505784941024 0.7999172446638934
P 8.37804596737224 1.8486139386634681 12.51221192280296 1.1385577562574907 -0.14536091676772386 0.983703555287351
P 6.430757109318765 8.046161765759356 1.4004236970421986 0.9577919776279117 -1.439534177641411 0.9477515626727742
P 1.7474081928512446 3.1951956691268024 6.121072261053288 0.12343480611859385 -0.032373531234699084 -0.28988725344929434
P 6.758417197766509 4.041793522127409 6.089294002808551 0.7084055125061411 0.27448171752750145 0.7357936747111069
P 2.2745028655850703 8.599038094708009 10.50580459819106 1.0503486061104106 0.5803617468606262 -0.287259328908144
