# total energy = -340892.8481097099 ev
CRYSTAL
PRIMVEC
9.04496375657464 0.00000000000000 0.00000000000000

0.00000000000000 9.04496375657464 0.00000000000000

0.00000000000000 0.00000000000000 13.23821873669815

PRIMCOORD
 96 1
Ni 6.376789752732181 1.7837753517195767 11.49028391830886 -0.16544740310495376 -0.41885455935034316 -0.4099803967891649
Ni 4.706203074883457 0.49690316257336464 5.906085327082815 -0.5393323397231421 -0.7971502234417175 -0.1418431334224525
Ni 2.6108106389223393 1.467789550083148 4.6620772202023835 0.6553775382458842 -0.0894543354080911 0.7486695022325106
Ni 3.5424961544042914 4.452944095469689 5.10244664709611 -0.4843197309326885 0.008453530083991892 -0.5751712037986224
Ni 5.170833807508668 4.685019770248206 2.810116410757425 0.26904126323822053 -1.1895681858670868 -0.6648042308764228
Ni 7.213647870350777 6.3269700934960715 2.7757365043020057 -0.2199221371140664 -1.8115139268170863 -2.676813810651848
Ni 4.989771727154924 4.573486324707091 11.701207945824553 0.8587001191300566 -0.5490392825982608 -0.6624048774063108
Ni 5.3176697457873505 7.962480402695989 12.431640308818999 0.7996868738206422 -0.1608584981826907 0.6718068874465011
Ni 1.733033106201318 6.5301561546943185 0.3756644711425734 2.0183396357585113 0.5849897325509409 -0.07532380954397995
Ni 2.734871358980884 1.6117944147705268 0.40487879891430667 -0.30770062748163135 -0.17493503088041487 -0.23977928104930962
Ni 0.3544992564344227 0.08254705085085276 4.837986384821412 0.4642967508435423 -0.9156220291280812 0.13115582891193542
Ni 8.507484681430867 2.2320347003183967 1.423955847724755 0.9018509434859178 1.7827777352246588 -0.6085554356860229
Ni 6.905187478388358 0.7441987975182941 4.594071757251656 -0.5063337733099345 -0.17027310662837128 0.8831618517168468
Ni 0.5122262353242527 7.391471853753445 2.522052411601364 0.6011347177419195 -0.34049401986256844 0.14068099479355126
Ni 7.590614816244622 3.8979270420844148 3.8456760966459336 0.7491736955624387 -0.3346144211533399 -0.18799752049132784
Ni 7.499957146578042 3.580213652409842 12.676427775371376 0.2999523509947802 0.5132230442306 0.14506755389702114
Ni 7.936467087524774 8.780371231749204 6.921986689190685 0.4791849808092844 0.5148058153366876 -0.38636969934876036
Ni 6.6454703949995375 0.7962833156274458 0.4917068310136071 -0.20887770637444675 -0.8890959578130946 -0.4178736834943126
Ni 2.0070321870363643 6.5111617312382855 9.27583443612533 -0.6408466916195609 -0.05103305531741534 -0.8284469766724699
Ni 0.1821393355126072 5.044466621744748 1.2364003880381131 -1.272844417488924 -1.4476200399733392 1.0322801786444737
Ni 6.3603279190702855 1.8426942442874799 7.022093632278463 1.1059016607853662 0.495751626918714 0.17684304653640512
Ni 3.5425866040397964 4.413155300811075 0.584502730063522 -0.5549422783462572 -0.19571365818866293 -0.3021501299770474
Ni 5.9736466823232135 5.616316352297487 4.9644250257973805 0.07079943931106515 -0.06045203463847008 -0.21094435909548834
Ni 5.408761573704353 2.6040269162594702 9.27862752086972 -0.51027167491176 0.5109010809656427 -0.012043561428095387
P 0.15665243722003155 5.699122993602239 12.411584006642139 -0.09966778560598319 -0.9121189010708292 0.22084130649422615
P 4.04829956111134 6.177167407172828 12.723622586185133 -1.1976221665198148 0.47058592628636375 -0.2359786763562968
P 2.1718766477440763 8.487413907312327 1.4175085977059643 1.62103117801006 -0.2626595280815928 0.7100584747285319
P 6.450551430486441 7.698837805126255 5.805766731847956 -0.6565355631097273 0.7559596081360207 -0.9499750526866542
P 4.587714052372015 1.0480218366683767 12.644590408170002 0.3651197888310486 0.06726211558176803 -0.15465314070292718
P 4.085845204809432 6.269516485023349 8.2952663196311 1.5345197272803766 0.34499087929165745 0.6736238860505818
P 4.718531360202777 1.4760566467682974 3.9946321743808526 -0.14897768758470473 -1.2588190497441094 -1.5418738536526024
P 0.16589277198321392 5.437813996628532 3.651550375436215 1.2015785800644014 0.09972255010331858 -0.8938039048117251
Ni 1.4908089823191493 1.0876749568737325 2.6604982416906107 -0.1294702136793964 -0.003971583053238322 -1.1585568250872371
Ni 1.8627107486247183 6.348117218277122 4.863178417302241 1.0442160108501113 0.7630293704986085 -2.297164717856373
Ni 6.094288406159672 5.569219227090076 9.40707776173932 -0.7049512354089537 -0.011789022215128083 -0.11651802439410254
Ni 8.614676544467747 2.41198425015543 10.244646813492984 1.0244776518809195 -0.894837488282562 -0.08153996565702086
Ni 2.65295112410408 5.693614610799989 6.976104515105988 -1.5842757156575813 -1.6960827077292597 0.45175696650531877
Ni 0.6756569682290228 8.856394150391086 8.614042492522856 -0.4246043173499268 -0.8050409390437039 1.7579977000665012
Ni 1.196096934953477 0.8064489501618435 11.192953353995321 -1.1918952913383667 1.930768890526378 0.40910904992780506
Ni 3.996598549456729 6.993828121183177 1.6794796860115666 0.808362290107453 -0.3164367218030486 -2.0837251031428567
Ni 5.9645745838820705 7.843322052881811 7.919260853362674 -1.8962171206934373 -0.09622405003175687 0.9615151921157699
Ni 5.476634980187242 3.1589082951914875 4.955065297515332 -0.4120210813682775 -0.3106854211415682 -0.21220162854135713
Ni 0.7192256531553863 7.205679257462794 6.683711596394661 0.10395047214173711 1.1779509133431325 0.3381368324843015
Ni 5.2643225507665505 4.632776060780566 7.231469162034311 0.27961338232711197 0.7078013032632391 0.11359159477592695
Ni 8.074646995685637 7.074011723058286 9.305871855580158 0.6311078670652421 0.24790730947308268 -0.49239685151386803
Ni 4.568810078551487 0.22556149202945286 10.344767324026089 0.09667090776118835 0.5942783569417184 -0.42303440175964563
Ni 8.11243685339959 7.046379359411533 4.603219833386624 1.1016092040575995 1.3562918845813028 1.945719084078307
Ni 7.481749634950903 6.1094206301796445 6.9368267608879774 -0.6415725140419918 -0.7947403284486442 0.4072342015025954
Ni 2.4567839546210157 5.180303884346032 2.584894104861115 -1.2775449082883867 0.08544367158680123 0.37402094797542035
Ni 2.2023581749092336 5.175862807242741 11.376964996962881 0.8187942840740543 -0.6196356047595845 0.7970144691948016
Ni 1.199443571467159 3.2979022500718935 3.7747852903226 -0.6656030726286344 0.9287379976847489 0.19477777663795487
Ni 3.5037203956633336 2.8224537410402957 2.662563206869188 -0.03810477729152147 0.1667452959807709 -0.05544172590807226
Ni 1.1589854495058094 3.412501938256624 8.12265313972987 -0.2774611118707996 0.45223570591395024 0.22266730395937137
Ni 3.926156373325499 2.8169724931286977 7.1008481299125945 -1.2843986979854267 -0.8404892525489849 0.04327655130044805
Ni 4.351866627792943 7.108662978420219 5.976750913813742 -0.7792946833175354 -0.16917833090229573 -0.4439269289379386
Ni 0.7914921984347503 7.300533790216801 11.219840412645512 0.513089089755897 0.24779443804430223 -0.4218768911164347
P 0.2446671685371566 5.614796798421004 7.995804761905065 0.9898328081135404 -0.6501574274975255 1.391776707751474
P 8.531064901407 1.5854193010572928 7.9577182293866535 0.16489384459432893 0.22548883256856647 1.0976353070115161
P 1.7416620014284871 3.1449338265059774 10.376499769650279 0.63625830091793 0.29790986664345465 -0.0699337488766602
P 4.036477793750847 6.197898463630555 3.7325425970527384 -0.7242170256171012 0.06348876458226485 1.456467205951324
P 6.941231658137068 3.642922384705401 10.42180056509656 -1.4030970178602997 2.2876938022514604 0.9174081744942264
P 6.236683267335064 7.761428952895658 10.315617215495564 -0.07943268950603095 -1.0032051156553883 0.18246630626045351
P 2.341596343805503 8.465651725009844 5.565413106428029 0.35938031524411007 -0.04912092589636702 0.42352908200787703
P 7.046976327005867 4.06836129026633 1.619193194954829 -0.029411620392897735 -0.5392683192544261 0.44986849123335426
Ni 5.270029922766911 2.845988736198675 0.5797676916448397 -0.40845984637958044 0.510181943411431 -1.0131910232235068
Ni 1.5390909977516742 1.1125305167104838 6.911766784874985 0.1840292798721992 0.6557678317057674 -0.6934311505844961
Ni 7.054836400331243 0.5289992157322846 9.302125431677544 -0.28729686701429874 0.6205720005309248 -0.5943950850252409
Ni 2.53963582074352 1.4078123967798373 9.15940404731798 1.13415731319695 0.9780142182120576 -0.4324019590174747
Ni 6.234331576811935 2.1476813702465107 2.5386137398623143 0.9972280721363471 0.32440894137524773 1.3742235293590592
Ni 4.076655521842132 6.80186685975109 10.525178167004198 0.4645291785693226 0.16197589961658557 0.07349884052009922
Ni 7.671639599729926 7.33490465170867 0.16899338548832252 0.9463302568452153 0.39225444026431155 0.6458662563213392
Ni 7.624732418757076 3.8603271286050203 8.346365841209604 0.4334350282676793 -0.2549935268959028 -0.9536162489836674
Ni 2.848322336794702 8.57941927654793 12.278381541923112 1.4311166430016773 -1.0102651078259632 1.0116365342521931
Ni 0.020599904486244935 4.94243038793165 10.271891148203421 0.4258060509675119 -0.8133448309237089 -0.9217888200604254
Ni 8.586754741987377 2.268675847661439 5.888584227108969 0.3300355435334058 0.9348135144548675 -0.3592939261778909
Ni 3.7621259593373315 2.605709279479862 11.258005636346812 -0.6673547652124183 -0.396860057357123 0.22657332388199689
Ni 0.9657669381402049 3.0314918936557103 12.52418837586763 -0.41149323388926556 0.42349797165962544 -0.4926441916379839
Ni 3.0297643056175665 8.318472078116242 7.7718532733876 0.696808294586845 -0.02212202871001997 0.022722381298180223
Ni 5.571127714399229 7.8474917810785865 3.6766501492888297 0.5507889182995158 0.5057868996675289 0.7640004761626261
Ni 3.318723756165126 8.318209774173278 3.3974963437263583 -2.3416702564679155 1.0079338885896252 1.9697478428927366
Ni 3.6557843228742004 4.391148904492729 9.3856583835554 -0.4506634763308238 -0.2954063834953106 -0.10811180260827832
Ni 7.267212144496789 5.897659943535532 11.541846542021148 -1.158528800062779 0.28935914885996616 -0.35887612191418194
Ni 0.6181934102963936 -0.2822444696076745 0.08074619860794985 -1.1475992976344689 0.3653033655967644 0.20829817972189288
Ni 4.50999068058264 0.6803106019757508 1.7989419466010412 -0.11037668738305507 -1.1303551658420403 -0.057698383152732895
Ni 6.074353306494388 5.579693294881546 0.5524320028025435 -1.0217520254196402 0.8053345590247227 -0.43023040528745254
Ni 7.996534690463589 8.612795192049242 11.330564333948857 -0.973610432717407 0.7069281566296665 0.4495116221145678
Ni 0.2410184302408882 4.828671881357115 5.7867035666689395 0.014404862571420353 -1.359898885206271 0.6577162136813899
Ni 8.043984569249469 9.222787533894406 2.3762738295617334 -0.7857036721676727 -2.2823255959610114 -0.37166067527335994
P 8.650159936476324 1.681711983015828 3.649670832010423 -0.2527538389321066 1.5961513840492447 0.6444598628921159
P 1.6614422196991758 3.2482544451432447 1.3532640305995316 0.5590642709344307 0.42822854436607544 1.2684023225571703
P 4.66892878009188 0.9546506779366506 8.07224193987756 -0.48360445003321884 -0.5741211652675532 0.7787503807782911
P 8.423321295593542 1.3764444631867319 12.548731884461889 -0.19733191051837629 0.5567075977767961 -0.6705313631681872
P 6.177257856808333 7.884132928421629 1.5940671907079182 -0.07946662806775992 0.4580183740339983 -0.4930689378802282
P 1.9781697083467453 3.130380480153236 6.072887117902854 -0.18702512927572953 0.6095723069863115 -0.7601386792143748
P 7.04060867266632 3.9092603814131808 6.109914485189502 0.9573296932795127 0.876430189419968 0.47640613251256664
P 2.426202932856803 8.560108279367629 10.162013835488404 0.3288970590535884 -1.9197859091523128 -1.2977905459113004
