# total energy = -340873.76842246257 ev
CRYSTAL
PRIMVEC
9.26549512538020 0.00000000000000 0.00000000000000
0.00000000000000 9.26549512538020 0.00000000000000
0.00000000000000 0.00000000000000 13.56098868659456
PRIMCOORD
 96 1
Ni 1.4177319174222276 5.844813213922453 1.265686071398994 -0.23999911036959956 -0.015565972759057063 1.5006331018352608
Ni 3.426556086902797 8.478595019602336 7.157082487867862 -0.6070323141732771 0.529882507164152 1.3712387356991222
Ni 0.7044852326859835 7.329868217847635 8.646595121426483 -0.8079781672951568 -0.44194075174584535 -2.17686717181518
Ni 0.21369196375377303 1.4489844319796816 0.7618525448361398 0.08594400826198746 0.19836755087174224 -0.9243689220827758
Ni 4.114491292460846 8.891947281516698 9.580553308911082 -1.017850376372389 -1.0991833682249263 0.5239872247256395
Ni 8.267323203136558 1.4761786597372055 2.8879074629638284 0.8069718375178294 0.7235554807737022 -0.23876420952123398
Ni 7.554222913220951 7.376232754712592 10.543817330458467 -0.6073061366599541 -0.3914663971453774 -1.767261898977247
Ni 5.393148130278155 3.2169798560178116 11.127482361743237 1.2853080971735735 -1.0879245074816553 -0.828179067723064
Ni 3.8435311573531705 7.20320890151191 13.505741273496639 0.8021651601578056 0.6462398376106742 1.3289224914294147
Ni 4.7154790931546335 0.8082717481214613 0.575957992562894 -0.20395507226184875 -2.5702585538974123 -0.2970629452621271
Ni 7.505542002611741 3.940568686247394 2.812182425615722 0.29225163991641284 -0.3666935610760717 -0.7521430626034078
Ni 3.3349018105902157 2.5039351590720664 11.65145166199013 -0.7378024776110197 -0.3766553002744739 -0.1694773501999533
Ni 6.3307050360118255 0.24998954032620901 9.970025610621198 0.35461220443150543 0.2462489479340533 0.07892463952136085
Ni 1.7815786396744264 8.22238555249806 10.400423603644766 1.253693041371454 1.2764938413160531 1.696467344762188
Ni 3.318844707795058 8.963245265364788 4.887651447366928 -0.9350315440029445 -0.23065032216484796 -1.326130016285942
Ni 1.0034160440302562 1.8910782593127287 11.728519269560403 -0.8639066030316604 -0.6332107723408579 0.19669504826532577
Ni 0.19682876289561516 7.9634334988805895 1.4350778505686876 -0.6752971599879467 0.33050888362539854 -0.40210562202677846
Ni 8.12363390703309 -0.2614704151522219 5.088910043411051 0.45433295476261115 0.8827985548401571 1.7196319558041095
Ni 6.0842150731384335 5.677997242356368 12.895659389482915 -0.8638891195301639 -1.4620750390564046 -1.0566922889402512
Ni 1.8302595502836358 4.380920600524763 11.636209922752947 0.20278624876472817 0.959421799921851 -1.0318778009997325
Ni 7.1352928233304285 8.273095606507235 7.663084140255336 0.3091383883694224 0.03740903677607751 0.35630296187036703
Ni 2.272446032566453 5.248745391061457 4.078765396928491 0.34275041999691297 1.0485051251437685 0.0023438176418282214
Ni 0.5691126448738791 7.131447642914969 3.695152594241837 -0.19810067036360074 0.2685021029052989 0.12453935203668229
Ni 2.8546526749418426 2.0913519332407957 0.49788507878761384 -1.2448944692432171 0.7960762736512483 -0.8821899747218807
P 0.4926445148286171 8.668917551925095 12.29016114583432 0.17086188925230572 -0.3061949894703824 -0.23980807740471605
P 1.508635688641671 3.271942772221434 4.175537006116875 0.03812637455807628 -0.8478714039456687 -0.26532936160427206
P 4.016814444413208 4.839201247582646 11.83387443329549 0.8248430613712955 -0.29906609173508497 1.7555081008754285
P 2.499691562372596 1.1536560450824704 10.035429813114412 0.914390213603509 0.20531595716511736 2.545499601785177
P 6.213783754896939 7.404168222068277 0.5487016859890242 -1.1540689645192124 0.9857573524925862 1.419995336277535
P 7.253566866711959 1.368902758893386 6.595033856364456 -1.606875455334968 0.5224054820608165 0.08202333305134261
P 5.696908117604445 0.9371955514295669 12.10494482779339 0.21393815161648957 0.5652997103211813 -0.5838605040425041
P 4.153758460173413 0.8731700545889313 2.7016061554610915 -0.7445781057719564 -0.3876457378477066 1.1134879577730565
Ni 7.263156654013163 0.49469682196602477 0.4209342164540495 -0.6968525175612191 -0.6393842481414214 0.8769765488417413
Ni 7.868462175366239 0.40776516844322547 11.710605361571853 1.1035647851220736 0.4571210590307095 0.029899872883225924
Ni 5.533029307946072 4.676406500836584 1.394435683401532 -0.0572702944763788 -0.04801458020606569 1.177833671038978
Ni 4.288191526794848 2.380648482907974 9.314812427123957 -1.8846409858200641 -1.0077526258167548 -1.0586229303040608
Ni 3.382257755417713 4.821735789550982 0.33985557610822736 -0.48368338290027013 -0.7087515829916504 -0.6362593293591945
Ni 7.838979370349394 6.540661152190869 5.589256037664559 -0.01684921034685485 1.179205097465208 0.6289476261891297
Ni 3.6196767987086127 4.6170239435289275 9.80855490310735 -1.2825161362507331 0.10909242135399276 -0.49892154000626326
Ni 7.918245679877712 7.370608599261547 12.871981417069168 1.9008677320915714 0.1009880470793035 0.585038069290373
Ni 8.775072327876696 2.546093161217461 5.021159817589658 -1.0422483456007792 0.9969434510163927 -1.1190556816688213
Ni 1.6808071163044676 6.754564369230118 12.734581538956094 -0.4920500096974107 0.5131338269509034 -0.7278790478497206
Ni 5.149326629958143 7.2607105633392335 6.425915409296584 2.0653751398807594 -0.9395659415381883 -0.6503644013020089
Ni -0.20119095793079136 4.856221961855413 4.438335166699302 0.9012151096741319 0.04461841004032315 -0.13551976230758597
Ni 5.285408954685485 0.689619672544869 7.977875625901255 0.4197109938133675 0.6115625979434629 -1.9193981867955912
Ni 0.6137473138266285 3.4866613528186594 1.922649506897392 0.37049982219603933 0.6284380335425629 0.8159912674076205
Ni 5.89186339741571 2.037713982818886 2.0932059587856955 -0.49969569916812645 0.6455605521554624 2.063889556474168
Ni 5.687466578222872 7.921182841785424 12.030467852618688 0.6384072289401328 1.4061638297110814 -0.21375046108571572
Ni 3.719790471935204 2.2171588240386355 4.729462578173937 -0.38738297110462316 0.4561705221919821 -1.1853292080850746
Ni 0.5003459942535077 6.303788773103613 10.72586021646977 -1.0798029068157855 -1.1589445474439588 0.31913123791607617
Ni -0.30986687506563737 2.596061975628475 7.323109965811404 0.1767792831780052 0.2744644911363209 1.3627769780850145
Ni 8.586213743760306 4.933987261197457 13.645066521465937 -0.0857141516393685 -0.9003499334603591 0.6327829407748199
Ni 2.571554741414284 3.4039760756438238 6.900739597635917 0.7100795577744545 -1.7544745174045913 0.22872765122083835
Ni 6.4289378137580835 5.352407748864244 7.921420965006334 -1.733129733180228 0.6980953888293848 -1.5057046028208971
Ni 5.254397342997433 8.083477251802728 2.3824626668244724 -0.5413910220243838 0.11593232709396162 -0.3621889883374988
Ni 5.18713911495932 2.8945591618078237 -0.3014621445719917 0.33620079180385326 0.865695062390651 2.055487448453402
P 0.702274485584469 9.405867225911525 3.777128134501434 -0.4093941852683917 -1.1517809398159842 -0.38486560399940817
P 1.2782120940584134 5.197155115029467 8.927415596288691 0.7667628693991118 -0.2936822017153523 0.4524437081596982
P 1.0996011473865952 3.540475347645133 -0.211774006293532 0.12396933846582522 -0.9128737769589825 1.2604149334763197
P 5.310879800377285 3.988897508047477 3.5945571152764413 0.9694444742651755 0.17955273215808432 0.334194817117418
P 3.33662519265594 6.192686222834287 2.2967837082225646 0.2181290497693856 -0.11075952464377055 -0.8442129812574751
P 3.2723411885054454 1.2453566488699368 6.709624865492624 1.034801916625063 0.8002394038900025 -0.3386145434516684
P 7.886511359581454 5.396270602085408 11.653351088460417 0.45080051612932037 0.35031589104899663 -1.4951777351476445
P -0.17904827803473328 9.480083840677375 7.3445095530103055 -0.5068122556082498 -1.4397077271047978 -1.248824400425243
Ni 3.5669468667944497 3.5460995030961775 2.4161751702983225 -0.6328207359912907 0.054731587214925104 0.6310309910807197
Ni 5.40847325897013 2.7189595010035332 6.458339082419132 -0.921987823445109 0.34274759178343556 1.7710218802403113
Ni 6.155976331735375 5.049268549701413 10.234789909237747 0.2727205118620206 2.063809338055536 0.40441113023150355
Ni 6.590231550317871 2.33077232344673 4.541561119688671 -1.0149892527745101 -1.2990341885104144 -1.5179906192771018
Ni 8.967572251519051 9.320624672123033 9.511961776145776 -1.057780122687791 -1.1406868867853517 0.604848419148081
Ni 8.244761722867539 4.572151151355269 9.089401465323261 1.9497780846390291 -0.751677435820899 1.5910428591780859
Ni 4.316590268899384 4.743247781600732 5.465091919126143 -0.1285027075598045 0.3800548128743261 0.4623869354153391
Ni 2.8220937255926297 8.384985723849606 2.3944364659832624 -0.6026020463160653 -0.8483835676953969 0.4807469259797656
Ni 1.044860603062421 7.728145519434402 6.139533784349172 -0.05781588256720365 0.8939062347175444 -0.24049790438288904
Ni 1.2346920641513983 1.3771305184329705 5.642944021759345 1.6571934868632299 -1.5568682701789058 0.4238730956108571
Ni 1.6570874491633225 0.4628522422795397 8.294157929688973 1.3237736002386233 0.06219729946435095 -1.6597982714759285
Ni 6.463136755718227 2.7700401748117884 8.829410749718868 1.6596211224681159 0.02460365748129311 -0.12005611945434809
Ni 1.4872787227196633 5.346848451878038 6.680563640497233 -1.1970979185852286 1.2525473578027846 -0.1441913219396549
Ni 6.802290933856694 4.476577570667413 5.342432516971994 -0.2439722360847347 0.3980795315865209 0.058448373944879985
Ni 3.1168476518012667 6.551464719334062 8.457704108077673 0.2035591223750107 -0.17303370009264393 -0.06204714703973186
Ni 1.2899700071842393 2.937375014096586 9.341568396969068 -0.04317704960810629 0.37872426698836065 0.14271268051159938
Ni 5.463343520223981 0.4075576213557404 5.5759257700411355 0.7000717958294652 -0.5506017419893743 -0.0647581182129917
Ni 3.9261237795782358 6.835896884138309 11.067855195368189 -0.7515437384565121 -0.1948651941454386 -1.08305946607987
Ni 7.674183276688297 3.2037209327057106 11.94674298690743 0.539320255538284 -0.6058953723553565 0.21589733222538945
Ni 3.686842371796957 0.06265698323253124 12.052627210405705 -0.981602192673632 -0.042401862004978585 -0.2462959991219049
Ni 2.0290692760053357 1.4793011315444577 2.59459710087261 -0.5943637175666732 0.10476062674785828 1.0762010483971403
Ni 1.823514269940373 8.98778029606391 13.931203537345954 1.8900541864158353 0.944917949878721 -1.488576942001675
Ni 6.640756294427506 6.141170070762112 3.2471918554893477 0.23746400265257167 0.0792714813378183 0.11577677535270384
Ni 7.671653796559573 8.557092293047564 2.881682903438273 -0.2201674203556531 -1.2474540024402774 -1.1129835073328123
P 8.302726659443712 4.731943877728781 6.980627621877193 0.8554003653328623 0.4182516356590216 -1.7273552925902962
P 5.473192741384543 6.981995208935801 9.258181721824473 0.02189551452151068 1.1840410854012704 -0.3249501585906984
P 4.447289341045084 4.209694253349621 7.893200120405358 0.5662384200853667 -0.4317599545581015 -0.870603555435862
P 8.545195397497082 2.0097136569983625 10.039281479376355 -1.0510122078363382 2.0883404904276803 0.5421878068940662
P 3.144718260692112 6.760503551510381 5.840609458851384 -1.2597562168463983 -0.766729445058015 -0.6137166681719882
P 6.189304317167679 7.98890434457239 4.394492697567087 0.10990720394580426 -0.620970264410608 0.9719916661670616
P 7.31760996799305 2.7338398859366113 0.7864135189211976 1.8262797722723514 0.6991886218935636 -1.022085754609975
P 8.538403789678934 6.083075417256261 1.979171805905645 0.11519056383193065 -0.21344938490552914 1.4324585017415523
