# total energy = -340876.94225977146 ev
CRYSTAL
PRIMVEC
9.17416504529594 0.00000000000000 0.00000000000000

0.00000000000000 9.17416504529594 0.00000000000000

0.00000000000000 0.00000000000000 13.42731788260201

PRIMCOORD
 96 1
Ni 3.251140526004726 0.9362510415383496 12.243887146065214 -1.0167550864256811 -0.2835973066755245 -0.17137482433298226
Ni 1.4067297355817503 5.242383824240517 0.6949613328232689 1.2166462730308014 -1.5784007449340427 -0.5109982686651393
Ni 7.352441730953895 5.148522944051019 9.019559034139446 0.46723732152910497 -0.04553320854510868 1.5968291268425596
Ni 1.1222755814271632 1.769723914690134 1.6501900516913022 0.2628328204346635 0.9212267769093683 -0.5497663905722725
Ni 5.253668046959029 4.083374886906918 8.603956524334292 -0.47739137924397135 1.1403824681710553 -0.7663247534204286
Ni 5.190522270559427 4.317251870454067 1.6619256433185534 -0.7679759158706063 -0.9406681734634316 -0.7623241169014677
Ni 1.788274075939588 7.151380734938547 9.452053016196082 1.15966239944659 0.46309450300532506 -0.7535872512491021
Ni 4.479019918580488 6.864825697042058 2.122751281146981 0.8013267234169102 0.9425707898027831 1.1275963721499809
Ni 1.9917111806411931 7.018355345167486 2.014956679441325 -0.6023279667190724 0.3728091870555063 -0.5676640967882998
Ni 8.329407715927001 2.6319486203620914 0.30526207736422445 0.5846788861787414 0.2883417633390453 0.6740177790548908
Ni 2.730167228837193 9.0804598924096 1.2557064692829056 -0.7811273656508999 1.0802279101683459 -0.5901789900613642
Ni 5.224411635374207 1.04186402685176 8.271549928124921 -1.9908038922320874 -0.290382447918158 0.9177653007233291
Ni 7.944945991159013 3.4397063095464078 2.5025433560257655 -0.2976540418789067 0.4522058811172793 -0.5192448249446477
Ni 4.019577744805679 7.753728873986722 13.443966984428267 -0.7977222938951036 -3.002644829185603 -0.9671405087223474
Ni 1.286814227326748 1.737770298650644 8.214188462639159 -0.6522029971726445 -0.9670476918982248 -0.5535533684185305
Ni 4.476130056664772 3.0646939745345696 12.682826896318616 -0.9201417713753056 -0.47160896823423937 0.4636969124760143
Ni 1.8858780153722996 6.993328223560902 6.786126041620536 0.5525935756084225 -1.7247415091165328 -1.4044507036747167
Ni 4.957168214406552 0.31666648164176964 2.3443697456726063 1.3320504955354349 -0.7639899346396649 0.022855050221302575
Ni 0.31327937999325406 1.7858612705940855 3.868289345143774 0.3540501612804483 -0.07845104231905198 0.7952537777499531
Ni 7.210682536282005 2.553124196299129 8.68781022554708 0.0864767408370059 0.8488239976669253 0.6643871979436622
Ni 7.512237333645781 5.691046354361465 4.583776954316958 1.1170304237086763 -0.9236091610986158 1.2947756703443767
Ni 2.2325146586212488 5.0591574046193015 8.27228844839227 1.3908799069688176 2.1033763017148805 0.8878021787023356
Ni 3.351854507308637 2.8833941295238312 8.144245547530497 -0.02045441119960993 -0.7731983406118104 -0.30724579933239987
Ni 5.428536802436697 1.065900338658669 4.569598282600325 -0.563883289589629 -0.8048763884413815 -0.17546802056574942
P 3.642281042755704 0.7381065125166704 9.977181292606877 -0.6610954145662679 -0.49953963320623634 -0.29301062956962437
P 8.347627607243231 0.6581233914379779 10.649433815271506 -1.0506823353007453 0.7311914000524052 -1.1430756987325024
P 4.383342553758254 8.014091671345529 4.17128999088189 0.6578509394870412 1.2426079872018858 -0.017095007809073783
P 0.3001208754036932 5.712367113384082 10.353723878309323 -0.8611796910188007 1.096813582441169 -1.7962503157897967
P 5.672817288880423 7.5328883786371374 11.755012416741197 -0.01871146036657423 -0.57651023432502 0.7294523058741115
P 3.927092989337951 5.896639387793842 6.700768694795093 0.6304622630614433 -0.10641024653613933 0.6209134430307436
P 7.322332122041578 3.8200947051379592 6.917740444843543 -0.16025814559453047 0.026416285209999665 -0.26037998801879675
P 5.85701616997169 4.215647995163412 3.6712970912224563 1.8859617615140165 0.26510104764354986 0.8853804566347203
Ni 6.7311489415693595 5.91500606574706 2.4472222247941464 1.393270518688181 0.49299360455760266 0.06836049085226936
Ni -0.050574418357994956 7.896010996052886 11.214066045361898 1.3121714972233207 -1.8157873573814598 -0.29254988788312203
Ni 4.9106643729755515 2.476712577581669 10.444600402685543 -1.0996945035333898 -0.8246000921225539 -0.08811401933011276
Ni 5.1518072950536435 0.4191896082465668 0.02425557434591087 1.598479517961789 0.9577932631794924 -0.3982399684237851
Ni 5.047964923548909 5.947005552610609 4.779789407436375 -0.33585574975960863 1.0867124894514253 -0.526097586200423
Ni 8.821225517322643 7.328020104224891 8.741586427424394 -1.604167826595818 0.5682379670138988 0.17313988665320504
Ni 3.074427763399887 9.159706328053904 6.025025402419577 0.5605267144125702 -0.6193460985436237 0.5664595349572373
Ni 8.910095651854524 -0.07039336660092066 0.9974390511671128 0.1330126796150161 -0.2985765536931761 -0.5662098808402765
Ni 0.25228311040905743 3.9772481483640467 5.262152314576978 -0.2656453501827941 -1.2573869452832733 0.0906190451401536
Ni 5.602001910698159 8.19101543974104 6.296122890024669 0.20733812980146873 0.27225668485172466 -0.08624714132470307
Ni 2.983016385215138 0.6736791052928615 3.619588746093723 -0.32009745848408744 0.504229582482738 0.268526271275015
Ni 3.6298408752709066 2.1798549526015325 1.3318740552163715 -0.5220231590207333 0.29696498623168216 0.4963105847459775
Ni 6.345944109451614 5.944978062187201 7.087234057157978 -1.0876663687242623 0.24747536414198673 -0.5922834379988767
Ni -0.33196898854784757 5.4418026447545556 7.417249866017395 1.8691498321630005 -1.122746500256847 -2.249799598308848
Ni 2.1267090158467905 2.242652110738285 5.528402173495516 0.5265395588338481 0.19434043199022014 -0.04679613441793231
Ni 1.4002894718838685 0.257834397536676 10.263559269122497 1.0649830681941337 0.38649182674892146 -0.6387311879384548
Ni 5.346253718239687 6.7632309959162145 9.765876424162673 0.9307000065071263 -1.768871923776844 0.06054922233796669
Ni 6.799212070308084 7.89980910028497 4.028034489929194 -1.3987192005075781 0.6234722048968553 -0.021081760370963692
Ni 5.936354347264112 0.09629478611406797 10.252818156960846 0.7459785856639088 -0.7869506572008963 1.006169340490035
Ni 7.511301568834978 5.630799614042391 11.428567192826533 0.2615752938784785 0.842960854017929 0.9369231045987025
Ni 8.143181344412328 3.017025014172471 10.985949519900078 0.12783987716482498 -0.23594062402950977 0.13545162807381186
Ni 7.449302563036852 8.357205435306748 12.539919096212289 -1.5662034315369024 1.17580661330662 1.1181059161610423
Ni 2.1038011263117324 2.5668946176816365 10.701142160400238 0.7137431226689708 0.5952057538519944 0.10653288815693265
Ni 6.464428447995976 1.5447917418344879 6.605528937634382 0.22142751801499932 0.5642638128574992 -1.5081409801765315
P 0.5751118785549113 6.028013427898779 5.1416689255201256 -0.7253647660682991 2.181660222328449 0.13001040245358253
P 3.691922448552339 5.461472054111049 0.5179981155190673 -0.4758798276954514 -0.03497934428866234 -0.775331327794413
P 1.9011713481135657 3.097298956275697 3.398669352926757 0.6379454588123659 1.2442990017510636 -0.7406538310168856
P 8.420231947563796 4.909343293242652 1.028061495892411 -0.565717257474574 -0.6631862356570255 -0.12675564296171074
P 1.141339495906078 8.945526276357684 2.8332307137494053 0.26506222398581447 0.7502283620791982 -0.1254541505414678
P 7.8108105274457245 0.397287207174882 4.964657085142422 -0.20154029217276903 0.2317589818479944 0.8383256692387626
P 3.3951290427258844 4.361131900748893 10.032059311678086 0.30563397476058973 -0.37113334201498016 0.6975150908458827
P 1.2748235939177288 8.636347748035304 7.72477612725717 -1.1774798872439851 2.754070575552483 1.5527943572198482
Ni 7.3742854173707855 2.6784891584523387 4.511874437604497 -1.7425307147791538 0.8067376100198363 1.577741256973173
Ni 0.3891029347462776 1.2852454451439306 12.35973849930859 0.5345308045694407 -1.0981477278715603 -0.008433732589649991
Ni 0.6523335760252528 4.381975603201297 11.88000674263601 -0.06757604727776104 -1.6800097134267968 1.9688438430212285
Ni 8.142245579601525 0.5596011181076057 8.179411956087078 0.14984492068100644 -2.379556747101044 1.6446778708947223
Ni 4.100466355951297 3.091271529994346 3.681717107615696 -0.7906772141228642 -1.5290314504722957 0.8317523868966191
Ni 0.5509361194428631 5.184770069222431 3.0761580108833915 0.33660471211049126 -0.491448885778302 -0.23493917934818895
Ni 6.246973219461945 6.394502963800457 0.2384759923673025 0.14082831900469295 0.7447701671781045 -0.3206674720549445
Ni 5.06695544470933 5.170513417104897 11.857341968468464 -1.4963398737765454 1.513950130659141 -0.5924366757472894
Ni 8.24379440990331 7.567016271737024 6.315337260806496 0.08063236624108694 0.25979994714561067 -0.5985371322180725
Ni 0.847726773019874 8.96745253025788 5.13831209861549 -1.2030739336630054 0.6210129447230853 0.8034589392685647
Ni 3.1172344164117325 5.0552675587391 2.687812862150569 -0.9685808407132996 -0.8005703048668599 -0.7060447255834486
Ni 3.676904340755427 7.828929502949024 11.130105006420811 -1.1008754112153685 1.5841175928131621 -1.2947697568071055
Ni 8.826115347167331 7.480164453463739 2.8821739656038625 -0.40772682486829775 -0.8379171209464343 -0.13824975964423933
Ni 2.591756604321607 5.059340887915538 4.890591300367339 0.11667511879725713 -0.6113612805659343 1.6779618297588326
Ni 2.29545860339499 7.418725071719131 4.285838612721991 0.2835021758585569 -0.929681849655257 -0.17900560140536267
Ni 4.102200273100726 7.969422662876888 8.204775769542255 -1.0138659378033443 -0.31442689046187144 -0.2985385013663891
Ni 2.2866055343516054 5.95185868579605 11.348540953173224 0.9513143403233679 -0.4034965888370341 1.2724471820505052
Ni 8.915581802411978 6.704112677868992 0.0958590132855076 -0.055156333457169526 0.9414994111154752 -0.6723542753095388
Ni 7.64254717063255 0.9541131404269189 2.827350074105043 -1.5227026800407906 -0.7399159244095966 -0.9854603900774576
Ni 6.869504521096075 1.5482595761333473 12.135019167076576 -0.9350233164728284 -0.2898918814349846 0.21069830452295327
Ni 5.205155063434244 3.8042784450024207 5.864138991531569 0.17941183570484584 -0.41487500587730486 0.6389191355795448
Ni -0.5119413319103187 1.8989970710531698 6.417344799348871 2.1611063094364975 0.7831405394261868 -0.3448152729457416
Ni 6.552005025289394 3.9828076922399958 13.270889025921862 1.5175165078541608 0.6157465541178234 -1.1523872059414153
Ni 0.44264886508681367 3.7437840022334297 9.350502351061333 0.06838928720767577 0.21119118499897177 -1.0290444453159955
P 4.216638804963085 1.748137104887975 6.329436117289267 0.45503589436690667 0.7140022898676284 0.283322455747583
P 1.540938592613533 3.655666149216116 7.041728364858502 -1.8971486313687718 -1.597963497557319 -0.28472550674269675
P 6.50946442305709 7.9685235947253314 8.43031435469196 0.5582407465918708 0.35872442682766603 -1.5334115818178624
P 1.6356343218009046 7.965193372898649 12.738402151915523 0.9050090294989254 0.4308454131636322 0.18588073125864116
P 5.834447724534668 2.2535601926995117 0.9070450878599928 0.6593434648721677 -0.27920020604909335 0.3438405677372981
P 6.847743402162491 8.320325292763323 1.4754341384408192 -0.14740957176663647 -0.5174921039195991 0.29648521838178615
P 6.288605579377881 3.997394614290754 10.50847369035472 1.2675412601084557 0.5554274455127919 0.5067634046481853
P 1.9234829169358567 2.660278441300921 13.074286674005045 0.594465276141544 0.4583240781998752 0.09612763366320864
