# total energy = -340856.14473935764 ev
CRYSTAL
PRIMVEC
9.42145114393495 0.00000000000000 0.00000000000000
0.00000000000000 9.42145114393495 0.00000000000000
0.00000000000000 0.00000000000000 13.78924608402400
PRIMCOORD
 96 1
Ni 0.676043747121135 9.125127434809189 13.647726299603775 -0.2662246197250318 1.0275974284568237 -0.8150720980274608
Ni 5.878080907799295 2.378878668666479 5.751577202156756 -0.282000651612366 2.700617340829349 0.7255280311190407
Ni 0.8738584146923248 1.4477660968014219 4.69748548943414 -1.3328773623121044 -0.12692456443940722 1.4423636766704062
Ni 8.384836929650815 0.42063198156413306 1.7113971361312545 -1.174642674905506 -1.718109348511996 -1.0872233676495726
Ni 2.584181505419977 8.07340144840977 9.39179971849238 1.020030157632527 -0.11960849039396819 0.08707375099105649
Ni 5.448123574125639 5.210005823856817 7.174503643637147 0.8908787607451303 -1.4311186998842063 0.08740953706392043
Ni 1.449669229884998 5.709418093630092 9.060320100442876 0.10719751832412505 0.001832425223048457 0.515700559236815
Ni 4.714258498487063 8.539461781965919 9.093869887129088 0.6941613438823013 -0.8423005947261107 -0.4369656671287572
Ni 6.212853322941421 4.09928271186654 12.272290565719336 0.29229534867015466 0.1308274990382392 -0.8909908608429624
Ni 4.111634234007966 4.528467486565674 10.533728560182759 -0.2970372342305142 3.9105237240331556 0.4188216492298787
Ni 8.427836431598545 3.4905627686494536 7.373812553322471 -1.2716097737508745 1.9414065727458822 -1.3349111049126816
Ni 8.365193204505983 0.5694249557666935 10.771427998031232 -1.6471808398222345 0.4354991098855597 1.1403924954733842
Ni 5.507959208847381 9.427574851883247 1.1727709033854037 -0.9218258439459479 -1.5859430760576751 0.32897599192063987
Ni 8.46430686806648 5.052271892741812 9.309809541958613 0.9610115130064739 -0.057797370624442394 -0.5155964295587829
Ni 5.025392493299027 7.581733611283522 6.94644329221346 1.3002055831106962 -1.2869572027412224 -0.916087398800274
Ni 3.5899873400899414 8.668413180554563 2.8938108945218075 0.5945295537205761 -0.14602349005238724 -0.15484777321223656
Ni 1.0344941526872375 0.9958944683139145 2.2756808061370197 0.10234378977624956 1.7404252384003769 -0.2013639144959048
Ni 2.5476828045993147 8.803158771452113 5.200903760133833 -0.9118787600355651 -0.3674229830429285 -0.3345745690543399
Ni 3.7511883651393814 2.575862364267513 10.982844414279446 -1.3832108204593339 -3.7891889949767004 2.175709661171969
Ni 0.03901893893876427 5.312237987668125 1.5522556402504764 -0.15941945174331898 0.030532621371218382 0.9438751104365034
Ni 3.0740310025208273 2.374064307252086 1.125577913638171 -0.9500619559735058 2.137227960157003 3.188197487680864
Ni 5.033909484920575 5.5584487642676 13.466481137745879 -0.6635099375450316 0.9669060241140379 0.8176095197373338
Ni 0.9061249997647576 2.357529660907155 7.05348887529407 1.7230954888726775 1.0514186992461376 -0.09256177068882122
Ni 7.017765559883201 6.725785374768812 8.635873373405774 -0.256679399238758 2.241325756509882 -0.4654012967616307
P 4.3758022960396 7.012753347999723 3.9688483769048517 0.15441685632240504 0.26226357819475477 0.3655219093654737
P 6.024904798761917 3.1859766822191 7.793199019076462 -0.521898974738043 -0.46257616860800976 -0.3154324489082503
P 4.206084279368611 5.697377479368655 8.687748824254676 -1.815673200401099 0.9236834659799769 0.8867261720293373
P 0.9167429749389666 0.3222249268217951 6.7692926929205255 -0.19084013214644552 -1.619654095156875 -1.0067403825021564
P 8.161313006839713 1.4234022247512843 13.008802126918193 0.33762492584488957 0.021194374689428013 0.20538743383300112
P 7.244068810712398 8.645622690806192 5.715076617045912 -0.1919282230043017 -1.5340574429319773 -0.8684769960111623
P 2.7284710260881346 3.5483633699748958 5.006888763714159 0.9181386249023477 -0.9538162808096153 -2.194376898564169
P 2.8114928514964146 1.681983366394004 13.008236839863665 -0.7602078418894134 -0.5459161635882469 -1.7802241155648697
Ni 4.827673924527107 2.499840676884466 13.502388171449468 0.879269458640976 0.6769285249437825 -0.9480459539847415
Ni 4.441055265033897 1.5496873527327395 8.883817696972466 -1.19161015599778 1.0304654940332383 -1.619555879016114
Ni 8.44128084204539 2.3695137464631393 3.1009942528767005 1.3967039698497623 0.3336379161726835 -1.4390204712297863
Ni 0.1202940273485539 0.9706355584274418 8.826179144602657 1.0957303766793194 -1.2938937819600556 -0.49600282369757154
Ni 2.644667220254425 4.863889981820505 1.3654508802113015 0.679604786224365 -0.6163440784925063 -1.430436586215517
Ni 2.6952604116346413 0.1950051909101878 0.8775374912722084 1.0246260045333258 -1.4428573284773731 -0.7292396756426731
Ni 2.4694941835072455 6.348211308148042 2.998030042329779 0.6796538942947455 0.933388866193199 0.13702617164978337
Ni 7.979582640260014 5.119503366426955 3.8573483318345647 -0.42433640840052084 -0.2254003866198183 -0.3649431540438683
Ni 8.184744155249879 3.007826466984742 11.118379522763153 -1.028481373723674 -0.305542443488048 1.0119147276142444
Ni 6.089988181639857 3.473180191722731 3.4831217067216893 0.8318477748239028 -1.0885919658623253 -0.00629406053882787
Ni 6.635509032160762 1.8923361008346151 1.1828273600854489 0.9152615604648688 2.2101611579816196 -0.10328224243011891
Ni 7.999688016499377 3.7829763405056474 13.727055858400899 0.9571535727129645 -2.561012352708796 0.8669795855300295
Ni 1.0338534940254396 9.053552672255092 10.924295749751845 2.881695251382708 3.910286411211369 0.4282131177471077
Ni 2.8518449257387726 1.3111550586239302 3.695214583145154 1.6947742733304814 0.9891661210638188 -0.3754702788274372
Ni 3.1210628854575195 7.2221074086440025 0.5450450672500111 0.5615860089150199 0.2810601420759676 -0.10090294356466493
Ni 0.4330315531051949 7.823987378501305 9.271819425459089 -3.019056951995039 -1.4639699420862724 -1.4704946305786675
Ni 5.530467055068486 0.3111867549370538 5.392781029342301 -2.996706866434613 -2.701527254238128 1.150136976454658
Ni 7.393087899736769 7.44247514540066 2.841729113898002 0.8380433621116534 0.2812100373902705 -0.06367414112019357
Ni 0.3349815713523002 4.597620936236211 11.244564783364973 -0.1312447890813159 0.3745310548426195 -0.05668382584528947
Ni 1.1585935040578528 5.968884851658238 13.47105902074246 0.4782966646670601 1.7280685166072367 -1.1829848762226145
Ni 1.2244777102630389 3.696289570693847 13.309752475442844 0.28657798657040323 -0.6430406139470861 1.3276258841051778
Ni 2.6470414258834407 4.220480256357246 6.876627514544035 -0.21771741615326376 0.8364155967002435 1.3360318487806861
Ni 4.055133792907937 9.224241098369687 11.939142408713886 -0.6841893202712539 0.6250038110500333 0.09372673753119988
Ni 6.732785512794045 1.0396665292361646 3.6713594694440914 -0.7129499373437141 -0.34738689032765974 -1.1020462915950182
P 9.341425104773247 7.511204629780301 0.9089495507472135 -0.9369061353178381 -0.5844006928166903 1.0792748022264573
P 0.19674627503813266 3.0918469661893537 9.270110374264233 0.24022279634463142 1.31090240070291 0.29096917365956343
P 7.860552029478328 2.6280383594004064 4.993030751572416 0.1626148187521651 1.2406922582364117 1.5028979866100374
P 5.458798078005302 4.235450941851318 1.4649696661608769 0.19534444777470228 -0.17872278005762124 -1.314933376239174
P 1.596125684262178 7.274763897773244 11.646975678871502 0.6756645706296944 -0.7021230219315392 0.37823215784329056
P 0.11096113807830403 5.580005043946917 6.795588904552056 -0.32296603828113407 0.5827037647302417 1.0813142012539894
P 7.405740908307278 9.397002243684215 8.818677785389076 0.19563446821129532 -1.0838943032763397 -0.14885658862580814
P 2.044737490735243 1.558882688819721 10.194472476553141 -0.010016760806053716 -0.8611318685000008 -1.2192783113370098
Ni 1.1421624936729187 8.210935788776323 2.8970236092817054 -0.826727422878202 -0.07885059175031582 -0.6710453266901282
Ni 1.934440564946009 6.902465843661398 7.114368406776506 0.34793530663196204 0.6836900120373323 1.3823908956611999
Ni 3.089293752993071 5.8599540362507785 5.41229285417441 0.7902105588990906 0.7804768765510944 -1.7263067967211236
Ni 0.7830328014962922 1.8798809427331913 11.969093201152937 0.22437143113467167 -0.6690959162732412 0.587335349964982
Ni 6.185276736131385 4.935021936181889 9.844653062164582 0.3044386689009079 -0.8533257421920206 -0.24115816367470727
Ni 8.569629267775872 9.004834349605725 4.026432284859392 0.4554796667725446 0.43562046595477233 0.7373579338744334
Ni 3.3617903776280773 1.7434206477702403 6.159531679378017 -0.025262374111214556 0.059615654780103784 0.27617864561395017
Ni 7.073427491852348 5.761650617468438 1.2594077395073873 0.3225883432267412 -1.6813945095894656 0.4842680517591466
Ni 5.818075686961195 7.662371809611877 11.15523812300853 0.4301877249749752 -0.3648513656610104 0.2521126058036819
Ni 8.001675942641132 1.1625881992431808 6.600139963304064 0.42806965019070786 -0.6135652301957883 0.4674692350342529
Ni 7.3184323227354975 8.031466570414734 -0.053472386777942894 0.05732840140782385 0.6080730967329656 0.9038121809773467
Ni 0.6045396454488542 7.267980453118914 5.32730948268692 -0.5429863915359616 -0.46420856200511024 -2.247018693129601
Ni 5.340869776979946 6.873249924393233 1.9827283272888432 -2.1932402138565648 1.0644055984241088 -0.07109717305714208
Ni 8.734740194952462 8.038193486363612 7.111996085437672 0.2464798329979368 0.5726304396546396 1.2247339351349424
Ni 0.553964354825365 4.066364162391218 5.190189686160354 -1.1316034364268448 0.10909062158177986 1.495426875043973
Ni 2.4592624878202964 3.659640126658644 8.925710178438413 -0.3789862624004957 -2.189240348668552 2.3656735613610484
Ni 7.474969729585085 2.223170349496865 9.080935177176405 -1.5613725858071628 -0.3506820161391638 -0.25123071741936087
Ni 5.5744558093616385 5.523749560570517 4.953566178005665 0.03580029752806092 -0.14954127339765858 -0.5419543507270215
Ni 1.510192630523081 3.5241313982374813 3.1615704136398732 0.5999664084654313 -0.05127242502173105 -0.925107085800381
Ni 7.354149043130731 6.18601160930227 5.977017448082708 2.2476254734756647 1.4479002902179194 1.3809081404680863
Ni 8.02830096290938 5.8609621314980185 13.04388195723199 0.7557714033846146 0.9630421702832576 -2.2989400645892406
Ni 5.858917676650812 0.6398107312161008 10.365886354387712 1.2485696041019594 -1.9775511409872395 0.47823084442613123
Ni 8.762326203213405 8.015940019317043 11.808213447579487 -1.1831723096430722 -2.1005041223734082 0.7854486187340731
Ni 4.384498295228416 4.903874619477421 3.210701395839044 -2.26752298373054 -0.4389760126905666 -1.1897260516011898
P 4.708530256334517 1.6015901257892775 2.5646338790744143 0.5525694072387063 -0.6466702402798733 -0.02199578754480083
P 0.6055854264997301 5.731049744916679 3.6537780999031937 -0.6956009045423052 0.07719531553507995 0.4742870292870348
P 5.808249113663326 2.5649429026642228 10.859003210663731 1.531901572931239 2.3790849496709483 0.4391284791080309
P 0.1400621156453824 3.1174733126612693 1.5166924895050573 0.7130581807868042 -0.09573451198984803 -2.158666332536437
P 3.6512456138989102 9.09164359827934 6.9533096456357875 0.3727991597531773 1.2341793968185581 1.7721269403790318
P 2.292003469836503 5.196222241177254 11.58826119680791 0.9259874315228053 -0.49278200276742873 0.290104511666423
P 5.181034862312281 7.948152680028282 13.300279206554052 -1.0206382235301712 -0.677897059504639 0.48500981502117757
P 7.616338600471518 6.396901366444682 10.905197526614632 0.14462918080802187 -0.699511552450621 -0.3683994880235849
