# total energy = -381169.71568684257 ev
CRYSTAL
PRIMVEC
9.22386410443604 0.00000000000000 0.00000000000000
0.00000000000000 9.22386410443604 0.00000000000000
0.00000000000000 0.00000000000000 13.50005747931035
PRIMCOORD
 96 1
Ni 7.32590646121403 0.8051833787926316 10.129012004963363 0.5677330023530223 1.734980927456354 0.5193425268647766
Ni 0.5867936385906507 6.871123842904869 3.8693860758061738 1.6454155203916951 0.983001387014004 -0.08146617499629197
Ni 8.552209966367354 8.438737990493927 11.796349959019299 1.2624808148664128 -0.8902570680007313 -0.6374919162147149
Ni 2.2458448731599434 7.775791207698383 8.360801873362979 -2.0447209539655176 -0.41173311781421346 3.0374282554133756
Ni 6.5414168214778154 0.25500294626863507 4.356914333974564 -0.553158446972957 -1.6675455195215152 1.4974390203779953
Ni 5.178941410957934 7.479825081064451 4.681684743347688 0.2628112231681087 0.11784265674279704 1.158547054895224
Ni 2.480066453663432 2.4676511326159902 3.1162723321137764 -0.06657563103770471 -1.0078593265979479 -0.04933329901748923
Ni 8.324020792970126 5.99342705667207 1.8534497043073832 -0.22294806842458376 -0.8201983635104326 7.481910199341955e-05
Ni 5.5854463246888555 4.636707337336145 3.687621532694147 1.8680290882949955 -0.1420627056324263 2.8072818694681394
Ni 2.0396361678578527 2.0866225314653337 5.639271261122913 0.04965237291980481 -0.010056870015369777 -0.6016761920676863
Ni 7.4292229627388435 4.523779569443254 12.818749802503335 0.4600418322219303 -0.08560873640975579 -0.5339124542591515
Ni 2.819357069866336 0.05696289499300378 13.511937946061243 -0.7862598017814587 0.8839282975692261 0.35233703524408355
Ni 1.0258320433070334 2.2236707039191925 7.845005238958262 1.787390551406322 0.23179523440256852 0.004157216701483163
Ni 6.147253437881723 4.600697371980117 1.4438040648582953 0.9805338993101178 0.13546654047214735 -0.7659719980667001
Ni 0.7158687029364791 1.440693777891581 2.0557078286253585 0.123453060951039 -0.7194651127544125 -1.7956882726387395
Ni 6.454786290068026 2.2663034036824 0.9098271943581036 -1.955988327214799 -0.3860915059867092 -0.2540689581991044
Ni 2.5195353680482797 5.275819655357106 8.512919994945596 0.8030370212397976 0.5233891861303244 -1.4727219772472895
Ni 7.854489216002079 0.5509875206307211 7.2455481573765015 -0.5634688277600296 -1.4816907564048032 -0.5870975229225631
Ni 0.5869006354139422 5.503575307142721 6.507351246669187 -0.23563980495963935 0.5770946460735803 0.16232042744019787
Ni 7.785697637716922 7.953341367313697 3.042669586326132 0.17145504275161438 0.8490888212925377 0.10222963279588845
Ni 7.122400348086457 2.090699479387302 5.285528694684399 0.4207939424649011 0.9869025218406229 0.528557103484509
Ni 9.096943707153969 7.265176540132041 8.041970710068938 -1.073709649433854 -1.0417549509041284 0.8410479532659322
Ni 0.3152559935778518 4.594932456932085 8.683614978778994 -0.7269629637933545 0.35728306639544916 -2.031275112873257
Ni 8.586983933937084 3.034743519924894 0.7825092761189154 0.5944027983347248 0.5102408216738245 1.353876847381907
P 0.2716344955856059 1.8566623761653505 9.91275482213595 0.14268465548714138 1.9456000420019395 1.681710755278304
Ni 2.0956803659888017 7.383776984432196 12.446135210163582 -0.7046331899479026 -0.6678862122358562 -0.7004335500442582
P 6.580442990386974 7.393895563324503 1.3936105637112928 0.7442268930801248 -0.010007761944989216 -0.0819837380626588
Ni 2.906107511509124 0.6265992240143031 7.51445607874099 -0.7586921765758352 -0.00031598857852203644 -0.23286532753829575
P 3.893577504120532 1.1574934791400109 4.346019105726988 0.35566455695541976 0.7000936502063362 -1.4376960959914078
P 0.7601653877791504 0.914923379260564 13.326162866848602 0.0804467325928421 0.15673804825641394 -0.037140356495723136
P -0.046087959246395936 1.0507641479067629 5.632737075810873 0.4170648144397721 -0.6089817245901641 -0.27134522878104883
Ni 1.488436498353364 4.364474212971952 10.454349681977213 0.8326229624270305 -2.1549006948464178 2.462676398540359
Ni 1.90090002827793 2.993328370219831 0.5229202246312699 0.20827401135217677 -1.0999996934786345 -0.7192805075474322
Ni 2.7703599038901006 4.840075092502566 12.677525986781886 -1.8974396802466291 -0.902664954746781 -0.38531914659705896
Ni 2.936398681137504 6.380663318346449 0.8362087680015292 0.902693236881555 1.9755320536746819 1.306845457024717
Ni 7.355505841036647 2.27846045653569 12.156720794183437 -1.548653081357965 -0.9280031764012533 0.09415251221470883
Ni 3.886069278761975 7.7166293435094575 7.183218818263585 2.7177527149580545 -1.329957360451832 -0.8575246107647166
Ni 8.061076099731322 7.750148865564736 5.696119780201364 1.059460852824324 0.813006987968316 -1.1359321457091858
Ni 3.5263939229492296 6.034814534784903 10.923072326065718 -0.2557630580720756 1.976464335680964 -2.0099431841646997
Ni 4.509667057405671 2.7496615529016464 5.87927528201618 0.8992029643401095 0.5719223578440215 -1.5808389220618904
Ni 7.957685807293894 0.3065071585009581 0.34953095010102403 0.6344814115231654 0.27426317375879217 1.4976251682468722
Ni 5.4282624569552285 2.4849458777600866 3.2158356433457183 -0.5884059573213414 -0.8109102533402872 0.32641337339978627
Ni 3.730877765668949 3.894758158722369 10.060040561328705 -0.2723189055482278 0.17574415704527155 -0.43108658264016075
Ni 3.7856767421495237 4.4702534862052845 1.82621993516611 -0.2213645259875478 -1.1948176071914842 0.8550288409260565
Ni 8.227825114512642 5.417405968936775 4.414937050949998 -1.5970304442200882 -1.3380157119799345 0.1451698838028403
Ni 1.6042421118382337 0.19382566777891785 11.292676249170787 -0.3290739509510849 0.5098243029616962 0.06017949770337377
Ni 1.3197043527955206 4.379997976213293 2.056963196526218 -0.8331947757701005 1.224111213949279 1.7968252144566603
Ni 5.761797381974178 7.471173096560364 10.282170578413849 -1.1769988338425084 1.418935270444137 0.2422056311026151
Ni 6.42087936572152 9.137971454567804 12.211219995081514 -1.1630248881609195 0.8104811362226687 -0.6986273500734548
Ni 0.2799590329149643 2.8458203359028227 12.142423804864318 2.167694504176976 -0.5356582333056646 -0.45911957751797705
Ni 4.5841682075543995 0.6420408948653601 10.847768699742302 -1.2213948434593802 -1.6264911726833666 1.4931766455572155
Ni 2.503854799117632 6.371384111085136 5.583448435729809 -0.13705393956392525 0.1838207634058189 -1.6875613005218095
Ni 0.8854725036495851 8.171863931158384 1.8598492212039026 0.07600000967539815 -0.3832650922815077 -1.0948880832836823
Ni 8.084735311088446 2.531295794746265 8.211652913626699 -2.4553256146022426 1.650461310345719 0.6253727643536777
Ni 3.131852360925986 8.67628938592916 5.314784024376949 -1.0397667168295062 -0.028853948117214825 -1.4760950074845804
Ni 5.398773763501535 0.23058737805720927 8.693186582531544 -0.5115497702932351 0.41781223412875784 -0.2121206387917766
P 2.6159155237873004 6.1122488737100715 3.1028128696528348 0.01595472355704349 -0.03521100068349419 0.14685189949095354
Ni 4.983413940256838 8.491738313479516 0.4397025229299161 -0.034113139633625125 -0.952903796297675 -0.2613289821956274
P 3.3034715759398843 8.307971269476404 10.283763539739923 -0.8001692127736993 -1.3420852540636177 -0.4031150371278993
Ni 4.654454051820008 3.7088050589330437 13.118208084076763 1.2445003191285922 0.9488923611454367 0.7923211774841903
P 6.184379490791049 3.9714361407932355 9.113685942839862 1.2179768189167668 0.10130326432687715 -1.0529428492001478
P 7.456341123124786 8.249528866685473 9.192634840246448 0.2759688435959892 -1.505622584630052 -1.6698571983738275
P 5.006593510681966 1.7415024331658602 12.773835118767515 0.3262218262142704 -2.668724091665178 -0.20763072134122307
Ni 5.401882205695434 0.28430531766797673 2.4583737701274933 0.8216731482837462 -0.34932575922158554 -0.18944685134334469
Ni 4.3646771379816425 5.510290280190669 6.152934415766655 1.581874048194624 -1.0995443511087708 0.6180142671060777
Ni 7.597429348044307 5.4341749538284905 7.680763270433029 -0.5211520692696896 -0.10675220325659035 -0.073706328545215
Ni 5.1145403919733585 5.680774959923115 8.493952963244368 -0.23488107241674386 0.5324785500261022 0.24089565404194
Ni 1.3341581478039466 0.1327572308853075 3.834408260840345 -0.7009256591893284 0.2300998489780166 1.4150737306062018
Ni 5.166719791056106 6.446475588534784 2.661617003128876 -1.5058750669604906 1.942844847854306 -1.5704907460583468
Ni 1.2622027841404284 4.626717892540915 4.433783250031821 0.09740110105899355 -0.5010049048978533 0.20556021196543953
Ni 2.555886616375151 1.565298957705767 9.570163907366348 0.22914596970517953 0.5518240444322496 0.8228455713252926
Ni 7.655816407650776 1.4407491210760421 2.7288202320200003 0.3590046770722462 0.3098017329850342 -0.09845988134081109
Ni 0.7657070853165228 5.61648462730746 0.21106968167059162 -0.5775947256384504 -0.04295799161876473 -0.9105507852527609
Ni 5.823099182628932 5.276815832677405 11.012051253269473 0.3092785134917125 -1.9550293057356394 -0.24314202687395547
Ni 1.1027682935720513 7.942466431567088 6.304742615516291 -0.38051324056798336 1.8516485900544435 -0.7583221948309262
Ni 5.421897990742202 2.5431484600850194 10.421288585966554 1.896773764527856 0.4534232984641481 0.6064620434921039
Ni 1.2561703770341677 6.52200981146012 10.231531564631934 -1.4657743422848626 1.967705615651727 0.2617069343603364
Ni 3.4768156535361534 3.9858714880735078 4.334099106180473 -0.04383113825233742 1.914969718710592 -0.1956835762816759
Ni 0.3915299704021517 9.315641524416115 8.940507894796976 0.3158983328010753 -1.1049742638750906 0.26535712951841395
Ni 6.405337154752026 4.154741991592504 6.238281907683354 0.15134875892004257 -0.8909229837195043 -0.1693876186996244
Ni 3.871661603073933 1.8086152681890313 1.3692429595930666 0.6562527417619859 0.04312845575835798 -0.9997937759809944
Ni 2.9204045008282433 2.477419204673376 11.989846334850672 0.36870853462357145 -1.0413127211603872 -0.9660699013659879
Ni 9.060869174749403 3.2779399201751596 6.195702706331792 -0.6662736163330977 1.478511844456189 0.45000270281837335
Ni 8.23673536721088 3.653332740374859 10.284303135788416 -1.524319646818923 0.08589644285350367 1.2009568873200027
Ni 0.11811711382252887 2.567508685111984 4.058644086094235 -0.2753412373143193 0.10312643357854498 -1.3883206308820737
Ni 4.3046205589772635 2.455401841121932 8.058306173349044 0.7297112159624529 0.32673913217032113 1.9180550425041356
Ni 7.681080571357272 6.079873110800323 9.937324428877456 1.5775157712259285 0.6988111839494868 0.4573177484225479
Ni 6.206267720245418 7.921251544190331 7.172675019237336 0.764773863993541 -1.1712002248828604 0.24203311008049283
P 8.86433630286393 6.034371789309215 11.950048128518281 0.14586099633259395 0.46154001403401157 -0.9169841995829303
Ni 6.934205849326457 6.829395081821194 12.78665997937997 -1.0127228253378364 0.6201397980895127 0.07094959173568426
P 2.85684285347466 3.7295218576496523 6.962816430920035 -0.2988912567201175 0.3436459352279888 0.07406191211242084
Ni 3.4023606227078083 8.45407727645373 2.552698848950191 -1.2588856413159866 -0.7964421416310994 0.2543036999177298
P 7.652200652932651 3.747969585803355 2.94922261936355 -0.2220209286246241 -0.023932599556197493 -0.3382484183615013
P 6.688343752357982 6.21467066041943 5.777106229182528 -1.6572824470326102 -0.614600099218206 -0.15205992605445423
P 4.689200347797507 5.863804094800077 12.68113067286312 0.47461535916073105 1.162068437784921 1.7561184807659176
Ni 4.843644727900307 0.5586138114494619 6.286963617508161 2.325723760440988 -0.3368255698720457 0.13513743926750277
