# total energy = -340891.83013986686 ev
CRYSTAL
PRIMVEC
9.04145375732476 0.00000000000000 0.00000000000000

0.00000000000000 9.04145375732476 0.00000000000000

0.00000000000000 0.00000000000000 13.23308149799519

PRIMCOORD
 96 1
Ni 6.5350450639643425 2.074914126408075 11.7250925440343 -0.14031821213749382 -0.589590721658062 -1.396849751399007
Ni 4.555057158042472 0.5065664204021886 6.243790913496092 -0.2404716791306439 -0.7869527140834254 -1.7595431901767502
Ni 2.3710940607529705 1.5413417884927667 4.705789942078251 0.9310787300027836 -0.09538432773928089 1.1012793315220066
Ni 3.4932740641480704 4.586440043203689 5.007755502529359 -1.020551577353636 -1.8092253878932258 0.30667552865122666
Ni 5.027274192384166 4.719367492826335 2.4434094142811875 0.33485661907113295 -0.3640486672540569 0.8030915286268169
Ni 7.258713962097047 6.022955219607966 2.663474776329573 -0.076849502159887 -0.4392061264235017 -0.44413184585989324
Ni 4.948360386078462 4.534008654252409 11.348742945490041 0.023635380030752842 0.2282486547018908 -0.28657361569502904
Ni 5.493777028102439 7.626122467257288 12.457252271165823 0.24869252437853942 1.7009827161340383 -0.25060542513053613
Ni 1.8431635898329373 6.401086888640637 0.44864506087473666 -0.24499502092229422 0.08254732387561267 -0.936148431216207
Ni 2.7061160794114887 1.2512557938190494 0.3868729462939393 0.6474976212771751 0.643102577533273 0.5570577820273632
Ni 0.29029756468603996 9.085485396701724 4.817146291897489 0.8578267153861678 -0.6969684743137932 -0.7875924045499532
Ni 8.714279481063894 2.2621987945813506 1.2979549012398746 -0.045237017460928536 0.11665069331722491 0.30254967940831123
Ni 6.870537238205801 0.5773438226869824 4.928780214339732 -1.8670078461193331 0.05839643766102201 -1.3711544035154322
Ni 0.44547783970735716 7.40288897989617 2.427542567502329 1.1938413593211439 -0.08656801499923156 0.09974491870082176
Ni 7.976677703059847 3.759843238221291 3.9287827972064053 -1.3422505759968884 0.33611363140668565 -0.7762597531459534
Ni 7.965204098545419 3.8843983018862054 12.577368885298716 -0.10378617864973094 0.3712973783966702 0.1404269698012162
Ni 8.013331755622097 8.847089391790806 6.907204852948329 -0.9612724799773446 0.7172310812175712 0.7773082490151257
Ni 7.003211527129942 0.5308635184412946 0.391916269066318 -0.8647694652525881 0.17297276494772149 -0.7346045394990123
Ni 1.8241674959914747 6.384803230854595 9.163948034476876 -0.21691626040820705 0.5867195707578541 -0.22732717132888589
Ni 9.270925608357313 4.697369636416874 1.3425618163166184 -0.18866189354820412 0.2600580859030037 0.2773896352029158
Ni 6.395915177228302 2.0595798212414302 7.110888909512678 0.3782820372446195 0.05088418844437688 0.10827635321060063
Ni 3.453220425063026 4.663283356653754 0.7793904720192089 -0.17689086905520504 -1.8320526702003865 -1.5724571257560984
Ni 5.746340990676171 5.1989713946922915 4.762810772835304 2.1427956840527678 1.458664727823275 0.5072717117431715
Ni 5.158935838514282 2.8536726008263704 9.356423401114876 1.1600953732189505 0.5185830229909327 0.2994414727966327
P 0.21028974250464974 5.83375376328886 12.362846838402257 -0.5607848531699632 -1.8193570770105891 0.4934237501164857
P 3.8355834943421527 6.107266773663957 12.422766359157203 0.12177310214545481 -0.19536784481347 1.0069589262708658
P 2.3907320977942157 8.278011265910042 1.3792710217453295 -1.390582944553689 1.8062966442822053 0.0954869147554162
P 6.407596735173646 7.771789324886893 5.725609841904593 -0.6429069165826993 -1.0436498539339962 -0.35893500017657537
P 4.856707171765799 1.1016378210020483 12.817482766378069 -0.6289070027591814 -0.44270179828158596 -0.1295871988732349
P 4.024115883100922 6.13262805078214 8.069943008534782 0.6406021797089225 0.3418050253645081 -0.010916646912503781
P 4.938568491918393 0.9817481473524569 3.934962630686005 -0.9687111956435769 0.10342956664126059 -0.3135511727251374
P 0.35414921357599316 5.4983158377685095 3.506250358237203 -0.4832329256264129 0.11098449617038307 0.015914357237411303
Ni 1.4058556075245068 0.9694065633002931 2.5963835746440957 -0.4968759703311442 0.3815044008366591 -0.5573321187346724
Ni 1.734611898895004 6.6891114319122345 4.923196212646973 0.10247825847158479 -0.21964625774486043 -0.33039678352756646
Ni 5.974330282587792 5.59564708489052 9.249924120125543 -0.20389439422724237 0.8718358851810663 -0.25621145846340393
Ni 8.625148832282774 2.589056380713053 10.333527857940453 0.32688079995450803 -0.9810766591874652 0.36295132042482003
Ni 2.2754987727064298 5.555783316329355 6.895745714759529 -0.16688464977211256 -0.9916665188881694 0.9341231732560622
Ni 0.4152712476488413 0.20331606940616334 9.52903559851903 0.2959087770530259 -0.04106103170636799 -0.7144753728493051
Ni 1.7705878424433994 1.0810323484343696 11.432151258339577 -1.1167982530932121 -0.425044490211139 -0.7903985065401806
Ni 4.053970762617585 6.964414650083909 1.516312332718697 0.628080393092828 -0.5559452656894748 -0.012660111966171747
Ni 5.662553840924228 7.958151764801325 7.780614687665879 0.02132807205381488 -0.49610695337560357 1.1269487112636527
Ni 5.2330395915483745 2.9190603926690435 4.805500899766217 0.8234729204966463 -0.6933727865427349 0.9651335055946475
Ni 0.8855009705072634 7.770604894476025 7.291599536832966 0.6410192126416832 -0.8676748118248412 -0.5242857298026647
Ni 5.170960971693314 4.3425649174608205 7.159361950113747 0.5643851689267119 1.0613259310575205 0.08897816710262095
Ni 8.004118514487185 7.257267329534155 8.986916374593092 -0.01579968603641795 0.28820266665801975 0.6793875280072363
Ni 4.728526485240138 0.3442958375320018 10.679718784129841 -0.07463321123485855 0.23998908306727057 0.002454632188079644
Ni 8.383488862651832 6.949975448815553 4.740883439763284 -1.5139092501188767 0.14943791505057488 0.37548519122577273
Ni 7.217059985739303 6.177889567093592 6.859155856517257 0.281746883730347 -1.5217685982622953 0.45813484500720447
Ni 2.3926217615794916 5.476272774091459 2.687876755229489 -0.32121614546956295 0.3075746434267283 0.38643140582463126
Ni 2.412097052457412 5.086938744149901 11.156069571019996 -1.3326102246936469 0.10478428089694214 1.2118771337769323
Ni 1.39497873894227 3.5303530650256705 3.6962112966518266 -0.15629350451982763 -0.7257661152717758 -0.6087050738900097
Ni 3.791054335765664 2.5671218144782184 2.9071491818043396 -1.0697750902661383 0.5887844237066828 -0.9747748853391535
Ni 1.0014223502077744 3.480769733932582 7.974135246330567 0.23512352744485313 0.6474688249217688 0.6833390564558166
Ni 3.752519660871655 2.5860907839591265 6.950291899688685 -1.423105856882059 0.39971115365267296 0.0413335686414643
Ni 4.083039035678176 6.959930089138947 5.933647358337891 0.7111313960777366 0.8473083323533472 0.05913717248178848
Ni 0.9077619332141005 7.403793125247978 11.187524787809357 0.1908442459115036 0.5874574773651432 -0.2532261505828349
P 0.14801582725359957 5.734939717789887 7.847667011101229 0.34248533926098434 -0.37904102689783103 0.4610615317356963
P 8.553549561873186 1.7591865695571147 8.13800074160134 -0.7615383877753787 -0.5426637180892203 0.005435312082958381
P 1.69961243232656 3.1232977861886986 10.183212789057208 1.008736844106895 0.26464261994989263 0.05110170377182167
P 4.047216796839588 6.2228979227065375 3.8689030588469393 -0.27032192972285707 0.7300683421915556 -1.438770302892193
P 6.850790703722339 3.9539451623471904 10.58017961405872 0.22318692390826725 0.660091913002418 -0.3527612672656957
P 6.18533972479248 7.777440233335685 10.32508494864528 -0.21587110697314438 -1.122156946301964 -1.6322316747115697
P 2.2451375717927546 8.672941955579285 5.6751124198608265 0.8934886875641515 -0.23616533844580617 1.569703217160045
P 6.926341089319322 3.9899934375237307 1.5702509319714397 1.3286093310643698 1.2006560682501322 -0.3417536033012824
Ni 5.404718710949463 3.083904173210473 13.558879242423648 -0.98574912496247 0.315465873249347 -0.27688955563804574
Ni 1.405059959614917 1.1539968783251842 7.258649767777068 0.4012561295422896 0.018210609470755736 -0.9489561245038368
Ni 6.890726803911648 0.7262891113622394 9.255309209840906 -0.18690865830252326 -0.1427021389886381 0.0856619582451944
Ni 3.056318698526845 1.496414805961483 9.201411297128995 -2.6635232641905286 0.3808562257296989 0.42103228372795226
Ni 6.241640855849495 2.1460251583276855 2.393163344645224 0.9038044676678628 -0.5798459835664724 1.2496139862060736
Ni 3.9923622983454647 6.843159716953089 10.343492443862715 0.8079776530745246 0.5351838647724074 -0.5238429858382914
Ni 8.037788887388475 7.202792572087791 0.45063960552082255 -0.4774152905033714 -0.9655358832393887 -0.15383552989763827
Ni 7.628183918659407 3.888891904284686 8.469700930237321 -0.6965020762003359 -0.2547371879107226 -1.4565425392739495
Ni 3.1983689747492225 8.232758791052108 12.448783141655447 -0.5627666594866825 0.16749400122133734 -0.384911369635679
Ni -0.13891108356090437 5.062382156394826 10.112681314308105 0.9579835248134275 0.14524958800084017 0.3696840111629633
Ni 8.404492159174307 1.9897255513608314 5.626878073632633 1.3677147817062638 2.9597937954583475 2.3586565066132668
Ni 3.6391398337550735 2.659615883968061 11.306463300548849 0.14622223632675463 -0.4560041718174469 0.8975847120103961
Ni 1.418631181345538 3.1972478345129827 12.39791502001744 -1.006403825098344 0.6464033597717319 1.5874880519472918
Ni 3.1695809867476923 8.232831122680253 8.065801118678154 0.33978979470669224 0.18409741410597327 -0.33214924744229896
Ni 5.4883611974451165 7.867285156944734 3.4890607468086507 0.804439558014279 -0.44733826861233283 1.507664040540113
Ni 2.830164821679392 8.192298286558751 3.4960606401223395 1.1825449604717182 0.19390437289406606 0.24318342163485213
Ni 3.2972372689693046 4.411894783037371 9.153679655716408 0.5604287553821251 -0.9710719825662696 -0.8583435071215861
Ni 7.213488611599666 6.169833632008992 11.484977758809597 -0.03660633836912405 -0.8254143604937333 -0.4401376370988355
Ni 0.6066390362308768 8.75985744824848 0.07045010166743974 0.42318429707394867 1.0656770089373646 0.22279534489680342
Ni 4.607994868390764 0.32707910174289534 1.8471924615205886 -0.25300066483559014 0.28330754334924757 -1.1607206655077753
Ni 5.841674076570688 5.556606088599499 0.13875647470574537 0.6121578083253005 -0.6951370775320093 1.7860821170075432
Ni 7.797946249914665 8.558811687820702 11.335655441522636 1.2966389488053605 1.4543331903274566 1.084392325958681
Ni 0.3224227531810899 4.721275239518648 5.716055737972049 -1.836563413586547 0.7535283729867088 0.5446504095019459
Ni 7.709412337065737 8.91102150961707 2.4863771138351054 -0.06793908704413461 -0.01700656186032555 0.843863054117224
P 8.406562652029944 1.6298033697135512 3.5818640340088117 0.6458549434674297 -0.1986071776863741 -2.049121397026058
P 2.0098156610779796 3.0591757978385545 1.459740862201493 -0.42494781673227455 0.1242724715285408 0.4904402420081295
P 4.817367807508682 0.9669924952109687 8.379412071260536 1.85033449922871 -0.4271108858218644 -1.3261012199305355
P 8.64286103972467 1.59727221995554 12.389326543320626 0.188251802593979 -0.7351606691127984 0.1287608463171976
P 6.13066605536872 7.619269045490591 1.3446395423350708 0.8792339774173503 0.012747015253023209 0.5828233210272413
P 1.8367079920210359 3.329659921285099 5.944882268479443 1.6791694769136887 -1.5009820005342474 0.08774635157804889
P 7.179212461312668 3.9793335638259273 6.143775258824567 -1.1527859840417307 -0.12173556403930003 -0.7541359246637206
P 2.553125644432248 8.512474238540602 10.167584636651226 -0.6911276992623001 0.10228285463132707 -0.0375285930730773
