# total energy = -381165.80739265017 ev
CRYSTAL
PRIMVEC
9.27967235655446 0.00000000000000 0.00000000000000

0.00000000000000 9.27967235655446 0.00000000000000

0.00000000000000 0.00000000000000 13.58173849747795

PRIMCOORD
 96 1
Ni 1.7914592705270804 4.59153538818788 3.425178961748442 -0.9409031722923731 -1.46567689747505 0.08051640948851295
Ni 7.412769158381686 7.688431099673553 7.294072871737094 -0.46378535842476254 -1.8057739390095158 -2.242263952053435
Ni 8.019826751979995 1.1775439991998728 12.24370616888217 0.36748546084974776 0.564285410124054 -1.85889241610105
Ni 7.757852327129435 4.262645247365611 8.40416200601255 -0.33740509652459955 0.7554847253821312 -1.6299433928980251
Ni 3.1402781788504965 6.258804806149517 3.608694686422989 1.1732486227714567 0.6105822363080646 -0.8317991809741546
Ni 3.7873497188182426 8.009795426371143 1.69373782687387 0.23907685566564635 1.027207906327889 1.1090348070977094
Ni 1.9294758346162857 0.25555474764778074 1.267346170628668 1.5373890784083717 -0.1741467306511646 1.6954404461595702
Ni 1.6067845147993 4.1865519356241006 7.9191450929065965 -0.41466828918313753 1.2528260653854681 0.5514486633707019
Ni 3.1835400104771945 8.012922675890277 5.018262040598189 0.8672634353190354 1.232367026200168 -0.7787809769059103
Ni 4.239975008269939 3.3013361689219183 13.588392839191135 1.2378704725169005 -0.39292524107909105 -2.9424627603790676
Ni 1.9601544307891434 3.4937037728733213 5.595350004976938 -0.16453723258585856 -0.6888224481678912 0.47962978165618686
Ni 4.964847319657298 6.949351610203724 6.283958285516168 -0.48655067714573624 -1.0307899672521923 1.3266974587536378
Ni 8.558688034848014 8.086055772211598 1.0041672443312744 1.024318757705552 -0.526773272111209 0.30359946082906425
Ni -0.3825507730754961 5.185842712233404 10.273620632943544 1.7681682128416003 -0.14732652513452693 0.8748672158082224
Ni 2.925091861048804 5.187791443387759 12.774303903688507 -0.6167410568206089 -0.2885726484029288 -1.1596482583792027
Ni 1.5405554945676954 4.779040443925559 0.9458361530781084 -0.6805748634471183 -0.4948954495660058 0.7674681229962524
Ni 1.0417081580691132 8.880367870399168 12.728261882281595 0.374262117451949 0.006638845472756308 -1.0177974116472666
Ni 8.468981444042504 7.219900452133448 9.19035439105697 -1.1936490408046796 0.6701181868901684 1.1380831306139174
Ni 6.112603571212018 4.171704460162342 1.102207908706912 0.10999616411518477 1.135742655406199 0.15791124262890868
Ni 4.137202639058082 5.708176898978055 1.1994820721618367 -0.10101684343470989 -0.5743322528370947 0.5005390210050283
Ni 9.379985419687328 1.164079194890491 0.6247038181846074 -2.074072667654757 0.6535140026745843 -0.6559151559169091
Ni 8.734547102020375 2.0141621227812885 8.820727417403718 0.38260843253411525 -0.5721506718047437 -0.11171006148249793
Ni 7.02215991799932 6.4317686156068365 13.543764111854742 0.46625953099686795 0.6603287116035724 -0.07852637564167766
Ni 1.8110950568252555 0.6792116845063705 3.9949591842983576 0.10023034297767254 -0.8888113366931402 0.7640138458990648
P 8.533586521645478 3.053058540184831 0.5145791647175312 -0.114041537829152 0.18699350470684567 -0.5196086360419696
Ni 0.7410068773782079 2.5484485272726545 2.580136751776912 -0.052918445265586284 0.6965894937078196 -0.6852558138625553
P 7.8182815522587905 2.0910070879680505 3.0665938700026567 -0.1527906335728917 -0.7999375563788675 0.7574235942760569
Ni 0.8680010468714905 8.435175598350513 10.16550966833597 0.5739046783813728 -0.4941387739056394 0.6242617906776862
P 1.6944031793680003 8.038979995325661 3.0328566938846766 0.47229056768229627 -1.2203679448567628 -0.8612686511881813
P 8.672011391309884 7.392919939623749 5.415934967431486 -0.7922113913792034 -2.6089032628528037 0.7404288594902733
P 1.217446589503348 3.4473146917274913 10.283100746025877 1.417099502786979 0.39059427895306925 -1.8745514627945459
Ni 6.705017842136168 1.412412501660559 5.139805330662574 -0.3274348726857651 2.230317064104204 -1.8999138528187343
Ni 2.9904393124248667 2.264518398083021 11.503719127474742 -0.4319324755802238 1.8154639126037702 0.6863914701288952
Ni 7.588090004568558 6.4278154752651435 3.5439105111472564 0.08854596466120879 1.6165008942398742 -0.2304757442601966
Ni 7.999086684694351 2.9202107534907507 6.264006062397216 1.9219680044052962 0.4197030233935675 0.3470930132363248
Ni 2.6862330995577697 7.441359828317735 7.1891940169441 1.0911620405823466 0.9810658605541878 1.9726346775222285
Ni 0.3654919517371524 6.235058125082868 2.440842376830779 1.4548661800127913 1.7365197326983834 1.5924214846931672
Ni 3.8664496443407588 5.410104549411097 8.173110232712753 0.11380602477957819 0.6458546863571135 -1.0528865420409157
Ni 6.8456883924641625 8.927499325318086 13.346882875362963 -1.911956385805565 -0.7873967435993794 0.8518519858599716
Ni 6.604713865719828 1.9640426134256914 0.48514126071294655 0.5392809176599165 0.31906361790293436 0.5128934288053232
Ni 5.334725772426183 -0.11398870895599889 6.040396586172623 -1.093576306450794 -1.0862283507261552 0.16994220565151377
Ni 9.217962343710893 5.247339099661573 5.190288603166985 -0.19118928795574816 0.5867949040804797 0.2546104325248712
Ni 8.374597898466542 7.765257505515987 12.058124789184008 0.18201533476596396 -0.736845513014389 -1.328505458496654
Ni 3.673181912189486 0.2731258068895551 10.794793004733313 -0.6427827323000092 -2.1608072901388398 -1.2434453955015168
Ni 5.754343267991959 1.4308883289382843 10.039268080255155 0.7097944224338679 0.32064021836143486 -0.019462993820618096
Ni 5.188775088637101 7.823478168670406 4.065448502020271 1.699897967710292 -1.1980751948968333 -1.699242336404164
Ni 0.8376258959783824 1.2766044995462904 10.762142478225691 -0.43679134633442196 0.6566821159899207 0.4380236760796262
Ni 4.483325131088154 0.751576423972547 3.928015629310156 -0.43786992411058134 0.7736606249602095 -0.41228281967009645
Ni 7.655497543164941 3.268003586510271 10.315153661646162 -0.8840856490826967 -1.2978766778672035 2.3240564000408943
Ni 5.535454360996989 3.8662640508974873 9.39455636091861 -0.596528843538792 0.20065737534718345 -0.04254352978916544
Ni 5.898038991445286 3.745387041294449 6.972741951859291 0.20413813480693233 0.05103794041342177 0.45144123503711286
Ni 7.4647724411864935 4.296933636010109 12.445408195062939 0.053247803580547 -0.3433471730406474 1.0220872972718722
Ni 5.029693668736527 1.1037891648435894 12.506267996980684 0.061165772876043044 0.5877570108834329 0.13002017264559543
Ni 4.56030929135737 1.1405366666114407 1.4605804959601516 -1.5856561409448755 0.3307587948526755 -0.5515854460588823
Ni 5.751076823390372 2.8246486895500102 2.9825228241021007 1.337109141005265 -0.9519486314732573 0.6350951338477644
Ni 9.20078567053607 0.2996907243922895 2.8725512852257236 -1.91996408660139 -0.7832773221143672 -0.39972915137480186
P 3.184941240973898 -0.009234201769997192 13.12693979761021 0.7504523051645463 0.24046139471799877 -0.21634444706513709
Ni 3.7080827591967815 3.1479060693689753 7.459444053430156 -0.3093322495477834 -0.8182381544602684 0.3753147270861794
P 5.753183308971509 7.236306912518691 1.405615141800723 0.37619481569828755 0.5061859348781604 1.087791838558533
Ni 1.4161986079033075 6.340707192665441 9.142913923055003 1.3801923453479843 -0.1871066332459423 -0.08019579292430058
P 5.654568232888943 3.4721006960764633 11.557827967893472 -0.855717639462965 -1.0714352515773804 -0.45959240338933754
P 2.673158041479259 2.486859343122849 3.799002203154074 1.4426794081386123 1.8335619077560616 -0.6756889961097267
P 3.1106760246486167 7.958868585537313 9.186620250978338 -0.19953894547202408 0.18393080662112196 1.5199909375365823
Ni 4.340854324360422 7.38062437400698 12.911506640528964 0.9170698173182013 1.6713906042992184 0.8291671426679462
Ni 1.87312038556675 7.074107522771147 0.703084569114445 0.04997633191812683 0.47335346172917186 0.17395466924501654
Ni -0.13347694846677277 5.798282515686599 7.407235689870532 -0.17002319540109426 0.7265924678278132 -0.08839555512627356
Ni 6.7914301493236 6.004263398702002 10.88334520432167 0.3061710782109824 0.5776574605555858 -0.290696379614151
Ni 2.054380221938326 2.683801825450907 0.24493880269262372 -0.15614618030868593 -1.0925789755345312 0.0023052510944089333
Ni 1.274321700194045 9.345650632682013 8.032049936153886 -0.7552008755931252 -1.5522672810717848 -0.797557229072149
Ni 1.8239566824440034 2.0499166996276346 8.55084485593534 1.3165359448396037 1.0716005735106513 0.9989591958948408
Ni 2.745650840421293 1.07467883326638 6.165456871987012 -0.08264965378143185 0.2508887606989098 0.22892999703963154
Ni 6.03728975193225 6.2857158554239545 8.685236780077444 1.306089809805615 -2.900083266971593 -1.2021357381194522
Ni 8.338639168832595 4.967417788846615 1.2613115998206794 -0.31136830614120564 -0.04429187993883985 -0.554718078150593
Ni 4.504436385260342 6.598914070617579 10.338528227859053 0.06511910109683623 0.5951219358889364 0.10420732534754956
Ni 0.2846734309299375 3.230643626379622 12.126292332930587 0.29011865273381005 0.06901329394491985 0.8559909477290097
Ni 4.475725079586167 3.0157542580871644 5.095542222409424 -0.06061735657174076 -0.03226940155666701 -0.44043948460997046
Ni 1.9594955740655278 5.865318867396437 5.883893987166313 0.05135958541889865 -0.38954783996642584 -0.5824083449770099
Ni 5.279131256494062 5.421731978632086 12.522933360219293 -0.5706434911315978 -2.174803347307616 -0.5183724496420233
Ni 7.520942296792757 8.767128030986772 4.457934092114115 -0.6092604321728474 -0.09807858674199238 -0.6756239471997462
Ni 7.894226389245684 0.5256999238383879 7.324128801907773 -0.4809029919416556 0.9872730178061642 -0.4896539986614084
Ni 6.475188201660315 5.472417547989663 5.490920286316663 1.3864730361503734 -0.3977002938702312 0.3114932617548442
Ni 3.7477069593353485 3.4712284068930854 2.0693817399579997 -1.4111085753108665 0.2592157925073665 2.223069124292539
Ni 5.582576536243744 5.319182321552156 3.426482755687428 -1.3890009447785499 -0.5489094418886159 -1.0481464562527691
Ni 6.020456426627482 8.507139455979223 11.15656937573616 0.5298382841897779 -0.37734101348758886 -0.437729284767659
Ni 8.325053728785086 4.23205944791439 3.5625032622942436 -1.2107093387210763 -1.9905017876106366 -1.3364170000342468
Ni 3.364994719964206 4.54385643261131 10.262429348314244 -1.3619102592093448 -0.7974227603768137 0.7048391353111216
Ni 6.504474847008632 9.350012078598903 2.050801980352042 0.6428670644836993 -0.5998311684391476 1.5347282437467566
Ni 5.595837187765527 8.347993078373502 8.669576405334155 0.6765040358118543 0.984776990857188 0.738470964432954
P 3.8916810729535842 5.000713252569606 5.859841076918265 0.9552185604737806 -0.34878659888866387 0.44319570719886897
Ni 4.166814072932126 0.6173524618966044 8.227110500967166 -2.1664845430292754 1.521058202458832 -0.3014857569201711
P 5.859908818525058 1.5266174269779698 7.15275460029208 -0.03309781099523332 1.7788488324838978 1.3824960537804964
Ni 1.1933101622058273 8.356437580042378 5.775213250687892 -2.1610188919290136 1.381623421367556 0.12369448753788373
P 7.804575476473156 0.112093799900192 10.083462518934294 0.548815339512913 0.11256109662888357 0.048548855442980904
P 0.2881301088108781 1.212491244567986 6.030848731483496 1.0650568588548626 0.23241487026443847 0.5658226727041867
P 0.6505310017503357 6.300758204001148 12.710632361105189 0.228784986821335 0.0476080887962664 -0.5787229257056227
Ni 2.6266112059066478 7.224948593790446 11.53423718531917 -2.5136222934606067 0.32045201361002873 -0.6100744434337105
