# total energy = -381175.0598899787 ev
CRYSTAL
PRIMVEC
9.20110279260120 0.00000000000000 0.00000000000000
0.00000000000000 9.20110279260120 0.00000000000000
0.00000000000000 0.00000000000000 13.46674399869089
PRIMCOORD
 96 1
Ni 7.304065253654218 4.82153416940021 3.480641848893852 -0.4871998806939609 0.8782906396674746 0.6702727101901618
Ni 2.270142033455531 3.8556024208049666 6.5482038780078975 -0.20671052351979882 0.6572248758672682 -0.3074738561828059
Ni 8.963189668239828 3.6022684635362214 11.158719040783437 -0.8087307291904653 0.7298492842022141 -0.32541655670415565
Ni 1.2542482978639808 2.2737580667685235 12.594987230278305 -1.0938197899201678 -1.2024031328482259 0.17384385469876512
Ni 4.714111296806864 4.548555858128314 7.594408805820797 0.026797836919134496 -0.2357159096132134 -0.2578613353620011
Ni 2.3299492002098563 8.240102619974877 9.957297033148164 -0.3716043681141277 0.8553448295045785 0.2730516699491943
Ni 8.782019958487108 1.6471353779270115 1.4894349205189483 0.9529883855916812 -0.1586712607233848 0.4391822151641017
Ni 8.379278497563481 7.085161822230809 13.332103199643303 -0.08844132076254446 -0.40717352346798913 -0.7372815721105431
Ni 7.475408185854072 7.45931545744587 3.2969547174759057 0.5056719713562194 -0.7436255120506999 0.31839281708815487
Ni 7.653127482140194 6.779317172551766 8.796961628962855 -0.23863565436316966 -0.35975209676123204 -0.7519823686558275
Ni 8.969501624608052 7.939300174508353 11.09236804987593 -1.0338544651101294 0.545588347935183 0.09981613825838938
Ni 9.306271180050372 6.281813556181555 1.8575489520020791 -1.1496299549112523 1.0389542482305398 -0.20289552064908284
Ni 7.108643036008815 8.61764226093849 1.2728428060630297 1.4404111809297258 -0.1379024036071496 -1.4183140919203703
Ni 6.312692456431941 0.47563351565354184 12.438853720639203 0.14431242089855145 -0.5249961256061281 -0.908639427162661
Ni 8.043309438045412 1.2944847194357758 10.368153866545223 -1.1673307146251253 -2.1910151811807874 2.9559728790503605
Ni 0.2134186541769083 6.015598055304185 7.236516279191109 0.4154879568709554 -0.07358805779979584 0.05919707918544644
Ni 2.1627559652724955 9.062515570564896 12.623389193714804 0.49250226674348074 -1.2940629605480682 -0.2498700896264084
Ni 3.728268362233719 2.1656543125844356 4.840203206530138 -0.5195700694945503 -0.6988826606173706 -0.222936498460358
Ni 2.6429431065916855 6.2971793974861265 11.754662493300494 -0.43095674193051586 0.4148410673155759 -0.058397208991970394
Ni 5.830195838365777 5.245336954123938 9.789070514391339 -0.8885501126119536 0.2907336606099896 0.42750143639206367
Ni 4.360356506006318 2.992695417770981 10.987138720137079 0.3229614102954438 2.4871162767502777 -0.4554017623467576
Ni 8.962481183341353 0.14665729409444142 12.958966286263065 -0.3312449904604747 1.1602450114229375 0.06177075344989363
Ni 6.073371778388864 1.1603326438545347 4.335079237005167 -0.8745219166536616 -0.3508666213461441 -0.8659776266280764
Ni 5.024924541877805 5.995153205376783 3.3705377750093963 1.326672261942657 -0.5337332483688098 -0.11656790379543151
P 5.71857726299705 5.031567737938825 5.300591415322874 -0.7694751261239522 -0.35857273174115023 -0.6132327865570342
Ni 5.63654023241527 2.4982833718668385 8.903564683316539 -1.3693569452953773 -0.019954588745055957 -1.3386286629735848
P 3.827014595096399 0.8401388747057427 2.9254215562749426 0.49910640232355974 -0.023175923895831053 0.3875711758560293
Ni 5.551733669957637 7.158319788825216 7.22583747953956 -0.5720028333729696 -0.13926611672389563 0.026697563895844347
P 5.547887609080205 3.153769919494246 13.475362526555841 -0.039603987544867277 0.13233725081454628 -0.5198410637677499
P 1.0473523053043252 0.5215819817055034 10.912896863659034 -1.037840960561703 0.8030442203286492 0.02624993483546447
P 0.019455731400310955 2.7056946261708394 7.288053494948699 0.4929036159469576 0.2811313616335352 -0.017109148876460856
Ni 5.3055397682891 8.231821627655048 2.6448688973611754 -0.9909730923655709 1.146718180581096 -0.3591442879739041
Ni 7.550038328860892 3.917893885255241 1.3458756376623808 -0.9633571304205152 -0.24136925124424882 -0.5618629167254904
Ni 2.4335904196438136 5.892551710534094 2.270829355818077 -0.290752429663067 -1.0059055453056869 1.1950523489101097
Ni 3.7107034574131026 6.108630403466183 5.997630142190671 0.18500115686716526 -0.2803248065718398 0.2847496751124128
Ni 0.7805479338619905 6.730597334403435 9.535760479989296 -0.9270876065655196 -2.0392977260674168 -0.5873829153734659
Ni 6.080291007527211 0.271923864916505 6.5117895944468325 0.3905809092166305 1.4028864445113904 1.495035296032509
Ni 7.503416342100251 3.882837684434629 9.070255538053162 1.4783570640458796 0.12796508988877964 -0.7262813643452976
Ni 3.1027038001886296 1.3084795964562879 10.301601371491268 -0.5157373260120215 -1.3031122152345298 0.7510549717455517
Ni 2.0041657612451793 0.9613035939987172 8.031673723725795 0.6926243384124846 -0.7630234569613376 0.26248983527294795
Ni 2.44852380912724 5.909214907302107 8.197516236804766 1.2339947916115779 -0.2787947430805585 -0.41275975930651493
Ni 4.818764637524357 5.209323838635257 12.26643978009932 0.5550618346432569 -0.4202349846376376 -0.7160344898063087
Ni 0.6457987067234642 4.314341792015798 8.817741399024081 0.6070004324940772 -0.10147347135615427 -0.21707129792883262
Ni 7.519003009866687 2.2857195001193884 12.98361051940688 1.4163132594402577 0.4754743647269166 1.1050357132406452
Ni 0.9134514198234526 8.294177499823366 6.1522822743147785 0.6093730464913119 0.31782100374508493 -0.00017612056654808377
Ni 7.789009365006022 7.64322709576671 6.6526115492865685 -0.5729207172015487 1.2032919632110826 -0.9529161375928492
Ni 0.7202604695531148 8.57952209295954 1.672178938922692 -2.3612929157948495 -0.39328236730819366 -0.26596673807795485
Ni 3.293240232365333 2.8209752403654464 2.17275112300253 -0.41664701017606304 0.3271638784125656 0.7104508250709441
Ni 4.272697601749632 8.28347661752563 11.609787452775333 -0.9162460358653253 0.7521505188025757 -0.5703046197349404
Ni 6.993261209685855 5.254326431342243 6.98476859200674 0.7658048763612166 -0.1512425723594815 -0.19683414494635135
Ni 7.607103567047097 1.4911122815188427 8.201152512543429 -0.028913083489924402 1.8764281109919683 -2.2366301508064255
Ni 3.502546913800317 9.22493343326449 6.070296769907434 -0.08204647297979419 -1.132678157548262 -0.6191026150742499
Ni 8.414859161231016 0.9973903183080195 5.582611650097767 0.17777841386648094 -0.09327319493354903 1.045696966271012
Ni 1.553357740456229 1.6194860646813578 5.919347161460546 -0.5136462478109476 0.018333251091549072 -0.022586884161580455
Ni 3.008852553897227 4.051723922246266 13.438651967491777 -0.5848799464459541 0.5523724607365519 0.5034703357192103
Ni 3.1060806048346046 3.0948828629976792 8.76276941167428 -0.09023055145248332 0.700915117666367 -0.060368473785728294
P 8.026434615918117 0.26463199112376606 3.6672236471827078 0.5592758727246046 0.08110570633307967 -1.417091789477495
Ni 0.3446088948384234 4.250366525793825 2.5449044385172224 -0.5511177623938444 -0.030800787430940505 1.288890415208193
P 5.550703146468948 0.9171787864776337 10.38630672182055 -0.31802103557103295 -0.7631237299846276 0.2400672446033737
Ni 7.890111080128564 2.5017337853334345 3.612764161246477 -0.1455033558828591 0.12327334084006511 -0.5504436191449553
P 5.688379244337404 7.6635983368734895 13.133913290342562 0.90488253122339 -1.335959600781854 0.22880709830852206
P 1.6734137268886042 7.129547941065097 0.313418077210656 -0.2833250268507443 -0.9850263878638327 0.011019491038955215
P 1.3229253275031017 5.228535740817262 4.410655253356964 0.5749763141789969 0.06758658880072231 -0.016892147769648327
Ni 2.964926490191819 8.212333692395715 2.0842613591830874 0.055802451681600675 -0.3456971613300627 -0.1892830720719708
Ni 4.285211101255152 7.368224541927743 9.325019346662465 1.0190325696059481 -2.6166600239800872 0.6187395753078763
Ni 1.1082820065731165 2.602752690532779 3.8688612096192716 1.2370086387372374 0.42293258607445866 -0.49310544754511854
Ni 6.533334896242515 8.73790987273015 8.83019785169362 0.34196186265734657 0.3964353111148785 0.8455931494344534
Ni 6.412901664604458 6.228419557923808 1.129753699548177 0.3059090827988474 0.028726164290098916 0.4305569353889359
Ni 1.4537926094641436 0.422176949898268 3.765450017749754 0.8416125675201507 0.22443956536844573 0.32722995576381064
Ni 3.482396499155398 4.397814194599682 4.214834627969951 -1.9579999583281893 1.0546914564601384 0.4703956646524286
Ni 3.8737377939853936 6.421532298822236 0.5739914619874478 0.09452737905562429 2.130717412731995 -1.1417703496575173
Ni 3.438636055296387 7.389000631547938 4.137118435158608 -0.960514004544765 1.1271960513877683 0.831850088816748
Ni 0.9741391320944532 7.506820750053959 3.884805800275975 -0.42328534142818713 -2.2928090119908386 -0.35705166711093345
Ni 4.441878274843752 9.218768694537504 0.3896390908531417 -0.3973755635409608 0.012401458988146385 1.545732051056428
Ni 7.225570647564811 4.906303927447534 12.471860835915788 0.5716050837139187 0.2983356413269636 -0.11039545643613245
Ni 5.693752688242716 8.093832692298951 4.900224758974521 -0.16371602223614384 -2.332159745874319 -0.19817394680369743
Ni 5.303616737850384 3.3080172031049404 3.481705496351821 2.071845320986135 -0.07564956831451487 0.05103151265551857
Ni 6.66487385869172 2.7237379883254906 6.15843597171867 -0.8049658628313943 0.8546148933170895 0.14624563336552232
Ni 4.439890836686994 0.16445958736155972 8.357905256386001 -1.1723739334759875 1.4456066090877362 -0.07306663807868706
Ni 3.6306170605777717 1.912035121135785 12.783898747739803 0.6411261705331927 -0.2661276891358514 0.8147499388013516
Ni 4.720616476329219 4.556901258166187 1.478244539564085 1.2505028165689303 -0.9298628553178115 0.44801909672944135
Ni 0.5758795282363689 2.0720514960626275 9.411193192963129 1.6540816807071255 0.8626570468952757 -0.35056117429058337
Ni 6.2959280475355754 1.4573350339565152 1.6594666956014954 -1.0577556972077589 1.663342280073445 0.21537822649712585
Ni 8.567634268429297 6.146400929547184 5.1067508672105575 0.14597721019548407 -0.004783794541888535 -0.9536440168978093
Ni 2.2305404879615898 0.9782336227414801 1.1936691586033958 -0.5286010693485671 1.9702150123371425 -0.24895606245257124
Ni 6.592093137302995 2.9329802620424315 11.065084940512865 -0.4278572770695857 1.0218988354101497 -0.05973006887078101
Ni 0.7047501709380739 5.06848256148011 13.036710082382143 -0.07224028552264979 -0.09974748980398306 0.5355425336634068
Ni 8.913908562834262 8.954568235124627 8.195927206389618 1.4227746987948853 -1.2162770626168407 0.9099825714541167
P 2.527174833960467 8.069440569365765 7.676986861234139 0.28814198862341345 -0.9090245784162215 0.18796023949548918
Ni 8.999708844370277 3.7960068794099255 5.3476973800790955 -0.32043864387359006 0.06539935134141639 0.9153502635239332
P 1.2231945766646197 3.191485238959781 1.060466636808162 0.9283153083250335 -0.7475646992041061 -0.5941508302249187
Ni 6.347711852842243 7.508734579390098 10.987166323444812 1.2418621101747966 -0.7401203271109189 0.09793100542053457
P 8.059834618274762 5.901062730418363 10.560121990283001 0.3714418743943345 -1.6582311840991248 2.2919032123471172
P 3.589938986082253 5.119548680785726 9.979382439665148 0.2950803676144596 -0.16055048002396866 0.19346805668759584
P 4.382153918012626 1.868504704841214 6.957983262293123 0.21657327524649153 1.4262035219707758 0.06977588314255724
Ni 2.0979618009211167 3.8998321208954345 11.299163750417488 0.5528797393902737 0.7135469474977646 -2.361209612052424
