# total energy = -381172.4043378301 ev
CRYSTAL
PRIMVEC
9.18902067919112 0.00000000000000 0.00000000000000

0.00000000000000 9.18902067919112 0.00000000000000

0.00000000000000 0.00000000000000 13.44906060443661

PRIMCOORD
 96 1
Ni 3.747824672778599 8.873506198990516 10.214923992013487 -2.0101334457986346 1.0906622181277927 -0.7694509577542361
Ni 3.801819356669961 2.805554953535586 9.405533021218302 -0.17378420510542328 -0.10780404155987242 -0.5737846078637409
Ni 0.10901394355772193 5.0108739052897455 8.566150006727913 0.07525181865546395 0.2988760872114659 0.9754174040191588
Ni 7.70733680859418 1.4692324723263925 8.1158080624756 0.9080475592149327 1.0798766974765146 -0.9547202806811236
Ni 9.014116589205905 2.9078655067089056 0.38316652949407476 0.8217173712581203 -0.9039003698157788 -0.7923777417537385
Ni 7.119855167132905 8.429483544069736 8.200873581057543 -0.29847190979451177 1.1293516642781904 2.2606439972225196
Ni 2.9146010586647204 4.210455094016603 0.2902122368956676 0.15153722078176482 0.18944993666713822 1.1006429834895883
Ni 0.2714004743254844 1.4226992730027272 6.3691921446389586 -0.140518501073758 0.1012454145057482 1.0296273144026589
Ni 7.122667007376397 2.0761029468391947 12.87057569899956 -0.11848928918786043 1.0002964266490255 -1.8553630627915532
Ni 4.408202813101374 7.35699621668777 11.718609777441015 0.9462446391099445 -0.7452177962384844 1.5716374580682806
Ni 1.22063271432828 7.149498946954813 8.838870024383349 0.01182810298317963 -0.011438837964560945 -0.44377034875541643
Ni 4.94795668258652 3.8642311832509906 7.230080223579818 -0.2577294377698271 0.19874755991898027 0.5467656560727358
Ni 0.9880034737915676 4.23728703359502 12.352235922662885 0.30683467993691027 -0.936640283250961 -1.24665953156344
Ni 0.3628211194185362 6.14793247904758 11.049720766420457 0.02212691380602641 0.5825500127611967 -0.6646003423957328
Ni 6.282661896204686 0.1069813322444528 13.210715559355968 -0.7761995893319793 -2.173702658044269 0.9665550685325226
Ni 7.731182316541438 6.977425350877611 2.0637179851392666 0.003823487511148254 0.4762966035178959 0.601027502740094
Ni 3.3132483308326854 5.46433368416499 8.498823892035055 -0.5483363429939653 1.310949966111394 0.21891760710895197
Ni 0.37066670503910204 7.4634785851243075 13.376327436285383 -0.5551993886623858 -0.8867302857943955 1.651761774324697
Ni 7.916396211795742 6.684148575677352 7.349777322258726 0.9409975317783923 -2.105422385610632 -1.3392904649273
Ni 1.994109317778163 0.31041154154678946 8.45865225153678 -0.6827160781598371 0.2758857969638797 -1.6853627502085942
Ni 8.390200481844484 3.5886248942867933 4.578598494052886 -0.6185901942142057 -0.004658067597301655 0.47456316576655694
Ni 1.8129845366034458 1.3133866862818895 10.413284618759176 2.1899785123861575 0.601909391124415 1.3788612852413866
Ni 2.8039101188833477 1.632594877061014 1.2815568385059724 0.06431383158672149 1.06243639051288 -0.7876870211462886
Ni 0.26688131409100996 1.6109547340106127 3.946855179111707 0.7031432356659375 0.9927001023590065 -1.2536272211305248
P 1.4217344258603526 1.8371149041832135 12.747704712673256 0.3099750253381049 -0.3871322885463978 0.290454438806674
Ni 4.814945612244882 5.756709935365698 4.2343290879271125 -0.10780095623607885 -0.4948594541217477 0.3312046241408425
P 4.883651917802355 7.794467100060806 0.5401949424645172 -0.9208071728734464 -1.1232072419433494 -0.1602074948622531
Ni 3.8174223133152183 4.976029139919418 11.17846905019688 -0.49972398130290063 -0.5851190590399536 -0.17617198861130948
P 7.162271685315772 1.589599450592722 4.077243703030168 -0.7840514812762304 -0.07804506512988495 1.0473283312268478
P 8.069117730903033 5.14794652264976 12.293785482777833 -0.5296508507693201 0.18735551603195474 -3.034198435622168
P 0.06427260321275222 8.46694718025508 7.329711258403456 0.8385956350706977 0.5941148347806606 0.34064237251497465
Ni 2.2520451205063 5.4428038093594315 4.012823156588918 -0.5541156686799037 0.22152676259702495 -0.15521312697145528
Ni 5.19984610988911 7.728710470052877 9.05745752284137 1.5264436351404613 -1.8664630293594564 0.8123521279931365
Ni 6.022548295640902 5.124055069600486 11.659797290152062 1.4773594760193007 2.5634741839857274 0.04414404150706591
Ni 5.422229592675844 5.389691271426812 9.237756211081807 0.2375797022948295 -0.6865992152643271 0.5360007042467478
Ni 8.002993540078961 2.687779279023063 2.333505786383925 0.910171290426155 0.525905524794275 1.3609664072388368
Ni 4.793654651969816 2.424127905603907 0.42563726289732295 -0.40528633374760525 0.4004693719749361 -3.138132709813989
Ni 7.530953561947703 8.911925493297831 6.016262086782823 0.48147866193946753 0.02209734611967162 -1.979948180464506
Ni 2.2696788506607457 6.190992228658697 12.617088301048788 0.6198456638878616 0.2733825709260518 0.7908029410674511
Ni 2.5889973096847134 8.138623481235616 0.7371661893251863 -0.5448784663523519 -0.4856099104990217 -0.10774876284190475
Ni 9.175154171778424 -0.05504682672757055 9.806449062523907 -1.2123856979822347 -0.23399044228167443 -0.26635523176562514
Ni 2.0378306768583365 7.248731178292937 6.218925931783502 -0.8728923514700385 -0.17522967930269823 -0.31526095632739254
Ni 4.319528766206949 0.019238133116908723 2.078336797699302 0.5955669938461549 -0.8587571976202372 -0.7957412589093328
Ni 2.4590369941170596 0.44212052769724214 5.948505925935078 2.9583670903141503 1.2324135631673871 1.0211051358642609
Ni 0.532670972558076 2.695562379304884 8.883803415254754 -0.04624591834141713 -1.003722421611439 -0.6062764098438591
Ni 1.9102962626772244 4.1720449887296915 9.928405741320056 -0.29309496175331456 0.11415852302299048 1.0086998202213724
Ni 5.267936751079544 0.9786766180819466 11.316079225250503 0.43252228664542286 1.2607748879188996 -0.7557336081681436
Ni 6.155467475778506 1.8405148417325337 6.222234898030827 0.17135194151484684 0.22767247048344658 -0.3699434354719371
Ni 0.6314814278596768 5.356959980749305 6.336928575099994 -0.6406008941573419 -0.20922994750754287 -1.4941428661252267
Ni 2.217347379462429 3.9019796790688455 7.246259331804378 0.40099799078489645 -1.5847498270805223 1.6874635986016808
Ni 1.4158350747612622 3.4426573051761253 2.119423664629773 0.015907672369191956 0.3616701397195513 1.2424863740223568
Ni 5.715120429019152 3.380870331982538 4.336716828871822 0.3998404801416856 -0.9243339550797824 0.5811166227487798
Ni 0.7638731582261146 0.6199253158001504 1.2558046088249746 -0.3180796567231102 0.31639661259373253 -0.18170680238660963
Ni 6.645279019370263 4.708830804624486 2.7323377578620014 0.11155630951345304 1.0935259128288328 -0.8031743181486103
Ni 8.966563408617443 5.140641251428924 2.9174239257326966 1.44473037713037 0.4449736250348982 1.6487504983021992
Ni 8.467755814050593 9.025272059975835 12.206218712842038 0.11311722624266972 0.9113910217658692 -0.04280963896635853
P 7.199863967786767 1.4015553370541185 10.148795206679216 -0.6829364217007593 -0.37874972090965736 1.1358334153477923
Ni 5.50644696467454 0.8824519531219098 8.538915588055819 -1.6700222631967818 0.9337639901444306 0.4102974138089515
P 8.770625926552174 3.4231122587777376 7.0180693070246285 0.4342107300914393 -0.12391020309311564 -0.6873031833098873
Ni 5.171746085495001 8.7882045225842 6.316593272946898 0.02145919831504046 -0.0026775468321631308 -0.17091125443300245
P 3.1886911592623295 5.354276786791464 6.0028801163691075 0.21963931576632498 -0.11467814297188636 -0.23342222848303026
P 6.476798330270855 6.600932806902647 5.376208221788658 1.8577932694996004 1.7713047015880525 -1.392880482338614
P 8.050712123034687 9.012168516880347 1.1497320706984344 -1.3718694273045857 -0.9669885565255152 -0.5478524613790113
Ni 3.226595868427045 2.703961143953745 11.927702261116032 0.4279670631745726 -0.11482083919733774 -0.6095144571651825
Ni 7.831627498572832 3.887212923280313 10.41432022135866 1.5282076690194197 0.5768537337073679 1.6606202531565917
Ni 3.4822436050746934 7.885392456954105 4.33666261365144 0.24340556494798726 -0.5553577686171209 1.5009148947417374
Ni 2.4111438197736663 0.2931012649105492 3.259111217125068 -0.634396565118843 1.8511328267602896 0.34209324602888824
Ni 1.2002239000119568 7.7197511751593995 2.677775192509699 -1.3406035273117687 -1.5028702186958955 0.284733991383129
Ni 7.149103819077459 4.024983906190998 8.362289751270689 -1.061882317781623 -0.48224613623311147 -0.9267389649768492
Ni 7.471105472059269 6.270817248904486 9.854973522569026 0.4128536045719019 0.5415031221222157 -0.37052527611733604
Ni 0.806252001425327 8.895348500489796 4.88247939879886 -0.7265659854652519 -1.75175300470837 0.18212614931221538
Ni 3.5736651690697854 0.373530922698894 12.751175405679684 0.024117976094126206 0.4905942510874906 -0.40974051286421687
Ni 4.753857004601966 0.8015141425052478 4.292738177220348 0.07785068973089174 1.5142964582549663 0.007831837339592964
Ni 7.092003246289692 4.691068428184389 6.160772297257485 -0.6343289451057011 0.12745909678663855 -0.7123112753184507
Ni 3.578379136536816 7.947151863086482 7.696184094530371 -1.7570618185157933 0.7014403940422178 0.24164924437851285
Ni 6.562311354146452 8.234400640901999 10.992724029563249 0.7112003016424591 -0.11831779660700269 -0.6540192244457769
Ni 8.735928185508305 5.240066452195524 0.6911521696543225 0.34080538045540015 0.010005447952144059 1.7586494747178876
Ni 3.7530991704902466 2.741783151934828 5.554959478993133 -0.2812100373902705 -0.4717807179254133 -0.30588979952513773
Ni 1.4426394472784685 3.262938444123154 5.232356864076931 0.20448857616781554 -0.1708768016506412 -1.7471481589465074
Ni 5.059741115795918 5.486911107296555 0.26161784320384657 -1.6676280519329922 -0.9274609307445382 1.2441776456818507
Ni 4.514777071741949 3.6269706764308802 2.3147041317361854 -0.8403231592847659 1.19272987142452 0.2730748098776459
Ni 6.1187481502458505 1.376248774862694 1.8058318031213088 1.8899945368224935 -1.1615128223917672 2.1466428257129997
Ni 1.6523972160307019 8.307774968824484 11.608502340455269 0.02237631081267114 0.9183072892697282 -0.39431646499966283
Ni -0.13494352133250842 2.069514419209837 11.103006057936662 -0.9719980939249647 0.04054501130189791 1.55324584293497
Ni 8.182308084234176 8.887905393962905 3.429093392158419 -1.1993874859503537 0.7325787673182351 -1.125715867297816
Ni 5.0076853152097085 6.4059601719797525 6.800799514092479 -0.21315885024830386 -1.0916430939838233 0.9720394886858614
Ni 6.833451779194516 6.788866652196407 13.376556242893432 1.3447689715433677 1.4793297123717941 -1.003757902835065
Ni 8.873441875847691 7.017967308898149 4.631681627120214 -1.3080142805218375 -2.1980664316006147 0.2876174835785111
P 6.633314914804818 3.4832452082986824 0.9186309642548355 -0.8434146537258957 1.1730771301905991 0.08876270865770519
Ni 5.821538474312866 8.063925934375018 3.5827889474284875 0.8344219633089823 -1.1875305866117678 0.5480522360946433
P 1.5908583463880108 5.850520644665718 1.6233286688860566 0.6449812826132246 -0.7555441178651569 -0.4462761458964056
Ni 5.697955338905288 3.2217256876131537 10.822714287468687 -1.2130773247326205 -1.9554746208031744 -0.9468799587010984
P 3.112992009177741 2.353243802210788 3.3469058747668723 -0.35058379999840267 0.5624311305241346 1.152500848701144
P 3.575061900171128 1.5948923263451769 7.546765109356122 0.5837718009834398 0.2981901168880348 -0.10445569391292979
P 2.631248425500316 6.718193896272569 10.486151712755387 0.22617094623725564 -0.3903495099321148 -0.702674523559635
Ni 3.660887350740447 6.775450682407199 2.342153573485722 0.4365092963176289 -1.0629061310604468 -1.0690101870756556
