# total energy = -381164.66914059914 ev
CRYSTAL
PRIMVEC
9.28567756731033 0.00000000000000 0.00000000000000
0.00000000000000 9.28567756731033 0.00000000000000
0.00000000000000 0.00000000000000 13.59052773043021
PRIMCOORD
 96 1
Ni 5.2214941834997814 3.0212158124795083 13.224480492326947 1.761418295712276 -0.7251799037510026 1.3055825311518934
Ni 0.4845201397949736 0.6646307074635163 5.330924961518456 3.625028943224602 1.573885887782825 -0.5975868524896611
Ni 7.065973258697307 6.863034782036654 5.031050514169012 -0.8356326957876318 0.6521055523628317 -1.4568952946276779
Ni 1.825777721182674 4.052863842471504 3.7446657140203174 -0.29826262199718306 0.19374445027743406 0.26841982760413774
Ni 2.3642262888386436 8.537845962219608 4.639982358952418 0.34535571883024396 -0.9139592967136776 1.3761346303388429
Ni 0.6269252863549258 9.168659161646042 2.8476228616843637 0.3149565377130963 -1.097497238771755 0.9330767342694188
Ni 8.67029686274981 5.199431414314438 12.447020448965196 2.990836266586449 0.5298418837342036 -1.0943946885870315
Ni 8.05347717896408 8.615437081458978 11.14881219595299 -3.3110355407557237 0.30779652962954734 1.07058987285795
Ni 7.137092260881883 4.305629263344513 0.04209290361703961 -1.5232017311643962 -0.5056346903603808 1.1875560405330645
Ni 4.17456192872703 1.0884113751224727 4.1341571612370505 1.2454081756548423 -1.1340547261808147 0.873814863284308
Ni 8.754722240457365 2.6650636609206293 13.107954528308895 0.12135838320553938 -0.0517863885436721 -0.47024628355875786
Ni 8.858508255265699 3.024967226095198 4.520018837210285 -1.4019806448676695 0.2728266984225817 0.9023371390937169
Ni 4.6509078868242515 7.546237772601017 10.458780518326801 -0.17390247585084243 -0.6653140806333058 0.1214404013963844
Ni 3.1000604981498623 4.125904979850259 6.471360272094554 0.43365460047765314 0.45755171881022494 0.6344438734170106
Ni 8.469800519210262 6.5134847470143 10.373853714046852 -0.4440629402951707 -1.8754567482176345 1.3061749133202536
Ni 5.072143350344444 0.687908043235327 1.6558563271787268 -0.44965226145749015 0.16911508176452808 0.5723589311608078
Ni 2.804850246491412 1.676649744281733 0.5012380731456868 -0.25830433643669065 -0.1299443251023375 -0.0018614786887709877
Ni 1.757500136241664 3.658547557347067 11.966105937652827 -2.12422589147038 0.6041331382486111 -0.3345375451688174
Ni 1.6123278578562772 5.764139877280236 13.389224192687061 0.13367808111315688 1.1804412838651541 -0.09595665530298313
Ni 0.34863168154069263 9.289484394238512 9.930149697244765 2.4421952478678715 0.7586852345972998 -2.109759322423089
Ni 1.4691148573741342 6.8337663272924605 2.3615445852440615 0.3881442747506799 0.3454688473693405 0.4995499176188815
Ni 6.118147037390541 0.9905867651192712 6.416020421289041 -0.6835257185453261 -0.30324002060711647 0.42354219463399956
Ni 0.34509476706986025 4.5670953638162874 8.073888026163704 -1.322795295485754 -0.4186586412894531 -0.10121224727496762
Ni 7.258595347914811 2.9706274427312938 8.331890569015052 0.5592568465612111 1.3575607239913976 0.7906494462087221
P 0.25686597595392113 1.6909589729495005 8.094749228710755 0.6623017761695432 -0.19995417863257178 1.5706696948383723
Ni 4.25287733079319 9.117587936679968 13.083179412793989 0.5732552177228321 0.012047932303469573 -0.7360710967422097
P 2.454659499737664 -0.20545489519988935 10.488177115417276 0.40504413582981214 1.0665175025607891 1.1194110081257107
Ni 1.9457022430802864 8.521558884294064 0.36133263090589235 -0.14436075763798362 0.8147671651925322 0.06331110135382
P 6.19336102324967 -0.11348119044234692 3.7727716019707387 -0.4392243812559467 -0.050764632147377094 -0.7651050220807146
P 3.1643730988980523 5.425407656273423 1.9760079079751558 -1.1372819748688607 -0.17985869343427735 -1.2322341001667296
P 7.534305677313487 8.836046201957892 7.510206559103586 -1.589512024355856 1.219818500111196 0.48514865459188705
Ni 4.870569868241977 5.676510940915716 5.793845687423686 -0.07266014666888777 -0.1160706524440388 -0.4089319009199925
Ni 0.6493130542446002 6.932045935481723 8.856905547369491 -1.4106308643434997 1.1214370374168043 -0.7357206553813266
Ni 0.8127855453869219 5.2238063171391556 5.7526395659856036 0.1956306115565534 -0.5471572350841997 0.03838194221230809
Ni 7.742536990016077 3.85333320936768 10.805338708133872 -0.045046498716677257 0.9817335760451738 -0.26558261526565874
Ni 1.1521204068483355 8.968274246233694 7.4468884543906455 -0.13864673797234187 0.5244317684622258 -0.39817620506538526
Ni 4.519209126152642 5.569994936991017 8.77854278834927 0.8144169809419651 0.5518638965312496 -0.001749121480622794
Ni 4.525514101016635 0.5070444071404664 10.492226599273222 -1.305787190963532 1.2798288192265572 1.1958259938513405
Ni 2.247765324561458 5.904678602709611 7.772585441650664 1.4976467655134271 -1.8224100049043002 -1.9716900542207723
Ni 6.98276430471167 0.3177614474680165 0.1272889925377205 -0.8198024136235946 0.38976921194861264 -1.1467505764809283
Ni 0.9474826512479034 2.8939648912185807 9.9081872133739 -1.7170865636744364 -1.0358295865586291 -0.2887184299521737
Ni 4.181814042672213 3.4412998520186475 4.5388557621132275 0.6937373689710052 0.6374217250984119 1.2776138138531092
Ni 9.14996709330846 5.464723213820035 1.349759547492962 -0.6759124249744424 0.39888788642042916 -0.9883515955823235
Ni 4.953388823782418 4.789719476282045 2.923744058212436 1.2126955159131696 -0.09491304452981719 0.34112291169581893
Ni 1.2026994909192836 2.853442195627316 6.479732238718084 -1.5688416404906982 -0.22606398834574618 0.9652114100204345
Ni 8.755427951929624 5.150375181315205 3.602930064791284 -0.1385552066998001 0.9424640890215897 0.7920416985705585
Ni 8.137076131394913 1.9731507050802353 6.553949871406512 0.7801210358735726 -0.07645689470715865 -1.1718350302533818
Ni 7.813395993237192 1.0382594322057863 2.355265610276414 -0.6306692368659268 -0.5955590234263549 0.6749246071398763
Ni 2.8632200137890034 0.04791130899226562 2.579889857625388 0.2982631362178153 0.3453202376066182 -1.5915902470411236
Ni 7.910124893322939 9.167795593660253 5.127108059788388 -2.8701713099035087 -1.4699891516971586 -0.5551327970905084
Ni 6.30225416055461 0.6959169398777343 9.237521744254845 2.594951942879034 0.45043953324547586 -0.8774141505997921
Ni 3.7024780964951587 2.334233551267657 11.83502560308717 -1.1529713605796597 -1.2678418220680099 -1.627285386449888
Ni 5.057787693290344 7.105400244371117 3.5178946180873147 0.20368484931959757 0.4113379392583238 0.04172540476324427
Ni 5.165473692550631 5.8010875871238765 0.8347972433473005 -0.9563801848820497 -0.5867576230846411 -1.8760288186710206
Ni 8.878036034557272 8.552053048437445 0.8638437704048245 -0.01283803230493273 -0.1606967757938458 0.39269667000805275
Ni 6.343528996004466 5.872002304408589 11.49681152287183 -1.4023184878230623 -0.7843350739549202 -0.7946855639513088
P 6.508414767226758 3.6144591616854442 4.518347415302305 1.493855159681479 0.486062424655408 -1.9256585658830063
Ni 1.4096215231272893 1.0333101662227102 12.122070958725136 -0.16316323505646738 -0.09200409841313832 -0.4538637284356764
P 1.0529400879642163 5.106862497644109 10.07460326420972 0.12255034663111151 -0.3427565906445 1.0104417426131436
Ni 2.9717788667123473 4.025879664334884 9.556777257195051 0.26574459476481976 0.679544622410391 0.601747411625254
P 6.741253124685731 1.897556006453177 12.23007452814794 1.023381076382631 0.7598430023508268 -0.7271290570575736
P 0.5416679119642858 1.3482710534271325 0.824416784731014 0.6712810968500181 -0.5655763610213357 0.5274942094376335
P 6.180537502944552 8.136091849604657 12.180564225530372 -1.8389545395265425 0.02900050099740812 -0.5875371815631429
Ni 0.8940593642302082 2.0923788011828557 2.989196011561232 0.7906227067358448 -0.39901824135070635 -1.0808868839085835
Ni 7.3126658466379855 6.767336592127496 13.327360225034063 0.4174049713880102 1.1890326250785908 2.0543985862645977
Ni 4.898919040936781 8.510778212987589 5.504177127957918 -0.5243006422010001 -0.8236536690488846 0.18633453096660813
Ni 8.146454665434138 3.3526402054775404 2.119592335547961 0.4616438866017275 0.33724208858417404 -0.5495015669466601
Ni 3.3536430586223287 1.4129922239750503 6.541732705826899 0.8559066155453195 -0.8937229150621446 0.8959798294171215
Ni 2.80731095096705 1.7472394628621162 8.937688153885375 0.14615024543823862 -1.2993620041634784 -0.1530459441168074
Ni 2.7013799447101423 7.772195443205468 8.805805536803888 1.64145036509636 1.3412774134503418 1.2973174629296238
Ni 6.640197098993767 7.379922007079674 9.222681374847431 1.0856961323717689 0.9466436743205761 1.9186577090851407
Ni 5.830235328063606 2.8319365670779653 2.180980876524911 1.8438470917321534 0.09872059120136548 -0.05084330790411244
Ni 0.19710799990497926 7.192444183067843 4.7572827484545 1.9530670398029462 0.6876554244429836 -0.6165577371652091
Ni 6.35868322130349 8.033011546268584 1.8431605090256729 -0.2865849285489387 0.07560354556792787 -1.233886805278804
Ni 5.5066573323558154 3.3110403713233545 9.731021133966582 -0.9527862968832043 0.07346104530362832 0.7968486330408986
Ni 8.051824328410632 1.675888318745875 10.468973406262304 -0.012564724038888036 -0.703518359617169 0.6189825445566178
Ni 0.34585526403799144 7.883242857636249 12.476443974519743 0.6713901116240567 -1.3812765795510986 -0.884134242932445
Ni 6.948008014702938 5.73074858182969 2.0276520592285783 1.1875311008323999 -0.24643483869261426 1.5258278559333334
Ni 4.536573342641107 9.182095536650754 8.119415701801643 -0.6887566279269621 -1.2982579724660224 -0.8733016710933154
Ni 1.4933319036853205 3.7565857379273995 1.2351733614558946 -0.17237472635240633 -0.25119163665130934 0.20065429002338991
Ni 8.62360847745355 7.28032383271856 6.780436825615157 0.42401116385061816 -1.3518623880550396 1.4889816336392614
Ni 3.3207160470351096 4.146454183641155 -0.17398573494352015 1.1738628593166882 1.5534924117281375 1.2738366061988642
Ni 3.2476841953336213 5.783361229222014 4.167181672435568 -1.558129910500149 1.1912615144091097 0.7117595165800387
Ni 5.634316823416472 3.3736536931317636 6.351056894564466 -0.30426949031289535 -0.011904207636753691 1.8964983993792823
Ni 3.731068696798895 7.516467891284427 1.2875176527752157 0.40062543793682615 -0.13363437235941503 0.7900974303599941
Ni 2.0596096461091684 6.964991518423475 10.994437811396445 -0.4383563768286967 -0.6306916054634298 0.22597631372794627
Ni 3.8403611182262964 6.561305984937079 12.460855179524643 0.579455432996273 -0.7355730740598686 0.6765482587862284
Ni 3.6349990797990728 2.5943068001494485 2.56678869557 -2.0884834437634483 0.14732575380357854 -2.3547985663197575
P 2.4502859457451147 2.2467717570939363 4.945633426129388 -1.3882576388546222 0.07307255161595802 -3.044390031443189
Ni 7.388956971060036 5.1053767892814585 6.368534396315583 0.9463598245315702 -1.387691224828191 -0.741334144913362
P 4.922959659379904 2.1041808969886526 8.020612381414546 -0.26442330485023496 -0.3190355928784763 0.5199642196091755
Ni 8.261142065353411 7.596101859522439 2.960886767278673 -0.5598952514761584 -0.6829950428528366 -0.1788366799276662
P 4.449195119562785 4.375578270193504 11.340710930911431 -0.24048916263214068 1.1685437610966198 0.47971205695734803
P 7.240757561885752 5.396315629397293 8.40068536617981 -0.2084488463671442 -0.4895524400865376 1.5798799005827306
P 3.3303360086832647 7.58735475153734 6.791281568094771 0.49890019985002465 0.14600832054373564 -1.4771645863996754
Ni 5.8216739336238374 7.03651909040778 7.294498419065962 -0.20225942972698066 0.5400627901312633 -1.8733196472699738
