# total energy = -340897.1381766247 ev
CRYSTAL
PRIMVEC
9.00003322335216 0.00000000000000 0.00000000000000

0.00000000000000 9.00003322335216 0.00000000000000

0.00000000000000 0.00000000000000 13.17245835968142

PRIMCOORD
 96 1
Ni 6.343232420846831 1.8309127602011832 11.279299746077927 0.4909832589957931 0.5726378958538074 0.5179759855345532
Ni 4.726304450732571 0.2930302819432262 5.882898721176322 -0.2559299226672431 -0.9389725309285635 0.2945679467544152
Ni 2.8494195207903044 1.5376016772211671 4.839455568515623 -1.0645806905493924 0.48192731944111195 0.37014063908440764
Ni 3.1349455750259905 4.372360143879086 4.895175674248596 0.18736245801049023 0.30623458445906615 -0.7617972978637203
Ni 5.0569386715192195 4.331661993611039 2.5733192013568575 -0.0008641477725081892 0.9719392156625712 0.10422892261410438
Ni 7.213670634728764 6.284732204848974 2.790940904872202 0.25307316994473833 -0.9680684198532552 -0.5747009490304231
Ni 5.149396012895521 4.7292744616986155 11.429860401986621 -0.4391598465665985 -0.7762877781704114 0.16076876668236184
Ni 5.390866904468208 7.762321660489573 12.361759842799227 0.9469200679104143 0.8563601581429703 0.441120312727079
Ni 1.867506895316149 6.488519957285812 0.47714846175493764 0.11687515062320517 0.17723256866533993 -0.44540865568978777
Ni 2.6387197428324907 1.5282416426615104 0.5239189344435614 -0.015447444903321785 0.4807034743363398 -0.9646115716529065
Ni 0.5201272204435774 0.23635347267785795 4.828667228682296 -0.7770256847777005 -0.689268277456058 -0.08198142406981365
Ni 8.600782756303756 2.3784837819743387 1.2031199422285068 -0.020928265512234923 0.5990014734490007 0.8647589237296268
Ni 6.872245374098821 0.8399218012074838 4.762291983607805 -0.8626778728308819 -0.5551811338299406 -0.062340252800118436
Ni 0.7416783384673319 7.342281109591742 2.514305983464867 0.6143136783260388 -0.14475670752482164 0.13355852481615707
Ni 7.563528926495631 3.7226657450401355 3.6123100375784585 0.6600232645480117 1.2671825912174564 0.7551790212162541
Ni 7.5706209526812165 3.9346975279160543 12.399564482383685 0.5672563198269198 -0.9002542884227593 0.6579051897637443
Ni 7.826653898020753 8.749112303974625 6.788255263985715 -0.3116729818658181 0.47758832574612586 0.4860292574246275
Ni 6.929260584613653 0.6835156237156179 0.31561856534498267 -1.0481927361096723 -0.0071116713441167845 0.3529970374255856
Ni 1.9626192464954315 6.43831777192642 9.10680512466859 -0.2768854418729877 0.1094544326791018 -0.0012837518084300472
Ni 9.026313327472156 4.992948435250796 1.3881399253699083 -0.2534449514618603 -0.8891561216270688 0.5399848857054764
Ni 6.251963083856946 2.038885528090174 6.967123724414111 1.0331067883108271 -0.6146576919290189 -0.14813050909306102
Ni 3.3574173964492187 4.234911636383818 0.480270573282577 -0.28678367482330613 -0.27931641991198347 -0.16027151533096914
Ni 5.737917185867176 5.36572981165559 4.703489366493407 0.7646710198670895 1.2373333690665078 0.10834782987848438
Ni 5.128317935069832 2.808784370754871 9.323808525901002 1.127541093432013 -0.184804724585643 -0.800200580232267
P 0.20202824594028557 5.584673620052486 12.420034157962998 0.5923826825809024 -0.4753015865944782 -0.12943293268355774
P 3.9528325948753893 6.1150635783887335 12.777337277218082 -0.20730110591594622 -0.09296903342956891 -0.7693671397911782
P 2.3362466260238874 8.567041631722839 1.5060727608082924 0.006808538281401177 -0.7407129663895953 -0.5771632945279866
P 6.2382200331140645 7.491789661615798 5.527123807563766 0.4958740114291912 0.6213073360350526 1.2872842470633379
P 4.567813865544536 1.1259401572608747 12.497580244283109 0.75159567474037 -0.8188274513048349 0.5084999277233178
P 4.184007448432453 6.100420524322809 8.226871875728541 -1.1913653869768255 0.7509976361450551 -0.4194029756546454
P 4.716143413215405 1.2390975750671878 3.8835440390442066 1.2515947640815284 -1.0293303519875305 -1.2054894850830333
P 0.2718046035725582 5.575340585592521 3.690843427543949 -0.2238127304177242 -1.0225943188152773 -0.16941230128997276
Ni 1.4360003020827383 1.101010065212558 2.6953614519682603 -0.5462717471554528 0.17022914076431328 -0.3320266058215056
Ni 1.9263941127429134 6.556416207976246 4.824386812877898 -0.06614188593439577 -0.18167183538361614 -0.5704426879747014
Ni 6.103642536219306 5.50031630858358 9.198670263858329 -0.8371697012574486 1.1284543492749017 -0.35951195572596795
Ni 8.662243983234426 2.3307836058530107 10.022739406533717 -0.05390831998268135 -0.3331594338743682 0.576797940768768
Ni 2.352437685805447 5.2111722409892565 6.941661730401875 0.9089564441824475 0.35757771481773254 1.4012057143748577
Ni 0.85645756226177 0.058484915941363534 9.129989210270201 -1.6862155851271927 -0.5849089999116764 -0.34488546406204473
Ni 1.5013495433689577 1.0533368891909212 11.374562397812156 -0.022172936552613428 0.39604373210341465 -0.5743890742169592
Ni 4.0967701263298055 7.082189149265277 1.5828682443569844 0.19739670231804068 -0.4621452517181782 -0.11590944427582618
Ni 5.6867069967859765 7.730893544448879 7.793432075357233 -0.2537018046676727 0.6412002183042377 0.6798719238428227
Ni 4.984272403216652 3.0972084356907588 4.9515140822645 1.33018464597129 -1.2802911035749565 -0.5487772871861258
Ni 0.7422075404212817 7.323156038977058 6.918411944557682 0.21518976463540357 -0.08959214653753603 0.5590601571693726
Ni 5.052591655468917 4.5103756534678725 6.964884516146378 0.2060014132679162 0.6238609556948418 0.7233865592960058
Ni 8.020676614402563 7.321176031666361 9.129014506671345 0.5112551218709518 -0.42775340450186977 -0.7898973985340461
Ni 4.582591920108917 0.3795206012877476 10.213120709470491 -0.5577686920514587 -1.1732020858042376 0.9152255650206109
Ni 8.268150528139952 7.07262211394132 4.920993169573434 0.15424459241059887 0.2115413692495389 -0.15473978687946255
Ni 7.155269419096444 5.984599096680286 6.919571148837762 0.643554320358711 -0.6136253940097625 -0.09811921017194068
Ni 2.381129791744088 5.059233679992981 2.601586505727021 -0.7113566247146652 0.8249353639747858 0.0374745999066903
Ni 2.3967448493989 5.02232454371495 11.487937616422647 -0.47018509130351926 0.4279434090254888 -0.1689736710906574
Ni 1.1381262022548895 3.243638976350005 3.787661285020399 -0.687418368731513 0.7490047740847422 0.7586525815871514
Ni 3.5822742266785137 2.5410513822157634 2.5493314127877675 0.01941851373592785 0.21744667899038037 0.30940346910535105
Ni 1.0479818694188099 3.4183836215522145 8.125430701181614 -0.2291400561679086 0.07040631763770455 0.3235594488907589
Ni 3.8379651707552935 2.6124396457996077 7.092710188111661 -1.3458938291764306 -0.2794318624439252 -0.3722517718901395
Ni 4.102944149125886 6.78207404116305 6.099625821388561 -0.15365375290413538 0.11160901712825941 -0.9955154603206144
Ni 0.646062885430468 7.253999783634362 11.104132099313887 0.8608145943698982 -0.19148522192961215 0.33059681535351454
P 0.07612948108963973 5.550095492381138 8.102484216457286 0.4089930931752311 0.4939629104494074 -0.7389234785893403
P 8.395563998583281 1.6493460898103012 7.893266743972526 0.03379432284162567 -1.060812995976844 0.34896889010279897
P 1.84826482426947 3.2142448678193904 10.27757354744696 -0.33662913759052343 -0.8155495518845115 0.3481613065998391
P 3.97188566522423 6.076849437292289 3.6190015622852902 -0.1237831905969481 0.6132528411616922 0.470888288018131
P 6.910486515294957 3.8680342817781908 10.32567962506698 -0.3137329497186403 -0.5166513531858586 0.085633161889788
P 6.184012832967129 7.621741141430111 10.247606136799567 -0.19943018780830168 0.3742628887828974 -0.1908748420391229
P 2.2948644732303274 8.528188488267034 5.69984164528248 1.2761254022330408 -0.42380290449455404 1.026534020189316
P 6.88945343763542 3.9894807301897384 1.4960755238959202 0.9202615847826215 -0.029325231326678528 0.09658014781959495
Ni 5.292658541857654 2.95136289719149 0.4455727451692645 0.06656740350758858 -0.7618137529239525 -0.7962932747580608
Ni 1.5300236492411372 1.1139611130311602 7.094250993800713 -1.0697390948218803 0.20234504746225151 -1.5385890122537438
Ni 6.805555127861266 0.5834451542296867 9.191306436669183 0.20601504011467098 0.3054146596609321 -0.765235891231624
Ni 2.747602144854345 1.5564387467724767 8.973763933446268 0.4851797649401386 0.4630654495396025 1.8067650992781914
Ni 6.3524934550409515 2.000392385963585 2.502938041491499 0.05501080901824074 -0.5591578590895016 0.12263570725606622
Ni 3.959636619997602 6.766746984571611 10.543420129020967 0.7608079373672575 0.14291502633039257 -0.4863573301880075
Ni 8.095889892109344 7.145279382210656 0.47671286014658437 0.11412844111600345 0.3024931151387629 -0.32524789233677537
Ni 7.474086596251525 3.7509258493837154 8.15418670735619 0.9778370692042451 0.12744264172640635 0.05183523950373654
Ni 3.0084141078392443 8.433760139613264 12.45162157459187 0.32496301410650485 -0.45017985182618603 0.18087736450677883
Ni 0.1735494407892066 4.784336665002444 10.140434641094817 -0.29101339663393755 0.09379641442687071 0.6071076474959028
Ni 8.599261750687813 2.372030758148114 5.755165749553313 0.004160044914960577 0.35418874374084164 0.39203821048844745
Ni 3.758260876466523 2.6102976378907634 11.254126653132387 -0.877639893457353 0.8671369370435003 0.3381532875445338
Ni 1.0553978968006918 3.1714047096424998 12.522621036740158 -0.12587709701149935 0.7820509059064338 -0.14983412204772906
Ni 3.080549374181215 8.308821678308307 7.822332982066819 0.5314513943131687 -0.22222147467120434 0.2858655338844109
Ni 5.4900292706011875 7.877936087367796 3.5596328430806974 0.08788801936223573 0.5378349292420092 0.12788589991141203
Ni 3.1408315967586975 8.369724903178689 3.608160122255903 -0.14413038679473245 0.01322035534501594 -0.04919780188088946
Ni 3.383139491421814 4.375672156107887 9.217796234476335 0.1255734497281515 -0.19970683850845605 0.003953328220793192
Ni 7.299944953275755 6.053575351358373 11.30895035555561 0.16445907104975546 0.5560059437240811 0.28604859642949443
Ni 0.4037819908670428 9.128283703973034 0.3383859494080249 1.1075515376839635 -0.7249022246095839 0.5183917329157329
Ni 4.651946176182682 0.48092127568513776 1.5227624224308187 -0.056075245727013105 -0.12585884217905421 0.1507124108876243
Ni 6.13117363787122 5.650895864562059 0.3630082403198607 -0.9461253399232608 0.37861396666274144 0.6207360369126148
Ni 7.894082146983204 8.716226182550601 11.343739084004548 -0.6050546216216159 -0.36235019650571143 -0.27963369404208616
Ni 0.3153152642251169 4.746131523939229 5.892264155755917 -1.1859239042462801 0.2756654534229575 -0.571225588887313
Ni 7.9641834058150955 8.766554368375218 2.701197073514877 -0.5047661717124984 0.4759726445195739 -0.20663827552096667
P 8.432950136622525 1.6997012757346088 3.551571513316193 0.23863256903937613 0.21996070366148568 -0.35497987218356924
P 1.7186733457843748 3.2318489328181297 1.645266374746943 -0.6396817247771822 -0.4717786610428843 -1.1529070830006272
P 4.7790356454297145 0.9028113334118244 8.082251241751935 -0.24071953347539185 -0.3112711184417091 0.1677446837795627
P 8.458852232259728 1.5666267843893338 12.214794700166092 0.06439584977756652 1.3263830128370124 -0.025462663047478726
P 6.322865345646346 7.948226346897526 1.4873418916491021 -0.3044816063237014 -1.0628092004712664 -0.3770620487945893
P 1.8803949429021383 3.100601448218634 6.115774581013938 -0.3620717460333442 0.12148385303981013 -0.4363028367337776
P 6.912637523237032 3.8773673162381566 5.928765590528609 0.16422252955891717 0.719192061598684 -0.7062478427331902
P 2.450070046289253 8.333418769127096 10.292063600947968 0.15853010715983018 0.2562160864490942 -0.38865103918376936
