# total energy = -381162.555533773 ev
CRYSTAL
PRIMVEC
9.31418738482279 0.00000000000000 0.00000000000000

0.00000000000000 9.31418738482279 0.00000000000000

0.00000000000000 0.00000000000000 13.63225473017540

PRIMCOORD
 96 1
Ni 2.271441522626564 8.161379580072074 6.202975781393612 2.232844458511748 0.4100521305673647 -0.3917584744644995
Ni 0.7522500850426236 4.366546852845048 12.481010871900882 1.918588546410102 -1.3948386345062496 -1.8506453456009098
Ni 5.957326201966557 2.28579468512925 5.512202126244874 0.08557556917897519 0.0875270364783912 0.8652026961352647
Ni 9.389445850556598 2.3011910366003336 9.254678875701721 0.14122324045026644 0.8634551173165387 -0.6779343405004776
Ni 3.809688855839476 8.152559044776783 1.2964491702004337 -0.7917012845120043 1.6374286455314766 -0.033089069244484945
Ni 7.179971615490299 5.1431078979449465 9.030877585231545 0.8463379980202779 -0.22915342590434729 1.4806013799953663
Ni 5.530736427389647 5.899988065453557 11.86612735136563 -1.0840704238428878 -1.6626894769807945 -0.16956245371459183
Ni 0.5745428442760778 6.410181984497767 5.409101525093199 -1.4952083312752638 1.1501737432298644 -0.2269121952786544
Ni 1.170914417715877 -0.16920431925538282 1.9578784785193772 0.5861122761911584 0.09633229347484701 1.402589739206578
Ni 2.0024757383371 1.1654935607550962 4.160782485922214 1.4233755656036777 0.25896151040471527 -0.8144149240594362
Ni 1.3983854979498795 7.362930195010261 8.241188193248107 2.3578849185545647 1.2350887960067052 1.2851864839940446
Ni 4.792316978946789 0.25203445476488084 2.9167842982015824 0.5661273484287992 0.995172475158899 -0.1129346779182184
Ni 3.079093324659601 8.227640707939765 3.7774980933959115 -0.2061348535219869 -0.9060652386775815 -0.18351454501930978
Ni 4.084280409208513 2.5864845910826655 7.9442370020439315 -0.067090108780278 -1.409259952137902 0.40330555587215056
Ni 0.7718899802101535 1.9842851307006655 11.539130455034158 -0.8228360582435957 1.3812161586268084 1.4015145038645282
Ni 0.224773691615717 4.121257732463325 5.049386683321632 -0.12136609651502323 -2.2476933505991226 0.18785945225156678
Ni 5.572836553614268 3.9691849977577083 1.8449895980204774 -0.2632179716882241 0.3414550982242571 0.6635657304836314
Ni 7.366963238075583 2.604516857536397 11.044307739155544 -0.2511759529220255 -0.9870511316033453 2.370725521962659
Ni 5.5582319080567 6.102087299706173 7.926555880448312 1.3573403804504753 0.4002698543696203 -1.1354320661443156
Ni 3.120215461226349 6.673140118031727 10.175660119289061 0.3988637180507131 0.16077185200615537 -0.19806004693365242
Ni 0.4063463200776649 5.558809387664207 9.158121491070576 -0.12406395506216052 -0.7142372886965699 0.7681319818324964
Ni 4.649800600326674 6.168404312697168 0.6533110627398773 2.4036960633514086 -1.4222854178632924 -2.358097291675687
Ni 3.380276882535561 3.7343184528727438 0.606563157093556 -0.0056170890764612935 0.2786852140858878 -0.41493336991906604
Ni 6.111084804558603 8.121282004099289 4.306920220532624 -0.24825286573795954 -0.8663542932412047 -0.6151284609178502
P 4.6819345462282085 0.7435189659446235 0.3185684883180521 0.916165560336377 -0.5143250190455272 0.42968584563789225
Ni 7.527223143345679 7.008404286937751 6.07945382476683 -1.203492766367979 -0.06966866814073162 -0.10403866098016921
P 6.752618077561526 4.639061342464507 6.017849790508059 0.7036564278569301 -0.07163813316227662 -0.12261410998951142
Ni 2.475086911957341 1.8898485864990213 10.083369563822407 1.4239090695096446 0.15905409798410025 -1.0241338953882555
P 9.281969444249983 9.570886217560052 12.471127587844036 0.6986682306137193 -1.0560045188446072 0.11103848933677006
P 3.7142650077927417 7.150212787329312 7.498462796054443 -1.2064101971250902 -0.002252543479602572 1.6189642681787022
P 6.0615519569341485 1.0591534852890572 7.531765672451818 -0.1849736460633395 0.6141172460445166 0.5250606602954764
Ni 8.857987642094065 5.3920388655288445 0.1755044354895274 -0.8974849532077381 2.3019806511877774 0.7207234106415459
Ni 6.10511441055197 0.46760945508426255 10.018384479603561 1.421564480536868 -0.3710898903715545 -1.8394780161301805
Ni 2.2827023749729283 5.521357040861286 6.610171555345544 0.9044050773663392 -0.42448398972197865 0.5476326320587214
Ni 4.6369470219660585 4.962524436165533 4.0207110814467795 0.28258840579503586 -1.4751727527806269 0.7206938429551911
Ni 1.460790552309384 3.395617348883338 7.484257729128521 1.0063107511639058 -1.3490051211119025 0.2608312166236024
Ni 6.349397598714167 8.404954890005717 1.0021627679592813 -0.8235865632563751 0.056446770133818915 0.9220883535787151
Ni 1.1694055193865875 6.736010881752123 11.484506472676435 -0.4031029529430413 -0.295970997749529 0.4776999116233257
Ni 1.685737487807353 4.276487976635787 10.333589614917253 1.452795927747324 -1.0063138364876991 -0.04687455306435153
Ni 3.8958450876044637 8.947822977810098 10.942828737998493 1.750412688630392 -0.44934887128445833 0.07347955724638958
Ni 5.038453690365336 3.380565622339314 10.109093486080628 -0.9795257697605775 0.23012967377468752 0.810721791478565
Ni 8.54739675512809 2.3499508066857078 6.634054994209519 -0.8110686332950224 0.011369161068890098 1.4491156506822591
Ni 4.423782533298653 6.744449535371483 5.539848496744857 -0.1921511376483852 0.1410646033852151 -0.5947964342287175
Ni 4.307103710020816 9.146503905353768 8.745855073597253 -1.1485706604088026 -0.005879855819544712 -0.8455751517123244
Ni 7.052302051295414 1.0592931980973248 3.525696493311477 -1.6284441826446794 1.345582982804231 0.14067148171185453
Ni 8.090386845097726 6.099814638025021 11.49404885748111 -0.8941162938458215 -1.4096006233067722 -0.1566488309767173
Ni 8.22813435986231 0.4127386467652661 1.661758112815033 0.7464681237058176 0.8478132970142238 -0.9093287399202016
Ni 7.387501020890913 0.8322859643867706 13.022769640007619 -0.3890313053413235 -0.7831266554691159 -1.0530176683021413
Ni 8.46013213508418 0.42956565739300945 10.272067545506 0.26573456746249075 -0.3833573948849978 0.7437391548104288
Ni 6.385294476251708 1.9118859534564225 1.1007282913545922 0.059931900468941944 -1.262997092381199 2.5836691708763633
Ni 4.428020488482769 0.3552943285179814 5.440128014134533 -0.7478999710563377 0.39929643471275744 -0.15165034932086138
Ni 5.614592054911829 3.1644951072599437 13.141165999408424 -0.648594968106412 1.4916352692120247 -1.8406157292790493
Ni 7.398007424072633 8.516259427258863 8.175794216210399 1.5087382474408986 0.8851434009232498 0.3452531318141086
Ni 3.1419361458183435 3.098047695647898 11.778772383705709 0.9693611705227497 0.7343793108620836 1.7982925430308063
Ni 2.0919291923772017 5.197707663415905 4.235691836621664 1.1309051248082393 0.7907319786201995 -0.8239624585385551
Ni 3.383369192691883 5.967925747020456 2.3917109650768777 -1.217225285462723 0.28033766208764627 1.6636785803669412
P 4.747748593109441 2.3263113995268387 3.667335475495672 -0.40453120074913557 0.498150980388826 -0.38437632306781544
Ni 0.7760217536599858 8.612912748018353 4.5078048847720344 -1.2777053451256513 -1.0475152504266732 -1.1199740797180324
P 0.32101253104401245 2.7385293832266275 2.849372868212491 0.11054483752980318 -0.027561197447720277 0.1701772044804553
Ni 2.5408357595280484 3.351486729845228 2.83505882529612 -0.2380011061029643 0.758595760207287 0.5055066494229488
P 5.722189545652276 6.091040673665819 2.480784400278491 -0.30240235519716957 0.73834703726058 0.40208248209832687
P 6.876561966869275 4.976188348814099 13.310683275354325 -0.9202582423485118 -0.5020084064617031 0.04679896263140972
P 3.348329220378382 5.195416373360316 12.535880748801155 -0.4968836836406281 -0.8020116652990767 -0.3424722266348618
Ni 9.542291662801293 8.933665413238987 6.795133616536062 -1.3206836484593902 0.9879170791480664 0.31855068282225785
Ni 8.4529881534881 7.583341121333143 13.23709653923981 1.0186229928723554 1.8063406101462633 -0.6777790458695359
Ni 6.412361504306742 7.88333246324522 12.443917121305848 -1.1859092489582608 1.0424185526300564 -1.2593839211086442
Ni 4.739281996928429 4.206119292205033 6.4928658872679454 -0.3056622568953639 0.9288261865231809 -0.8237966223846521
Ni 1.960217270929776 0.451075841353881 8.549536223932027 -0.5487937422463581 -0.42420656769087595 -1.6961960933786724
Ni 3.042684166825078 1.4388183846625078 1.7777551375885245 0.7048206233683603 -0.5817347159487529 0.515240588881261
Ni 5.606404884347351 8.253366493035427 7.070859637908232 -1.6396068841297182 -0.06226466236717664 -2.1661886090554114
Ni 8.86524339393676 4.658052970201676 7.244206907638108 -1.9178822643716968 -1.7461989076593603 -1.1743799081624224
Ni 6.113879060723954 7.3113016552617935 10.129405865565285 0.045794432626295324 0.3360791786243244 -0.9376345288434305
Ni 1.834801740041608 9.126711257515865 11.409556139553228 -2.2438541793586904 -0.803079701552275 -0.7482118458698017
Ni 5.3048208164210235 1.2664127792603546 11.777599727534984 -1.395345913159971 1.021259659164254 2.213574297428227
Ni 7.104470813902517 5.81046941210293 4.074981124690225 -0.8189058699512543 1.6670482681701224 0.15398491099130898
Ni 2.696513084686967 3.105731900102613 5.227069707201411 1.1014963326288192 0.6086629077981646 1.149465661419246
Ni 8.572060722880922 7.4654328253425515 9.734247747173686 0.6368447695490194 0.16271509177545523 0.25638243682362943
Ni 3.3894047860090413 7.312037476052002 12.67832354534225 0.5654578331656004 0.20046505683071927 -1.4876839978737604
Ni 8.12291198686241 3.049409009996356 13.302353597725416 0.32058339698157046 -0.07703050782244153 -0.38886855451121416
Ni 8.52626286433082 7.33004179994408 1.8236004984934377 0.5967365886742239 -0.802703806270095 0.8874579079890392
Ni 2.6873013535285275 0.9011727616311674 13.264102093659204 -0.2422765935498666 0.019119751548586424 -1.193231236540971
Ni 7.269583410713103 0.17304642148274035 5.775031723995228 0.36103533434902985 0.6546236907989952 0.8405545585692814
Ni 3.800011415320144 5.020495937409348 8.545651276443467 -1.8781193826514622 -1.0678161667675548 0.9810252371242394
Ni 8.141838415289055 4.09720850106687 1.7546894843622745 -2.322083849695556 -3.7392203763680567 -0.5429822777709036
Ni 1.1236356033981392 2.5636741465861834 0.6888530697444196 -0.5188275349015711 0.18842740893989482 0.4350915900344958
Ni 1.585759002211096 7.915634064516678 0.18212030267035667 -1.463679664539363 0.9382405378585456 -0.9098699571356523
Ni 9.057795586291094 5.290579424164951 3.0860696508857606 3.3727888107041206 2.3283396007972805 1.9761434620064355
Ni 1.7861257976411944 5.745912780496106 0.7307380382443085 0.08156773357116275 -0.6511113067703626 -0.16776988059054332
P 2.1726459388069728 1.3156568870810559 6.404542244137368 -0.11049367257689358 -0.41900111223053643 0.8807236745889993
Ni 7.234049786477057 3.60668614542673 4.017357042629636 0.5357235393259613 -1.6524654852599412 -0.23596504950954197
P 8.664038321657056 4.105013789955417 10.447282309773053 1.0284950005704285 0.4406148338455702 0.19371333992918252
Ni 6.879309652098538 2.731059405077923 8.989081101510227 0.03095608206188217 -0.8266556891000021 -3.610483184199943
P 8.979165217798117 6.645430411058664 7.444164810249343 -0.13472169188632283 2.6848451655967565 0.9254112473043611
P 1.2806541715164266 6.962494658141035 2.913772090055334 0.8771889219628634 -0.11605111206001303 -0.39484071293424905
P 8.162078144113414 8.565326565522424 3.5159082139642526 -0.4098947790538941 0.028994330349821032 0.7870324182814252
Ni 9.082366412171746 1.4428607419150488 4.6959440152225564 0.004693805931243529 0.49279588672449964 -1.45339987987991
