# total energy = -340889.8061301957 ev
CRYSTAL
PRIMVEC
9.12482253020991 0.00000000000000 0.00000000000000

0.00000000000000 9.12482253020991 0.00000000000000

0.00000000000000 0.00000000000000 13.35510012415589

PRIMCOORD
 96 1
Ni 6.0375575895156794 2.1362305016249885 11.44930107358483 0.4657419679305011 -0.45193077307902163 1.1268936896560011
Ni 4.654572080367117 0.1689369682335166 5.836980298426502 0.2468883812902651 -0.4485641705996339 0.554836091785696
Ni 2.8100895362515934 1.5789775768102075 4.964491209883724 -0.14230490355021944 0.47396846960535144 -0.4505413489306628
Ni 3.436362620282013 4.488062314982803 5.157606220935019 -0.3681459772518821 0.17193789592530387 -0.915267731112456
Ni 5.0891508882470715 4.626312504337129 2.5363475914576528 0.18428227642326972 -0.08799497725374524 0.12575908337639632
Ni 7.228219209744622 6.004005616295703 2.7245205985122274 0.60011990332416 -0.5171845999815093 -0.5699246106877023
Ni 5.191339778127548 4.692558717439394 11.534519618130929 -0.4278472497672567 0.11129765653542767 -0.30560903505992526
Ni 5.659470559227478 8.167811332245078 12.655452992899503 0.26431146186271903 -0.5864400918442223 -0.3318995933253381
Ni 1.8738005995835099 6.719263971699854 0.197836194337674 -0.1516387793566356 -0.025868383126329643 1.3944064320648373
Ni 2.878334085534216 1.6894791802080624 0.5183118312837585 -0.9684432866941709 -0.3354754836020545 1.485719675058538
Ni 0.3065000584354193 9.18924398991278 4.811455157759299 0.749794102755257 0.22118274899404486 -0.18660115436443347
Ni 8.521288715599834 2.3657380432156447 1.3201118305315034 1.072640327629075 1.179797222523252 0.277373951473632
Ni 6.695156190017183 0.806453658845838 4.612972013489263 -0.0017375515163970076 -0.5664795895618954 0.5680410205117442
Ni 0.9870594504010042 7.568848842679546 2.772786348402645 -0.01738939912104102 -0.8608133088183174 0.3575000675022617
Ni 7.713039291638497 3.8634134494003454 3.947741411246887 -0.3114904335413668 -0.19695910055998983 -0.39104962132293297
Ni 7.289173025656899 3.909055812752622 12.53073035325924 2.1905302711245693 -0.4915833544736372 -0.2544217135528328
Ni 8.291397931454041 8.822061122800504 6.875913453629856 -2.4064499719474615 -0.10411348008216263 -1.0288960926635893
Ni 6.77853882022772 0.987561315651779 0.3798444711481871 -0.3396782088294924 -1.0039589631022774 -0.807218920531629
Ni 1.8586168945418888 6.542297159453941 9.101006954003841 1.5736866272878252 0.2254402387188182 1.0545749854869322
Ni -0.06248039875690602 5.174787349674724 1.3791941452995273 0.5661036942797154 -1.0623510298879253 -0.24560925746752535
Ni 6.57707185892126 1.5086616927652967 6.954041098423644 -0.0033426912199877915 0.6989471953067189 -0.02970395482233594
Ni 3.2021557949795567 4.57125332391577 0.7189046345715969 0.5364251933786761 0.1627783409132229 -0.773377546502152
Ni 6.037438966820042 5.635663896695274 4.884494801392505 -0.40920443785508875 0.5729086330166907 -0.1352549386819735
Ni 5.114955886959634 3.0238476337906643 9.355755580261643 -0.600601728056585 -0.6443814442456967 -0.8501488871259358
P 0.05396420169239587 5.294541523332316 12.438940111374816 0.8794820888724143 1.5978642529752933 0.17021885635166814
P 3.995422259999583 6.233230288381377 12.682764499846664 0.14648268907699288 0.07542691078074751 0.698497766474126
P 2.3837960674207936 8.589870883323888 1.5519024027720476 0.7408325226865952 0.20184882455212336 -0.5167004612562391
P 6.439150163185621 7.813713460943909 5.911741796111002 -0.07338931152542845 -0.0327504549581436 -0.3877930620588483
P 4.606283518419847 1.2012372897861776 12.816983342513861 1.6847644545029627 -1.1448955255500606 -0.3698745299072146
P 4.068165346893695 6.257164698431961 8.378977067643328 -0.21312645434847163 -0.26298091597675355 0.016375098923913735
P 4.714649913296224 1.1949776613856053 3.6393050654257513 -0.6602402656548242 -0.35877816288373693 0.6890034538304456
P 0.2568263483960103 5.535281721717585 3.6697281369277155 -0.6393582799994924 -0.026837431907818298 -0.012574494230900925
Ni 1.3976490992939254 1.0147167881300625 2.810380618097043 -0.17378651909826842 0.45792607143050806 -0.8323049169659795
Ni 1.8445281682292307 6.401382521859137 4.9644109114436 0.35326366082341093 1.6432838187606733 0.11623931681141916
Ni 6.054246890309624 5.615945154751197 9.256820602170736 0.2013986243885822 0.31974701712320414 0.3666169422018654
Ni 9.026000911069872 2.2259275091725454 10.310243975887369 -0.5639244272402094 -0.3829362481871792 0.2114161565255843
Ni 2.3826372149326414 5.05851885830433 7.1435764415135035 0.1121234948708327 1.5109144291566108 1.1905758011959948
Ni 1.0556872422387635 8.95373231495831 8.952551562895579 0.15174676568940962 -1.3886422758875503 2.119303000247466
Ni 1.56462423063805 1.0350012690841033 11.786142992599816 0.7331912040912534 0.3512993380081885 -1.3851095801439437
Ni 4.164943216888546 6.844775908507243 1.532577853170398 -0.1865330201306594 0.4730773252496498 -0.3027988193046398
Ni 5.858437319102806 8.015445042109869 8.152060063228944 -0.08528040653605957 0.24835879518820456 -0.09344083085966488
Ni 5.14421006866843 3.07585912341641 4.816544071402155 1.277690946947948 -0.8340362978347894 0.3358341524930539
Ni 0.6946946548742238 7.322031512348532 7.130595468681648 1.7389846492991083 -1.2498176175764475 -1.3516317601014722
Ni 5.21357697114824 4.4961834072226115 7.199667639386911 -0.8576963604558905 0.3058178086366217 0.07398992122390484
Ni 8.259433677391062 7.37298452253628 9.06546850687307 -0.1434773265917658 -0.46002897670612386 -0.5936659201687002
Ni 4.804492918007643 0.21662511684440588 10.296194486312498 -0.5219377983957786 0.02415551420028098 0.032398470935363556
Ni 8.24491608440956 7.156634975338663 4.713322251587356 -0.23978699435879344 -0.19308367676498359 0.28263468565193905
Ni 7.260521082249032 5.991230864457801 7.083545145180379 0.776410676901521 0.26135160790344664 0.013504205134021905
Ni 2.3275597848657994 5.268490154405737 2.8754469916188503 -0.04289371403973258 0.3288955163916916 -0.5564756842716481
Ni 2.220981855246729 5.417635382113246 11.63659262276259 -0.2436181951794256 -0.8912114614942007 -0.3763377690340551
Ni 1.0377387159065108 3.3455158850690445 3.735408611020016 -0.19123248248885774 -0.09764098498394151 0.41214757964381277
Ni 3.4629614785730736 3.036403389882774 2.849150164960528 0.10399418089547896 -1.4258386824321896 0.3494077774124305
Ni 1.15720089523638 3.3744506979818936 8.407195581970981 -0.528627037490496 -0.19495004054976103 -0.5565607877862866
Ni 3.447540528140177 2.9775026590873033 7.38960447467739 0.5671732731948104 -1.4835949154060513 -0.20595899006575497
Ni 4.063329190840775 6.718150743325407 6.236845543151503 0.29216010864387104 0.4967939521402992 -0.614344017343342
Ni 0.5087471920862661 7.080114211829628 10.999768506196338 1.5687783913529303 -0.0413155709193353 0.6541935452401121
P 0.23575804516848697 5.478488824975368 8.201914444758632 -0.7378436152616002 0.11964808538265201 -1.6457163394615657
P 8.724617140745533 1.1345439603695862 8.240043429065674 -1.1472588835759145 2.7286521354793782 0.5352322015118395
P 1.8083756205279673 3.2042910035010346 10.526236742515797 0.30728590854171595 -0.1617964366159278 0.7440199192756413
P 4.1946992638481175 6.19826396763649 3.6861008063725356 -0.23529707690823992 0.33320802772411645 1.1924534778346818
P 6.857997776659472 3.836549971249785 10.276843474724899 0.8330348531534686 0.18804585723076 -0.11370986552134611
P 6.729283027069865 8.045027717437355 10.340773807815406 -1.7015157058193726 0.9279018749366987 0.2719304118605575
P 2.3846355511129986 8.580873808100907 5.839637446808784 0.4393457373251594 -1.4464787272800443 -0.600306051193037
P 6.919070215267387 4.040672255973981 1.4871033865565622 1.258270376329491 -0.4975480566975044 1.1597544449397639
Ni 5.188894325632864 3.205623227621273 0.43201655765418007 -0.4531954987240582 -0.8669970690315261 -0.3430980331443188
Ni 1.469945069873711 0.9351027097117072 6.989137904133732 -0.39399893375924405 1.9951943079902994 -0.20075379171573168
Ni 6.875672558309484 1.2837621866590265 9.42862093978049 0.1364690135947327 -1.0618815464506746 -0.6223221504528121
Ni 2.6047536501027966 1.5853923271973827 9.225115493073611 1.4213742189029328 -0.46640376988421606 0.8251991591591337
Ni 6.2935544915245005 2.0472908543649644 2.380520256056646 0.2909010394257893 0.9394224739817887 1.36192851404179
Ni 4.356847363962063 6.889222920080401 10.61758534297954 -0.49556445060857235 0.48904953230819004 -0.2682498776851767
Ni 8.741707933740098 7.382136719745862 0.08408797900844363 -1.4758528095667873 -0.5469235218068387 0.2504192772616591
Ni 7.808630934676972 3.4304588599683536 8.201807684332557 -0.4716840444465489 0.3262706771743349 -0.15233349143081507
Ni 3.210048766650832 8.558882985294233 12.815099979100042 0.4349977447691089 -0.23248326160852864 -0.5340813757368479
Ni -0.09693207949918026 4.741175773005354 10.1202149798872 -0.48633547581113656 -0.24838604888171417 1.7032100628026603
Ni 8.678034920650896 2.341940505506181 5.624661185433743 -0.24509529394558435 -0.15703501067154244 0.6706568330024579
Ni 3.5807446905185327 2.8147431958496867 11.809741609173518 -0.28006178271844023 0.703306243606363 -1.0527939823271093
Ni 1.3221229414636988 3.3975821236312376 12.823981169074207 -1.5227726140467774 0.030005802333470905 -0.2898114059060364
Ni 3.3359530708361005 8.440771279730084 8.008519301649178 0.08462374678866716 0.08046858696971303 0.15049823799428919
Ni 5.915449211590817 7.885808685423385 3.3074042379252115 -0.6939358581350564 0.028959877567459803 1.1386150918579874
Ni 3.4163245095419885 8.31872677556441 3.815873122917866 -0.5005009686782412 0.004800506712436895 -0.5067178961222306
Ni 3.310440066451261 4.521988405935175 9.762685262753006 0.7594398533751373 0.29826724998287346 -1.4131837126723403
Ni 7.433080605110868 6.465995391690699 11.589622597701446 -1.2780138775050054 -1.0423306209019405 -0.12028160520159285
Ni 0.5042842412834675 0.34625052374360055 0.39589594683251134 0.3746053597239807 0.18167646336930646 0.5932501727875201
Ni 4.810597424421611 0.1909287035224654 1.6375753634906653 -1.0146200423605494 -0.1351747202633414 -0.5021590731069545
Ni 6.0927718919236415 5.5693173105428535 0.2889457244455932 -0.7184238159740918 2.214972977547966 0.20128369607727267
Ni 8.514508972303005 -0.08631626072188345 11.348042915623973 -1.1407820176023191 0.5458829963574663 0.030829326676030777
Ni 9.444739026670828 4.8433007891266415 5.981843246821491 -1.7935683980822594 -0.19692464777762858 -0.2882558884934584
Ni 8.123181824217093 8.658945791475974 2.26406379333778 -0.10776701767434989 0.7772745675637129 0.4224091094708209
P 8.28903460236403 1.443720329315046 3.406472438428144 1.38381477259192 0.9203885972787892 0.14265405935952205
P 1.7035679065207203 3.2286999043341695 1.609570370015161 -0.7273653414380957 -0.07783089223654983 0.6920095876466211
P 4.765803669584281 1.0977617998991689 8.067509455707514 -0.5707854160261009 0.3340950583147601 0.7923330045587322
P 8.275292619315543 1.8056381737055596 12.467934235635484 0.9670572049799216 -0.09613971784806669 -0.3345784257090818
P 6.634649490419234 7.559048783055326 1.2311502836969 -0.5974654964204484 0.39979959960142114 -0.7576688775176434
P 1.605366564178217 3.128527600279533 6.188018616662493 1.0235659386999274 -0.897958293299731 -1.1848365847193725
P 6.9180938592340615 3.9920825748762456 6.10645912603568 1.1840696246463607 -1.1986194974360778 -0.8613270152299425
P 2.4707647529686847 8.324584911764363 10.630259721767288 -0.3749691708213026 0.5020377170377418 -0.3328663281139816
