# total energy = -340870.2424835882 ev
CRYSTAL
PRIMVEC
9.22570968664462 0.00000000000000 0.00000000000000
0.00000000000000 9.22570968664462 0.00000000000000
0.00000000000000 0.00000000000000 13.50275867542712
PRIMCOORD
 96 1
Ni 7.089542860441176 0.8515228705930393 6.105042453256108 1.538317503759912 -1.117255909455921 0.14727021797529474
Ni 5.284182151910406 0.7030147740446484 12.976272728733884 3.3556737482903882 -2.179848880151323 -1.6745445765471674
Ni 1.3856093619140484 3.1957951166947756 12.072897678517023 -0.4259970839323954 -1.3092810630494032 2.709546782108495
Ni 0.10934219053511626 6.462618973501251 7.089596369558288 -0.12355436241559366 0.2453493189379194 -0.882536559428022
Ni 5.283084292438619 5.148591894289719 2.242605846159286 0.9570283599890099 -0.6045146899577459 -0.52977040706632
Ni 2.919752652364059 0.20636990356651808 12.46257413360366 1.9930320102316579 0.5285743298756896 -0.2950767680700337
Ni 2.4879156258478283 3.109839178050703 2.1672336418516394 0.29922087214539433 -0.2860249422804106 -0.34457487480016136
Ni 5.609111652720133 0.8402665820087706 8.06025544425997 -0.14301812756716012 0.4468037362651015 1.860387769699654
Ni 4.629295138424363 7.774680976515381 8.270291644919668 -0.45451627441801074 0.8208275124539992 0.24475436566639783
Ni 5.639187466821203 3.1076342333972815 8.66756916234921 -1.3254970106876336 0.8836555035238136 -0.14952841788185214
Ni 5.986627699657498 3.0250180017178065 0.06638820805868229 -1.1340938069488662 0.019031819820470447 -0.1955161974658762
Ni 0.27670948315265087 0.7672829139805007 7.035017992674692 -0.8690272120876776 -1.1229323910154079 0.16469458409932927
Ni 2.355305272507709 8.469450733669808 6.792198232073843 0.12812809782920515 -2.002621453692306 0.6779279127425744
Ni 9.394171308759564 3.67896399279946 7.894766506167276 0.44789414111580284 -0.600953712079365 -1.7697270726882877
Ni 3.9329754620156496 1.7733567210716858 0.70240403205278 -2.8815864937189857 1.0135067546917125 1.767266269852621
Ni 3.8213720499970445 8.25225907245281 4.883137777150353 -1.0791017669837029 -1.449980826896032 -1.1668370628181581
Ni 6.813694136017245 5.756427787556297 12.407118391713617 0.4398920967469327 -1.189464827520003 -0.9743856203205348
Ni 6.528241447642636 7.689869025892331 6.617445758723821 0.5551857618156311 0.04947933767705027 0.2437585774120318
Ni 6.6275838912746385 7.494975905375425 0.48383312721366506 -0.9865579940170106 -0.31608962287627496 1.4616870595893665
Ni 5.469535888445562 2.4944658798391655 6.1453754115650225 -1.024438828223184 1.0722847440618692 -0.22808179010672333
Ni 7.743820977077319 0.23620677178255262 1.0759511786139855 0.6472109432746918 0.4604521802864715 -1.0699208718153832
Ni 5.7166834295356175 1.0291832876868208 2.093522065316445 -0.3402993873532591 -0.2993018618949749 0.04044705227145292
Ni 0.6160043367650694 7.015119059105796 4.5476208517202625 -0.021851034436820432 0.46735096428883377 -0.1830419762582654
Ni 0.54127793214671 8.169772000711193 8.801071641831529 2.739326841584405 -0.008341944206792086 -0.09568823213294489
P 7.47133041103768 1.0844545153799232 12.36426035661959 -1.0878005803092814 0.5218161852162497 1.2122771974288282
P 5.0386491100435675 5.489186650419574 13.544212039767306 -0.722199223856124 -0.1508443084797983 0.9020725725784206
P 4.2810891716707715 8.750511984157265 0.9520295988077275 -0.37038900764978794 -0.30357606379029656 -0.22326071456899615
P 7.314022832437265 6.722710185506584 8.422899646924046 -0.11535434310330456 -0.6987343079649644 -1.7719006833008384
P 4.344848052423072 4.647100758428985 5.833894227999202 1.0732954447145708 0.9688886017617055 -0.09132789828172012
P 3.8111315120669254 1.753549122030275 9.406021733057978 2.6196062510926046 2.335856477999616 2.828112947280878
P 7.943954300787296 1.2877153547280178 2.8695924679261697 0.9479302543424835 0.5523549772350551 0.9894833951939217
P 8.685424601187004 8.298701295822378 5.873322144172129 -0.0009554219347338385 0.41372495143326166 0.820174966471665
Ni 3.0587287454985774 6.930611556907696 10.080092687599779 0.07648209151813926 -0.15336758912228426 -0.004391958420108565
Ni 3.671371233595417 5.8906710915393266 3.832650480284946 0.42229161005635013 -0.19775357143682717 -1.4050839663833414
Ni 3.161724570229974 1.0666212182457606 3.2672491620304203 0.6387427579026805 -0.21778220795292813 -0.6304524928694304
Ni 7.943502241004795 2.5986333697211252 4.68841440969463 -0.03672666599707223 -0.22881429739737366 0.45560899326155724
Ni 6.9477252486737955 3.1607281935665026 2.4699245690752827 -0.09413811403700562 0.05059776755220964 -1.3383558689281725
Ni 0.853471340512716 0.11796638410004903 2.2538261544751514 -0.1534200396267745 3.6379119698348577 0.7423098785630698
Ni 5.939825673603899 6.293557840555816 4.799056502747183 -0.7200446394069663 1.561685231951575 -0.6175404127934526
Ni 3.3510638134190147 6.383490060143925 1.4062315911349454 1.5745374053238947 0.8255048633250106 0.37855328862813514
Ni 1.0248379783489052 2.3200538351824966 4.038648587744632 -0.5935265663773585 -0.017816202245814476 -0.8420262580188015
Ni 6.014886048918719 1.248201639453513 10.623606009242405 0.03953508198014482 -0.11139972933093072 -0.6503602875369509
Ni 7.8055317502435955 8.52032129776591 3.9118439736112007 -1.1575348115806259 0.8092079259372 -9.538792728370669e-05
Ni 0.30269000465265855 0.14468865267175182 12.86186377835082 -1.28500547833149 1.5275800627377498 -0.26627861289141885
Ni 4.373170981653221 5.230331683533735 11.49025350855854 -0.07181322528756018 -1.887340644139414 0.3266756259222374
Ni 4.067827662848579 2.3174614107155023 11.696508090751971 -0.6607421449919073 1.191124217500297 -0.8552818374771269
Ni 3.224468622899109 1.4064317890386242 5.892833597927453 0.4664132829659129 -0.6630710502354 -0.9929590124473481
Ni 1.7915682723095734 0.7906055084736009 10.698276137030696 0.7953401668161721 0.023004174204657158 -0.5528226609000931
Ni 3.285884173350283 3.3843317231271315 7.283239406390933 -0.27545590851531276 0.14751652965814593 -0.024407739420403127
Ni 2.540262303519446 6.12040971814818 5.601930360175262 -1.1500001937664777 -0.38351346084688787 3.1537912422868524
Ni 5.9427779007549235 6.343939442030033 9.993311047924403 -1.0953452254257587 -0.06139537238834587 0.5928475380324629
Ni 8.036645007619645 4.951715246155718 3.7702265597475 2.0741114913124923 1.1980528262993302 -0.6653881284043508
Ni 8.272933888219836 7.120476665558013 10.252860710761718 0.9557140120529605 -1.0318212367301842 1.2210891392935035
Ni 9.33309710957273 5.40196678952647 12.045027731640358 -0.5150726958448291 0.26262687507144444 0.0004221751390831439
Ni 6.1240261964081855 4.140673867800129 4.3891665173858705 -3.112422963752711 -2.0067552733550214 1.0767121837056037
Ni 2.5438511046499115 1.1039115374471495 8.1073268610411 -2.67144688991298 -0.6292127069250583 -0.5977598877324157
P 0.3489929198035369 5.081401049474353 5.351562123777636 0.07026259297098868 -1.3561504739074322 0.5096664372275932
P 1.3409569262547905 6.137043673002238 1.2415757346414305 -1.726947515628916 -1.1892606819289968 -0.7200469533998115
P 2.1307330434131497 7.788353478508567 3.0537431718972834 0.9596547418682633 0.0002627667430834184 0.7455985766166708
P 1.5608517204569432 1.7558647752018606 0.22532320187610078 1.0044518435782959 0.09092114976160472 1.337539286564148
P 8.501482398258432 7.432988360913739 12.696253060888147 -0.0710380376844325 -0.9505113848060984 -0.4555951093044863
P 4.6650355383714635 2.7990711418560514 3.069339234393559 -0.11562225205271057 0.1379096026960012 -0.5044548111196667
P 1.9317529334340422 4.7753473510114945 10.883777484923405 0.8261458393431191 3.3370589614026787 0.9915821867044794
P 4.863701974215775 9.132954560152903 6.425774256085471 -0.4684159152182384 -0.26626858558908983 -0.4115515979310267
Ni 2.308936854816917 6.302765098983076 12.763347958321104 0.264305548325448 -0.8530750596337954 -1.1656384145243668
Ni 7.789331403752344 2.245722290945587 8.888204781052073 0.46874527353319917 -1.8922198266085863 1.999138123129396
Ni 8.365919817767287 5.504067720402712 1.1367661353541227 -0.22500366540203184 0.06047466034628939 -0.021591867238162813
Ni 1.5492365517596278 0.09184655438135236 4.690736520863109 -1.4804525131223276 -0.3853021773161945 0.3958393294020925
Ni 7.651157947374512 4.73283528003673 9.355845864913348 -0.6710833790169152 -0.5442531740635272 -0.14433941748174495
Ni 1.7992348371923923 8.38810764994921 0.4295684244648653 1.76894391466536 -3.328569435874429 2.5880426173537106
Ni 8.69237156070176 0.5165557974698269 10.76051093051628 -1.3419590128983987 -0.9481215444176833 -0.5833879352814598
Ni 6.62664286887025 8.082081628615894 11.554985701699694 1.5595607294094043 2.0324773607114737 0.06258347915917609
Ni 1.1919524865166333 7.757244384904638 11.186238691971859 -0.7378595561012001 -0.3346799842839526 0.9045148634713261
Ni 5.3104569735545315 0.7025267339937447 4.416117583561777 0.8927970608137656 0.8250387223218694 -0.27324861645134874
Ni 0.6587774953285032 5.479702620696906 9.20893566131045 1.6630694860280326 1.254157382602382 1.1555293511148228
Ni 3.47647811307851 4.451589515352332 9.433648121194683 0.5922114471103607 0.18521173021607457 -0.6620297534550791
Ni 1.7206779178455776 2.971352047538074 9.880900386294188 0.0052967296225650716 -0.9286122707401621 -2.5845004085284073
Ni 1.3487987796247014 4.804205371412768 3.2864497093639016 -0.722319294373756 0.9913705849143054 -0.004085740033599416
Ni 0.008473814494427417 3.0961666760575173 1.4336153431026746 0.4252332091831773 -0.6458521152539523 0.14200099915655545
Ni 8.14215945113926 3.2777378715554226 11.270158516452708 -0.5906171060400474 -0.7476048084134221 0.4726651774128957
Ni 7.68051415610752 8.85160731266019 8.750070995226581 -1.8852806762865917 1.1996026872849535 -0.7474569699816481
Ni 4.911897082456264 7.760288869154133 2.7255994337768783 1.2902543854352553 0.26603358676014827 0.2689726147838142
Ni 3.370843735330884 4.058491244483461 13.649803979249635 -0.04825240724848464 0.2291878786867085 -0.5325132599187797
Ni 9.14492953153425 7.367919429363171 2.290702239304412 -1.0242521661336748 -1.0316841969316877 -0.1627821975679648
Ni 3.035876662207672 3.4559324572493426 4.584996970023228 0.6636294938420313 0.26388157341415197 -0.056650915724825016
Ni 4.58084171030816 7.430451290705826 12.100686439147035 -2.1004293032714147 -1.0778537535092145 4.41644509239602
Ni 7.095594926100778 5.15371216325478 6.632622973993046 0.7794188676002254 -0.27671574906434276 0.38936554875229074
Ni 4.983931424941281 5.497720432028007 7.92999487921787 -0.2389652697884465 -0.7780800941841439 -1.4456369481050393
P 4.762551291453769 8.425019715046876 10.4592509108899 0.18612704294149238 1.6112147061402704 -3.5457944857723063
P 0.4944878995159125 1.2991091063890061 9.136317331392119 -0.116352959571148 0.40323330787331846 -1.4213739617926167
P 6.987183609689219 6.6619127576151556 2.8137188013800607 -0.018303426294878154 0.3884114123691375 -0.672604700757448
P 2.76030470907915 6.3516521354620865 7.9978997939753915 -0.4488176813713367 0.2852117023504959 -0.6140066886085813
P 1.2306082107753713 2.3627965489034355 6.1739206804024835 1.3187087841212064 1.821648187037611 -0.6043910198956882
P 5.937187120587669 3.6806430719916055 10.720353260694457 -0.11155939483724658 0.7270023016717222 0.4412689224898014
P 7.854160466846891 3.881514452489339 13.391401994717281 1.5897063997548493 0.15361750034956123 -0.5684099738153888
P 7.357872631339839 2.994056519471428 7.0709226102570675 -0.2709672766163398 0.46592785868906206 -1.847609386988063
