# total energy = -381168.07203095616 ev
CRYSTAL
PRIMVEC
9.28906651009736 0.00000000000000 0.00000000000000

0.00000000000000 9.28906651009736 0.00000000000000

0.00000000000000 0.00000000000000 13.59548779075900

PRIMCOORD
 96 1
Ni 6.147188478439817 7.929360938052472 7.015000022856478 -1.9434755394597687 1.0264136925613678 -0.47166141873872963
Ni 2.1236013932743023 2.0249700836209295 0.5184042314122657 0.2882543458315616 2.7419054009448587 -1.0574767325147596
Ni 8.186194341763729 3.927278042173787 9.444948331788295 -0.18921005274219027 0.32013088282518415 0.486714199306794
Ni 6.0379676328093455 3.7885458318071334 6.101029248459638 -0.5257114065055978 0.10451688616816837 -0.13734370289020217
Ni 5.5770627239394015 4.969715679386145 10.470877439756352 2.7013591040913796 -1.5445444585062302 0.8429258870149353
Ni 4.666557700308402 5.840658568169366 7.272172477500332 -0.018664666289038824 0.0029529119807368497 0.25660715123992583
Ni 3.8276342242559367 1.826704245116353 2.328716989524066 0.7850017610046416 -1.7325000700160291 -1.06907035088963
Ni 8.361869170183825 4.628556128657248 6.34706689891424 0.04083246063532968 -0.8821228689293711 -0.5470369074562513
Ni 5.838410614040894 7.4872385219419115 9.856592391324766 -2.0068627454671635 -0.42307579652054234 -1.3964658856970273
Ni 7.54515585248333 0.5139826356884941 6.203580544237868 -0.10800047384139465 0.3563417855281024 0.5251372791696827
Ni 7.226150725706522 1.1163600295858314 12.659479076890088 0.1647388070737034 1.3345215827837469 0.8487936586496221
Ni 7.510656258957937 6.748962083005127 3.1841313455942015 0.21832342516837883 -1.145672512925401 -0.7284446905452036
Ni 0.1980772704516508 2.5337229747873997 11.506935345995839 0.2694356704631618 -1.0877149625740106 -0.7338715179877296
Ni 4.537848392853406 2.008333365256907 7.0479279063052696 0.3406742541941746 1.7008225364070901 -1.2777991903910382
Ni 7.332315468410271 8.060058105769835 0.014117523489470348 0.8110429222634097 1.900730949403391 0.49051351844822627
Ni 5.154902512052338 0.3864437506309682 5.480694230921135 -0.36724454848353527 1.1943977460452462 1.1310892157945875
Ni 6.699014771646474 2.689955786716207 1.0555723774506203 -3.0326843129704866 -0.7826543438183876 -2.014295547596124
Ni 2.322693958710424 6.953581643095964 8.635269624259253 -0.42552708627451225 -0.6601633896703017 -2.9204237783011573
Ni 2.5657516765848034 4.833863079679931 6.69796696492874 -0.3696688416543117 0.34389816044811095 -2.5038143062312495
Ni 5.254871447302818 3.0069358969640603 11.946151213152685 -0.2279555489415042 -1.0911818380766884 -1.3352381492347971
Ni 4.08289777570392 8.798120896173748 3.6510407071444932 -0.21690160512018775 0.5227111862266933 -1.6867676009759207
Ni 6.196021101800882 1.158615993761118 3.1796038545106593 0.9060762944211751 -0.7041868464391033 0.2529597842953257
Ni 6.882343790983351 2.1441859649631207 10.424734930096138 1.5296289748469785 -0.47511235340180763 0.9409101142709086
Ni 2.319684301116933 3.736081183387257 4.05142827571864 0.65577297391209 0.7951151952895597 1.509787257530703
P 3.864056654577172 8.248523978962272 7.612575898204199 1.022587633947058 -0.737323223981756 -0.3978674155757148
Ni 0.1293140256936871 7.6329932666933775 2.163531375161286 -0.26583561181672927 0.006524945602711343 0.05640203293881254
P -0.04362888822565096 7.669025556215457 7.3237537356821205 0.206406876236451 1.204384682054629 0.5297683501837908
Ni 5.530236538973998 4.363957065229453 13.59576033155868 0.27946708655723485 2.3894943179297297 1.1327316364940168
P 3.0713091288248506 1.3175240568841402 4.6174631252679035 0.380726385020054 0.40572290706439157 -0.9495143110001518
P 8.11959173390776 8.885651771184458 3.3683502575158215 -0.6157519534344621 -0.04072884517792986 0.7988042141053726
P 3.405594770235279 8.108398408598632 1.4457438305268604 -0.33675769274858774 0.4108712840345505 1.1507620116331665
Ni 6.426445689035914 6.516614658974254 12.169837511442289 0.3942082215565727 -0.7778836619026217 -0.7325761962150739
Ni 5.729830714009036 0.5790098178412039 8.305075816706642 0.16243201331739768 -1.71784606754828 0.7779368837380602
Ni 4.845855264720664 2.2492638868692194 9.694099677382829 -2.248817436901237 0.5420160572028924 -0.4560789909194404
Ni 4.823589371968814 2.640993116422091 4.230263244611904 -0.23651963646143137 1.0639895939326127 1.022428996882007
Ni 0.9398398961008958 3.465769343971816 7.990788606879633 -2.0947024280899664 -2.032597688339422 -1.0250587211953701
Ni 1.660978007074742 1.0453729822726767 9.973622555285017 -0.39937639602107344 1.171181712940099 0.6971206836209414
Ni 1.7860460004042782 8.498344137355359 3.475632474937153 0.6141254735746327 0.17763057543470698 0.8662020839340566
Ni 6.07430646153076 7.8948427663937855 4.530859299108521 0.27104312415959775 1.8683036821126213 -0.7438312003036028
Ni 8.684729259618962 1.369347759705403 9.249975467409929 0.8332346278691005 1.3125610193522554 0.5781909644615526
Ni 0.6689038314068048 0.6757740250986145 7.326077860157094 -0.07797821644769151 -0.7856296243966276 1.3368517735788203
Ni 6.020374140580724 5.706282930059958 4.765327417054808 -0.2797157122329312 0.1642238151104978 1.320164028510494
Ni 3.3832452758836107 8.075282886003578 10.304890178941973 0.3486559868480705 1.610282424133988 1.0696192814145642
Ni 1.0624184195691486 4.696802901309662 12.367543219228077 -0.8100682170549662 -1.5708213899248882 0.765573734187017
Ni 1.6338910887333185 6.625454652872217 11.400877427558527 0.1320120062646436 0.030151069662083564 -1.7563982167898655
Ni 7.58213562680336 3.932433474162638 12.050020627488065 -0.0996731849226219 1.1267139695450274 0.0827625252102123
Ni 6.1349083323330404 4.568121461054607 2.4402136564829506 -0.9112141298683727 0.9532735209322679 -1.8920257083199092
Ni 7.930280555650484 6.577690272175509 9.803896445145387 1.3765084687384939 -0.3718481086938177 2.7266831846784654
Ni 3.1164075473939903 0.8545978471119015 8.375772116233758 -0.013240152839357842 -0.48747704561474753 -0.6781307727819998
Ni 9.032456180466989 3.081044070670465 0.19180064811855754 0.6401923458650136 -0.15137652683418445 -0.264193448227616
Ni 2.4611939424109135 6.117704980903576 0.8093991066229788 -0.13486927320778064 0.13355981036773773 0.804075489806641
Ni 0.831521018841806 8.177899205248332 9.611996404013713 -1.8801688089813235 0.4323932172667263 -1.09134047514174
Ni 7.177188055412407 6.032932958686899 0.7986748791795036 0.34306820834764784 -1.5812924646595412 0.7518640979104083
Ni 7.834668192657249 8.713887639822572 8.716326019817298 -0.22220476250065602 -1.0562220341720518 -0.8460495202455817
Ni 3.9657812234238556 6.13110910407459 12.121777738426221 0.6367902621620001 0.512569212696685 -1.0167933958627844
Ni 2.0755769187114903 2.4126492801158927 6.249084895019464 0.5268956566216861 -0.44087271549264717 -0.2980919007472737
P 9.064001850798771 2.3124759853991876 6.319359470920825 -1.1332885374387514 0.48206821589435045 -0.49920461846432096
Ni 0.23633707815557925 8.801437092966577 5.194686655592971 -0.3971837592451289 0.11733974896444951 -0.5012522450219691
P 7.1631058303761925 4.117193009763089 4.047376384847404 3.2443303261186895 -1.8153926930462025 2.30041844890698
Ni 7.939253794031079 7.130612675246461 5.707018624138367 0.46321920150864737 -1.3282663459026542 -0.023993791811436096
P 1.6775311238389454 4.658262563793007 9.427832297585308 1.3427593973125067 1.4958523926171656 2.248187773737038
P -0.016639505084016473 0.9093633973401357 13.349015783132273 1.042604186278301 -0.4382774439616452 -0.8530807160607501
P 1.184987653970755 4.073850224790153 2.2345676545276674 0.22804785154499435 -0.4270167834461614 -0.11543070486719476
Ni 5.410240376033495 9.072009026248121 1.3302027039500555 0.14317187953620503 1.0658047927644805 0.90607398042833
Ni 1.0506677502612267 8.87079855361658 11.671644431239649 -0.6298973916969087 2.276006338611203 1.3702648018216272
Ni 3.8388461276983574 5.791528694675611 9.659947494950018 -1.3131590579475707 -0.6149654529774248 0.10720266053044764
Ni 3.852194516469491 4.096627016207564 2.0616609679682507 -0.8727077462630584 1.005509852529165 -0.45109439322065537
Ni 4.505011542257751 6.4435282825989715 3.071030456825453 1.3989475144683003 0.26898752718214963 -1.126725025288621
Ni 5.01781446648213 6.857254021970942 0.6462747361490744 -0.5588344143118117 -1.0575011579947917 -0.43958073615410104
Ni 6.956990730555258 6.126130164352023 7.899195623024372 0.30038249655366334 -2.4709178126135445 -0.5053654958593942
Ni 0.07449645669223208 5.489216020662707 1.1446907539512319 0.26888776837949174 -0.7843096200336234 -0.008196419767863302
Ni 8.61785726883024 1.669626128122707 4.19101322240345 -0.11618892318945796 -0.2451593144143004 0.4459416453751224
Ni 7.0849383345452335 2.5064967204462776 7.777598024993998 0.4547101355963717 0.08537913689745295 0.15237205797823433
Ni 3.2754456574500646 3.5931503148963504 8.289142280687765 1.52258980861201 -0.9536941534094544 1.857434857718917
Ni 9.429052880942667 5.697885613811451 8.20762328961072 0.6374610629767795 0.40069511483249703 0.08180093262789138
Ni 8.020115119189546 0.9173705727894865 1.5906309764535367 0.898914229455097 -2.104733587073724 -0.1539504582089478
Ni 5.273514604062502 8.832044567567053 12.66550210770373 -1.2330082593285925 -0.07428971185251076 -0.7763870227524371
Ni 2.741036364205744 8.023059753316511 12.929472301319553 1.3611417564744366 0.8343623137156404 0.8017501841075741
Ni 3.2429617913869784 4.331324574100021 13.185149216233308 -0.12470158864615945 -1.9149944013009408 0.44169778249710384
Ni 1.5764475005908758 1.9295249238273329 3.0189866031246666 -1.4373770220890922 -1.097209275217691 -0.4106733090911315
Ni 2.938865616577931 3.4722438234244812 10.94378289382701 -0.7965046194379186 0.8266168654422668 -0.6889736290337747
Ni 2.47456090931534 9.099959827787677 6.022610947829221 0.1464225252630188 0.05178895964683338 0.16301925327943537
Ni 7.174178397818915 8.631577220267237 11.207521789683332 1.4798657873809222 0.6034217140038833 -0.39324328654014207
Ni 8.320142682807393 3.0610539992470276 2.3272075161939965 1.827950732216871 2.7029148786142736 3.288278449564866
Ni 0.45566308856127885 7.440746743375785 13.45647449281989 -0.4642417292358908 -0.19259748115718445 -0.6110630325992251
Ni 3.7541577070814993 7.237390496348883 5.430745061749152 1.4468690207399273 -0.4310547009609608 1.0818497620424852
Ni 0.18580176887819702 5.155998621916635 4.001057382920903 -0.723605103064715 -0.01992656372059794 -0.30751216561990913
Ni 3.186047680043391 1.3764538956900358 12.006066621929783 0.3907452027086367 -1.0932227797661171 -0.23311909542031461
P 8.722043440338268 6.089401194831452 11.933833910779322 -0.8712643289483124 -0.001685872342855161 0.174785392676428
Ni 1.4886286645141205 6.69446312898965 6.107527879485585 -1.0764417036530365 0.8889236939012884 -0.7074035536041882
P 5.570922650886013 4.079572289844445 8.468330234113598 0.1459846663946518 0.24461115522031424 -0.6873918863689515
Ni 1.4816061301293069 0.1900440856156895 1.412979434651048 -0.5265048489411707 -2.305934750739519 -0.9553304034612966
P 4.096385500474753 4.7250695311152 4.7786507253459956 -0.583344483638034 0.9383004445622033 0.7723262224195022
P 5.186977659182975 0.24663493743997644 10.612828311716045 0.06111126548902378 0.24222825681043442 -0.3566544316725148
P 4.37697104760131 2.220142662932195 0.11585323921612989 -0.5041483356228414 0.03420004292047659 1.2015729236374468
Ni 2.478833879972766 6.191153630878074 3.855232041262922 -2.264409377802223 -0.773319696681023 -0.3150717231347219
