# total energy = -340868.05816662055 ev
CRYSTAL
PRIMVEC
9.27975048441515 0.00000000000000 0.00000000000000

0.00000000000000 9.27975048441515 0.00000000000000

0.00000000000000 0.00000000000000 13.58185284549477

PRIMCOORD
 96 1
Ni 1.9948958003295083 8.28423740963637 4.808043807119525 -0.48855973715596507 1.3371484788836328 -0.23627923831585115
Ni 2.7810205826468875 6.387354333895905 10.11941756847308 -2.099020595849346 0.8572543878224655 -0.43206514450334615
Ni 4.1638611601971025 2.2400482485583786 9.89147348953771 -0.6273435149268034 -0.638035704533327 2.282441809823901
Ni 7.092504013508872 4.199912990818995 9.398520152292456 -0.022774831802670453 -0.39320523421335507 0.5547473887266317
Ni 2.713232005377151 2.5293908685817033 3.331357112946607 -0.3378043888455472 0.8322753492796248 1.3762243618391719
Ni 4.806103411293774 5.577324914337343 9.79740558687849 0.9658387591917882 -1.444360652495777 -0.325351250683859
Ni 1.110795412425014 1.741642129930004 1.7691992769608338 -0.2849551062549996 -0.8647203571822075 -0.20585023240203257
Ni 7.605748453157687 6.544182117038758 2.33390550088166 -0.019120008658902555 0.03268077806247274 -1.2517130348269474
Ni 8.15198240576939 6.699617937609338 7.752236738313691 0.6703256749152843 0.9182463541248056 -0.24873751868386196
Ni 8.023151629830204 5.06714279234753 0.018855525004021566 0.8054453735709741 0.3237106297566425 -0.3955871041819703
Ni 5.922058364986684 7.000857197750363 6.515350860266774 0.5986317488144077 0.867600764053796 -0.1178259445722487
Ni 3.935180269073473 8.636413220172136 12.00207942660015 -1.0234700365520115 -1.056006575727136 -1.1873629506856518
Ni 5.3976225462567875 1.9090024298697301 0.08035521537222479 -0.4576689611143795 0.6891345800916712 0.2796465495578926
Ni 6.784490535516115 2.463077771638577 6.34675913743811 -0.5085400369326338 1.4131544020963016 0.3659798228384987
Ni 6.051789276722607 0.33757690707775767 6.110299031485566 0.4103439507761707 -0.9708179575739345 -0.4596906195300986
Ni 1.7776754010509335 3.2929472977272822 0.1723184706221653 -0.7598561149769494 -0.27851037907092036 -1.8302945498586995
Ni 5.228870283744789 3.667756419688221 3.3619700818111014 -2.0215848821686864 0.2137738581244835 0.3161184192316814
Ni 6.39912105750686 1.872746444737237 9.384191289573467 1.8324630182649282 -1.1219129486119581 0.08408844311048744
Ni 8.798948049861313 1.06777448919127 6.569881458023126 -1.6381639810356046 0.34620418287346827 1.340838269030394
Ni 5.20361080293326 4.321793233647294 13.441606287943642 -1.1173358707642371 0.5934226938096424 1.6294489697601098
Ni 1.0460877123152434 0.99783300980975 10.438441470412524 -0.28433084240743933 -2.089174813403518 -0.18750541134625773
Ni 8.238905828532651 0.06555308537866468 11.95322525221353 -0.6689941005880543 -0.4289512814647128 1.6383771254876751
Ni 8.020228508428431 1.8697026865791984 2.4412425187548408 -0.19731314146529888 -1.5638817253822614 -2.066471201158415
Ni 5.5043118375463385 8.006568715719183 4.425836868074475 -1.0064896999439312 -0.02037547833255846 -0.09211234185622846
P 3.4985216101511663 2.528110263015211 1.0832475451446661 0.5881732724852451 1.2797432014912862 0.9279445552491761
P 1.1179315405455377 6.837459351266377 8.271946380123191 1.2957215791974137 0.7852125914638671 -0.2650041170543694
P 8.661839736492338 1.1522016590749198 9.107814336923349 -1.3508241765985123 -0.9978844747734232 -0.9709598824684375
P 2.629621453535902 1.3972613097989721 11.910755546158406 0.5241445762391101 -0.37482930280932863 -0.15729057832577428
P 5.413490919580711 2.7867740279456195 11.614589525605796 0.7481758504255437 0.8000051763920094 -0.22595754467486892
P 5.870045363536051 1.5878209859432622 4.24753388636658 0.7360286735400485 0.1685728361078129 -0.5990120149719619
P 7.177590045676733 0.7584386467548524 0.5025300397424979 1.426929601503523 -0.9966212917902838 0.5241913703166456
P 6.417467124209428 5.221947589885347 7.675023646454612 -0.3435533755141825 0.07569867638489544 1.2777500823206576
Ni 4.139260541669783 6.232753690868689 3.367131479029093 -0.7682073151551221 1.452384294131202 -1.6166996405142415
Ni 5.329991724745243 8.801815492760197 0.3382125699857627 0.1379085742547367 -0.5907662300234019 0.5837370910907624
Ni 1.6979159456596415 4.82905223423533 3.631217402166032 -1.328415469886009 -0.05442922548315788 1.1664115452449655
Ni 8.581068788298527 7.632158623028962 4.349099827415114 -0.5139491237633472 0.10693320891914487 0.16730939601435701
Ni 5.856144297314277 0.6040310225376588 11.637936449843021 0.4196875967745998 0.2772662222511741 -0.709204868478985
Ni 8.220355607319483 0.7917111921074383 4.417728222103456 -1.4471433574472368 -1.2013885755407825 0.005045275733391311
Ni 8.585012682253303 7.782026593310447 0.3478560866864759 0.04938035020534076 -0.306008327380873 -1.5709597152749655
Ni 9.204640181425766 3.206562100491967 9.32267860755459 0.44804840730547996 -0.3404423406890266 -0.4738530270734097
Ni 0.934860623040081 7.9777086917207045 11.659749431325599 0.16618171016781702 -0.7097394008262163 -0.07566370938190195
Ni 6.371291085811864 8.95152570728349 2.5803079315004323 0.8629982322847781 1.0872989580825145 -0.42924053057035755
Ni 3.142114233395688 5.206051377309979 7.93047104986802 -0.8145370514595972 -0.9780885230934186 0.17090045579972504
Ni 8.637879420748265 8.322980367897992 9.874862736175238 0.6759232236077197 0.13850172775404535 -0.5895894361064814
Ni 7.797031949839559 5.248079367242167 5.944410499972257 0.8046804703804916 -1.3094474134239382 -1.020415308886088
Ni 9.094842173724805 3.9354122628355186 2.1512837232995237 0.11886209914624692 0.8862116942867642 0.3312290496208747
Ni 1.620448588637361 6.97801973181459 2.672908705608474 -0.002406809669279726 0.13229071384732702 -0.8101864878003854
Ni 2.3985185475365154 2.12096121062511 8.426805928188852 -0.7171997137590036 0.46068666489478083 -0.689435913382174
Ni 7.061212694884157 6.5427715949655205 9.712967281294262 -1.767992092275052 0.7369406438313567 0.9008510414664936
Ni 0.7543620523681863 9.026691686186277 7.690126440363783 0.9668420036453219 -1.9858609464045158 1.2149830263957657
Ni 3.904139503711766 0.7716001168632257 4.8190588709414515 -0.18147463177114553 -0.06718061161155527 1.123146563908743
Ni 1.3998039614309923 3.0709849459524943 11.149587724786848 -0.8181414809814038 1.4660057415693784 1.0212591449436217
Ni 6.201221098731446 4.954997007774669 11.554788029575766 1.0563737292585678 -0.31783565903310423 -0.5422813950491371
Ni 0.05547713230549836 5.681555071749209 9.757474820555192 0.19933531410165026 0.41763328534873234 1.648493902206703
Ni 0.4406238963031907 2.676215080705149 4.233083458916282 -0.1490098263742208 1.0285860176223383 0.4189597174696398
Ni 3.151960048656905 0.5952904255588272 0.33264843159686003 0.6812186676787041 -0.6082281342535912 0.7357275973598619
P 3.567405197977758 4.761189418961739 4.6668876665903785 0.33342914259598705 -3.9386446506390875 -0.20129166649707267
P 8.013064541056462 6.86187437478406 11.672027469188103 1.0665393569376602 1.636559612662962 0.08698324815977922
P 8.521873259974962 4.445715021581593 11.381742026515825 -0.017366773413221702 -1.6975837177548183 0.33977591074962127
P 5.5586076576155 5.707120784326638 1.7545038640978148 0.7946467402935734 -1.0586345002682866 -0.26684991201385655
P 3.708318209044281 8.290723955223166 6.267114750952793 1.1477185968211525 0.8690994600865096 0.12207314988437687
P 3.863382839595588 6.339405863156311 12.03440450942854 1.3672075030525421 -0.5463049143862333 -1.3271510013512886
P 8.893202475505216 3.0856469517137786 6.416854660677629 0.9621037176293884 2.5922126895710003 -0.6188560462810826
P 1.4231703731442293 8.366298243147154 0.9850650011218061 -0.3042779749533276 -0.3969464464233422 0.08083651183209303
Ni 3.352746009832167 4.107894985041212 11.807424596568229 1.8580640066624836 0.20880700103751135 0.9692336438059501
Ni 4.308523190458283 7.2249538921359715 8.208491446328468 0.10637990751883616 1.6833192374160044 0.17007127503021033
Ni 2.940678689686698 6.798270964981627 0.19540648982094755 -0.9084219118352161 0.5718963897020924 2.1820826545778487
Ni 8.223018895707767 2.724386265456306 13.543999982735157 1.048952239983516 -1.3809369368234925 -0.07243748913512041
Ni 4.731317902160742 0.7044583382020725 8.036925563470378 -1.7261059935642273 0.05825219877367387 -0.1512014347089009
Ni 5.383313171013813 4.7262882773995925 5.894428835902096 -1.4280583157913278 -1.7718945126532515 0.42692036707761316
Ni 1.7757637724516773 1.4735222992586154 5.9570959188809125 0.49629875767143555 -0.5789432692465449 -0.21819461289999842
Ni 2.9448081786511104 6.360053307978373 5.715623819693135 0.4054735100577468 0.2517793908339793 0.9613462706380734
Ni 5.129474876333954 3.397502246406012 8.143380077072738 -0.5823322403234358 0.6892232831507356 -1.4631510457294028
Ni 7.336969760202088 3.255160153765288 4.139191871516217 0.7224439928770784 1.2004866325518033 0.864139287867757
Ni 0.6431841457705776 6.515201456284017 5.985712813416767 -0.11502395634707932 0.018793478557419245 0.24674851327829117
Ni 6.471465992263172 6.782708823423605 13.125529634757228 -1.445200117677937 0.2483181717582562 0.8249510477040697
Ni 6.673783112267935 8.708145691396648 8.34823520883428 0.6513090246034654 0.19543726459882468 0.07468437618776816
Ni 3.1265892108395934 4.482796904506968 1.871484398671709 0.7151515729807232 1.0203602872784363 -1.0484336484758847
Ni 1.0407611355386754 0.5593416001672828 13.134575535526912 -2.2304294213123526 1.0090839430336687 -0.9032023153074896
Ni 0.5215563121553851 4.743205262527961 7.666847258305075 -0.6530080095724431 -0.10151486611705098 -0.20742683286053307
Ni 8.864231094500957 8.796034208210019 2.324914350639819 0.7976600731986004 0.7954394113981978 0.19662922802439683
Ni 2.6144583412485987 8.85784662616946 9.17452831908729 0.7207681478365523 -0.4598410290650338 0.47269628776114714
Ni 1.8538807120076857 3.9186994322177506 6.083135345875166 1.2149843119473462 -0.40107949475510923 -0.9942985571943779
Ni 4.38947973366173 1.2739983841488816 2.5390863518851146 1.9840771150312153 -1.680669972718615 -0.6861032494645152
Ni 8.042425671580958 2.15588091168822 11.199948930651717 -0.2856243644078823 1.4237879705507481 -0.7112717783103427
Ni 1.5395198846853593 5.659255831341381 12.028972143496478 -1.0375501687941613 -0.8233171116450724 0.9306673534969778
Ni 6.725842512470977 3.5421549969167105 1.531014065393718 -0.6549607624234397 1.2512049848422775 0.48823654948859146
Ni 6.308903323322551 5.769025999790896 4.14966314195991 1.0533226011370698 0.11447965380783512 -0.9329810892318189
P 7.9440324772221595 8.34828624746193 6.312913103505747 -0.08439877526205465 -0.4040848572403363 -0.22568680751198553
P 0.9082110356063742 5.143765692075966 0.7519920040951281 0.8718484835865565 1.4221735748757764 -0.26580141614468417
P 8.866987180394059 5.514751556838392 3.8795203256834827 -0.4838487048335409 -0.45383004698426355 0.17580097842513595
P 2.84009547421419 3.994524273404748 9.811843022678115 -0.08701024474297274 0.5510779102948445 -2.4033517926381127
P 3.727573691294069 2.5348473618650162 6.595565023431675 -0.382829804516302 -0.37140330784691516 0.2961682013619996
P 4.152660501365538 8.273574976332752 2.474410202926982 0.5555048357179465 0.5957202315945677 -0.4315583800702567
P 5.175409641218991 8.517075628975858 9.929529746263675 -0.5078260415847449 0.16989644001524287 -0.29090489608053127
P 1.0398146009895293 0.6905749035062131 3.639094054375006 0.6369082757971031 -0.5276554176058461 1.206857569075154
