# total energy = -340858.49436711497 ev
CRYSTAL
PRIMVEC
9.40179138758928 0.00000000000000 0.00000000000000

0.00000000000000 9.40179138758928 0.00000000000000

0.00000000000000 0.00000000000000 13.76047204337691

PRIMCOORD
 96 1
Ni 5.8738632240060005 3.18577822800433 5.3632951787967444 -2.85347045220906 -1.0064778728693893 2.0962988260428093
Ni 2.2382280788779125 8.857183275005168 0.3805525516563181 -2.432759042155636 -1.773749049363487 0.2893030988110501
Ni 1.0431099573868652 1.4101746990342854 0.5164939943578758 -0.4834473556300642 1.6795399728792297 0.07804069425451075
Ni 8.093080880579445 4.438482322104118 2.0290918094084254 1.39107299681623 1.6319910194556733 1.5093537695377102
Ni 9.252594417863259 2.2755625927112693 2.4381082846684925 -0.30220900823944086 -0.47331052430637843 0.05060496664106124
Ni 4.722341209451562 3.1102254319416627 1.129475753791951 -1.3702095231036595 -0.012137406693482324 0.9648730528444092
Ni 6.744337486855447 2.189047307822187 2.7994717799828615 1.213252159747588 -1.2910015480139252 0.5048404765938596
Ni 7.756402728886546 6.92394931064604 5.81906958345682 3.0149347022965496 -1.1614212911192257 -3.0761030462757537
Ni 9.17512365634554 3.188166283031697 7.778340869047401 -1.3084495682870434 2.48042909453809 -2.8085447953409632
Ni 6.896561892162895 3.246786452699533 0.7018230475269787 0.6124334305841904 -0.12239505200016985 -2.499631121387837
Ni 2.9546351852964308 3.873218414976721 10.775288816748018 -1.9182967262012962 -0.8161848714756653 1.9905200424430816
Ni 1.7279458481286238 3.7745466137475403 2.0744733165406917 0.4950944529506892 0.6447115738916058 0.18053232246253426
Ni 5.056697118657218 5.45573735301359 5.547727301061867 0.3466759803035642 0.2829866696747191 0.663183150333232
Ni 2.095038795150383 1.9260980046513692 3.627301397190066 -0.24771499095661853 -0.1442669123725967 -0.049010368460431726
Ni 5.658176726435859 2.0472682928116055 9.811148266435415 -1.9657767740601308 -2.3641172726175217 0.7551044592245769
Ni 8.951887520244 3.9622251745990797 10.105594511130565 0.13619364844615897 2.1539588997584387 1.2632004666412568
Ni 6.393566049784508 -0.03609723807902017 3.7244369456969175 -0.2932461426191982 0.646441412098519 2.2731184755404468
Ni 1.2519613525755284 1.4065268039531114 7.706882553159608 -0.33559786811253167 -2.7897469459081696 -0.798160924094419
Ni 2.996802219933198 5.2763135650519235 9.056949719119249 -0.34864287422194795 0.9402400847870775 0.42450661542979795
Ni 2.475961777389686 6.825051866422147 12.933302691364174 -0.5508773642482642 0.0014848120756426042 -0.8745728244962551
Ni 3.941964314032249 5.591000926551867 3.1311406571931575 -0.3361881933983629 -0.3612124833568424 -0.2839546900149432
Ni 0.18336501893596555 6.567470986167181 10.394041472703815 0.9973208889604697 -1.3158425183170048 1.7145851374088215
Ni 6.5694359605794626 6.142876682659698 7.452795378606097 -1.3481090916601943 0.7931768406162663 2.60334942291411
Ni 4.782334040670562 7.692047466436452 6.867273431449303 -0.42007069114563134 -1.0453359833871674 1.1863134263752149
P 1.256981909207866 2.821261371838864 6.089050486450343 -1.2462417272997313 -1.394727819959998 -2.9416299800651275
P 0.9554758593156698 4.70781544166699 12.078020783312846 0.3393660769057123 0.2720047167419187 -1.013079951566939
P 7.280070367049937 2.276860039930862 7.043118897586498 -0.19813486603564587 -0.6618760014860343 0.23187108194582648
P 6.957316268489047 0.9170244126584899 1.2010638144017036 -0.5973459401234487 -0.04831977015131033 -1.0973121193441424
P 7.2054483483404566 0.6036109938995231 10.841971962760223 -0.06039469903797341 -1.005100275795572 -0.6223620025518121
P 4.184041640192225 7.744584677038516 3.3531376371820723 -0.44760592045142267 0.3886106728641372 0.6961976575860397
P 3.8270650207667116 5.054337269004191 0.41528841033391045 -0.34952604815784966 0.9109480206911795 -0.34680453546162854
P 0.3422590550954364 0.1385805255605411 12.52910275386206 1.2980803092375772 0.16888651069348978 -0.2750039085795586
Ni 5.87747351192139 1.5017105405557054 12.948274104063303 -0.4838273646773022 -1.638161409932443 0.11313111019974063
Ni 5.018892515251546 0.41002810801969164 6.004037607834383 0.49061636257467756 1.5093224020791427 -0.22416857109524618
Ni 1.103281422643345 8.264729387015 5.069605778313022 -2.763542776708976 -0.23767226200863587 0.8985573603363105
Ni 2.326529704141797 3.4839936508903127 7.603266349808805 2.2475290571071165 2.347933206658492 2.5071762807249462
Ni 5.242354294347797 3.5646704232912274 12.331846588064149 0.557799288179078 3.330149378767039 0.4053948343010115
Ni 3.2182802210342762 2.04733410535173 5.817734529071441 0.9266217226726944 -0.56922012842151 0.0627868534192338
Ni 0.7912585288392897 5.768779401010427 8.28834480676988 -1.3726842098963974 -1.305238003328281 -0.9867695958071844
Ni 3.0841918714267886 6.952502551268529 5.33822342154683 0.015075920496515972 -0.06641545131075659 -1.5603623993750935
Ni 6.60886707390535 0.2387490919879768 8.454654035843067 0.14183670566454928 -0.06093128826773377 -0.8469198386656769
Ni 4.275389445884719 8.895194717822662 13.38267823676588 1.2312465394424796 0.28269484946591317 -0.6933581312547156
Ni 8.222158075346039 8.072359332231745 12.360784361956792 1.0668399188972142 -0.001593826849681126 0.10977787745679157
Ni 2.9555659626496165 9.253346561178965 4.68677517258926 2.4212538697295143 0.7328533611358605 -2.912686300447584
Ni 8.031273503611304 8.027202527915046 9.636101012392013 -0.5083073520965374 0.38606708050667704 -1.2363437514597289
Ni 2.2616009324134767 7.545755591531636 8.316883944705198 0.594039501458035 0.6989127425243576 1.6710170230098835
Ni 5.721751640195909 5.58864107689884 1.2964910574027575 -0.15502415088910076 -0.2119702292568414 -0.42086104825741066
Ni 7.941956484871217 7.892042374082678 3.285780382723166 3.4065211699595586 0.12907606356477125 -0.35213494653560645
Ni 5.688600923556168 8.141039418747148 1.8289455329199145 -0.2691687899550203 0.9192064040452299 -0.4840790756767921
Ni 5.000803468508816 4.23030785589959 9.786365144182902 -1.5540961067504075 0.2858585919058754 0.5137480634961344
Ni 4.579180131098372 8.687960430762766 9.979644352199017 -1.2752422282971394 -0.09857892341717861 0.20455799595317026
Ni 5.972788873604233 4.10641104821992 3.3425972887915973 -0.893903663614383 2.7787853046903432 -1.2234833505572928
Ni 6.402619974947319 7.870737914665305 11.245346422973348 -2.622144701243742 1.4627391550029647 0.6710106167974508
Ni 0.7454661634208192 8.88304760327401 10.231915100645098 -0.16078753573543922 0.43958536413979127 -0.43911253826843083
Ni 2.9096758186001046 9.198064027474574 6.89372161096696 -0.624343294647899 0.7246659402290617 1.102408045809811
Ni 1.5391014651377397 5.964534100714359 3.6584965412089727 -0.8200281564811555 0.550119145926001 -0.15413634896750872
P 4.505197434207241 0.6224333803750658 8.32659975598583 0.02949620968690404 -0.46972332117575233 -1.8503779508721356
P 4.565904801576162 3.3864876718004764 7.801720303836978 0.13739846738753755 -0.2692410379538524 -0.3227109848475346
P 0.5040084153171562 8.580441543782593 7.615678594876243 1.7635929347660917 -0.7146196117366531 1.17894130228086
P 7.9252495014710975 5.608375437144676 9.1086482899243 0.6523914590343668 1.2435215001550906 -1.0092289532519652
P 3.912066617232936 2.2006773238412904 11.739526205512519 -1.669513184770847 -3.1044466304154534 -0.9374833479775467
P 2.8750114135375044 5.8984301050552475 7.080354692609667 0.1419323507021491 -0.9946135173316355 -0.6528064350845983
P 7.106607314865242 4.798223068214852 12.365930902594512 0.9692948360611888 -1.0504671339661455 1.180904596654818
P 2.431604125345925 7.425854545216653 10.613823390627976 0.6872656452037326 -0.05902198706016287 0.5126504595565816
Ni 0.4157237132778753 4.422743723222971 5.105327884913335 -0.20736975437035257 0.47794056687922204 -0.3791150746688761
Ni 6.841862269528176 3.629486373522192 8.76187073385976 2.2693099004276336 0.6259358359459993 -1.8622356215416702
Ni 8.473195308754365 0.16638162286732408 6.664169351371778 -1.273830435551277 1.790717816007342 -1.1609366381733233
Ni 8.706105888254173 1.4639999550644958 9.237390780915408 -0.9700222011455165 -1.258843732334458 1.2401975779881802
Ni 8.63061890473163 9.095217830843225 0.6961894940923408 1.1330095727457519 -0.917141293986085 1.7357293755866043
Ni 6.134029596908706 6.606939706658854 3.6718715297205144 -0.24911958461362904 -0.4716580763046199 0.20280167538369592
Ni 0.23448537956706844 3.9342642468377096 13.902067042710081 -0.753177160294877 -1.1441738168926874 0.4616109764812631
Ni 7.549911183350911 4.624336935415071 6.290984983671945 1.0590335354789182 -2.1079482373562795 0.16131384055255446
Ni 1.1583101079786853 8.88646985536047 2.673012984134067 -0.5225412363077324 0.059426164477117016 0.13613194197028816
Ni 2.6663574559692136 3.3542771343053666 13.586223260862237 -0.380826400933028 -0.7090614009225853 -1.2480376428578892
Ni 9.458014159174015 6.3812873101556065 13.37563347443515 0.7326376455806286 -0.5602660045520157 0.2376648058094681
Ni 2.287709707259921 6.2946309983948305 1.4005275208312113 0.03562957627815154 0.16015761546092416 0.31220828554399777
Ni 4.738869558814202 1.0639067200661358 2.630232012515855 -2.2211618799674975 -0.002597328413531011 -0.5723751291107239
Ni 8.192664655578918 1.5641854447165349 13.151502287787917 0.5762029874972464 0.8154194540645506 -0.5547314478870318
Ni 7.458854833193254 2.721010069646701 11.18209022994333 -0.6038500597905536 0.5382049109869183 1.3345125839226823
Ni 3.022920396571089 4.28792203388267 5.052143831059763 -1.0966749999807759 0.6977596027565209 0.11025070332815205
Ni 6.385574527055131 5.780343604489407 10.634422715686874 1.2695775738121942 -1.0280748823138746 0.046158757944249534
Ni 7.638617085646986 6.971108696540805 1.0759880220746636 -0.06539292358351319 -0.7153744876248067 -0.2583202772762906
Ni 7.8106416637403955 2.267307819821396 4.914429210491428 2.3112021697860454 -0.5841471820449876 -0.24409719169837313
Ni 4.881626360135201 6.488749786387102 9.063114473770604 -0.015226844252083455 1.2076682379019075 -0.1002398560593693
Ni 2.4460358752160336 0.1894272940605559 11.622205010770406 1.382585528170509 0.24914426720397737 0.6794510342553202
Ni 0.8242503552035887 2.109686786223757 11.372727534563028 -0.06754288004698045 0.32229729434888366 0.40386991301605285
Ni 4.063783325802282 6.053174190470311 11.558645139876672 0.8844075511984898 -0.2508648494395099 -0.9581722437854661
Ni 2.928930687482178 1.4745205596929336 9.389362278032948 -0.05910811901606595 0.565065482823188 1.6568674709823787
P 5.957153694428994 7.62571782778263 13.492789197647806 0.9568069880068233 -0.8984491168932205 -0.8853961403640042
P 1.0873547879332706 2.8851935536738744 9.342782982670421 2.7457281171250583 -1.1324043350615853 1.0099151806857123
P 7.857660022763467 4.7356165389737725 4.226542438425337 -0.22174607769668261 0.46034342262274913 -0.528113331078871
P 6.6427511302779045 8.453019064310551 6.197923231398786 -0.994381089605855 1.790816032148103 0.14501587472347927
P 9.11352311878922 0.6975837797638307 4.024965209278696 0.37430814019853603 -1.1454015186522017 -0.16584026766799825
P 0.26534487963134096 6.87204202007088 1.9138615730839772 -0.15483568902737851 0.5303684456616349 0.2714976951985131
P 4.0963887385381375 3.021942610260671 3.599409102506254 -0.1702795343862745 -0.5297971465391972 0.24326184028127137
P 3.126058048737274 1.2601127057594923 0.8637059131872362 1.5583993621114516 0.9871748016654031 0.9144848301998443
