# total energy = -381168.2094288525 ev
CRYSTAL
PRIMVEC
9.30202376761247 0.00000000000000 0.00000000000000
0.00000000000000 9.30202376761247 0.00000000000000
0.00000000000000 0.00000000000000 13.61445204687098
PRIMCOORD
 96 1
Ni 5.2309650375672305 7.912654708971709 12.067741191268702 -0.5425390195858979 -1.957987617033015 -0.6677095774486759
Ni 7.768287303467557 4.411819541684425 8.203319689866747 0.14914892305524638 -0.547943478430921 0.17383074207264254
Ni 5.82156911683718 3.0165067070820846 8.745746728763816 -0.5350136577431303 1.747621756148816 -0.16660619929974532
Ni 8.169874264190833 1.663908764623757 2.59006753003887 0.5957449141849159 0.21749604417107704 0.6538194497301449
Ni 2.9010220847023134 5.128307905663633 4.828664611637628 -0.6016491954844928 -2.0334289259914655 -1.7448678475527628
Ni 9.072096132403379 9.154251604401619 4.078848957681598 0.10865250560309676 -0.6984831111861067 -1.3614734287822425
Ni 5.357686504396035 1.7623892879531677 4.025657196412629 1.2069971799768118 -0.4371147911121117 0.4974177017672272
Ni 0.9283624147942323 4.768821903530034 7.764703233793539 -0.5736843348404507 0.9471740929027492 0.5346305633720987
Ni 6.872930328635298 0.43944805697862455 12.221271089970122 -0.40546399697605007 0.07408376648929177 -0.3821044963145032
Ni -0.12091049271679254 6.404471120607295 12.3860331821088 0.4831215968595292 1.090544975823638 0.45944122252345393
Ni 6.6277754979612045 2.6590764521531516 10.977142183729757 -1.0179647904630662 -0.22349571339793767 0.9344679581899906
Ni 5.564507696018414 1.0005070490473962 9.661741173045272 -0.1478109209701132 -2.0197712259987153 0.3587995030399756
Ni 3.1486047435230944 0.6069895937542003 0.9686978493140201 -1.2113960803754558 -0.449452229631542 -0.41976498697975445
Ni 5.516992959722331 8.993261482812677 0.43466309606423437 -0.35596203359118045 -0.4687663565791217 0.5204113344489231
Ni 3.583623176886958 7.632896350689662 0.48771439677759004 0.790513177741174 -0.8293820868922297 -0.6607159197396621
Ni 7.767580349677716 0.13867921810300587 0.974932065497582 -0.1642739516221429 0.03681691171803336 -0.1944011100248265
Ni 2.0366315462697537 8.939067893607318 8.203959669087023 0.5851941352522632 -2.1370286996620034 -0.9196568613190872
Ni 7.114680618689899 3.499281729354346 3.8119645999934773 0.7599198783353494 0.4326960932191257 -0.3001924920300443
Ni 3.0110092111637243 8.522727923532909 5.150796477799383 -0.6208226830891501 0.8747268335756162 0.18369966444692234
Ni 9.23237930020248 9.412345549834493 7.985937910907456 -2.584498094535562 -1.3374420988646514 -0.8572279054599042
Ni 3.916523995713157 6.22536065714193 10.612860058253508 0.48681807187451 0.1350991298303996 -0.06098913808886269
Ni 1.8699020761501388 3.797792967114252 9.695109391925714 -0.03557815421492583 -0.6009943355093132 1.1086128890689422
Ni 5.329752527673809 5.842852146720782 -0.289210144411736 -1.0868983802099863 1.883183684548247 2.8166820797361165
Ni 4.53304351259487 6.8216668768483535 4.582093082776789 0.6265644706689338 0.13673255166876452 -0.4335237313267437
P 7.5915860641017785 5.186938560102594 1.4545955608921923 0.5094718047182839 2.3023292927764483 -0.5272209011715887
Ni 8.65417481832538 2.060044739546426 12.503376348793966 0.332357249688047 -0.4411390817801563 -0.22318615257731886
P 6.031999493597162 5.84991238259563 11.232862252752538 0.3849594492647951 -0.206686869370715 -0.4225687749771368
Ni 4.000056167196874 2.756822115622071 10.410195010753503 0.5057439622447355 0.4496548325606514 -0.028411975483789778
P 7.740251004486273 1.941788114148598 8.876540621503041 -0.00022085776155445836 0.027450125791152722 -0.5913727532591493
P 3.7020286346615943 8.733455965046506 9.997949791446036 0.19253448912973292 0.3187910809678381 1.330499348998231
P 3.771858925455388 4.569619069195536 1.245162361056826 -1.2477707623497478 0.48880244929439043 -0.19593194484705612
Ni 6.884688086403162 6.460980913676736 3.7861924135443923 1.034631709595786 -1.1259868615710156 0.6667050474435614
Ni 4.458999405132689 0.6354900637106546 11.85964376201519 -1.3909938068388623 1.4550469285650296 -0.3596384540015032
Ni 1.9692383856461981 3.5222019153828406 2.7933316278555274 -0.9096784099501365 0.3092831414774029 0.5477401041708632
Ni 8.682964581214256 5.722474659953434 10.001271544055928 -0.6596131735937866 0.14911472738320125 -0.21048516007088267
Ni 3.9221982300789775 7.34224532282995 8.42447250917342 -0.26475857670246655 0.280251273021427 -0.9762789806885058
Ni 3.2390297144577502 3.1630414840735095 7.690136352607818 0.21324729619705207 0.2919654761345617 -1.1935503104432865
Ni 3.4123915273688894 2.3808994378746937 5.39257560412699 0.9038643743715208 -0.26888982526202077 0.39296097941303293
Ni 1.3884200351514007 7.435367880594257 0.8293135378258844 -1.1083650347241945 0.5754941343556799 -0.38476507386580183
Ni 1.2347599081202738 2.593134407203478 0.604522697108601 0.3192986167318759 0.5842076029692778 0.4998396809451585
Ni 3.0797046550843534 1.3192222819590433 8.952127934672255 1.2415916301222296 0.13622475879441054 0.8148175588144935
Ni 0.12306856218051439 5.387294845357358 5.324489442748922 0.2638898009442681 -0.16372244999404706 0.3562224863414188
Ni 0.7324041262741571 2.090825135475114 8.371730965844296 0.7561910074205365 1.6555292117869296 -0.15592712231934436
Ni 0.73759279501064 0.48403916727277757 1.6920036663534084 -1.6838478562259644 1.2667318768332827 -2.849481899874957
Ni 8.498849629078709 2.5727908816984795 6.589517205300249 -0.05783439450996491 0.9839264699314346 -0.005653084520719296
Ni 8.39988540052467 0.2510197565226995 10.182194041708934 -1.4440174102237453 1.3042828385038634 0.5989544222611491
Ni 0.6360686495754972 7.924691527446089 10.5504099929447 -1.7592220593919057 1.4494905175231747 -1.7884961257656746
Ni 6.938704937161062 0.6940844402577683 7.125368643749452 -0.12563875574844816 -0.13704339804096397 0.8384074303192917
Ni 4.246420260932535 3.5169834801709956 3.435103348069852 -0.6912621679576353 1.782930458752439 -0.9682622810316163
Ni 5.832889679498169 4.075635108544891 1.684434609790346 -0.18396500229316703 -0.44277096095662455 -0.633077074976471
Ni 1.801439182818273 8.781268366096207 3.0834012792433323 2.0689967957937463 -3.239149296138383 1.7106212676650667
Ni 6.646779532074928 8.214635601515962 8.917956020957046 -0.42882066942411956 -0.19944972819232745 -0.2304837146799966
Ni 2.797955663762494 6.428656381838661 2.629985303701239 0.2525347809427651 -0.6161332480332807 -0.6555737134170904
Ni 0.3677573614747264 4.262103472638721 12.376298614463174 0.13706833774162847 -0.4199318515749219 0.043105572940222533
Ni 5.628291671504366 5.90285950064522 8.702398368816013 1.2760752657213958 -1.6374286455314766 0.8563465312962155
Ni 9.067566046934273 8.897273901794808 12.699696486030156 0.6859757227477153 -0.7638390108840973 -0.5150819518162097
P 1.4421206171085832 0.9036571704463924 12.929045318287196 0.8693835669858317 -0.2082526711959381 -0.17800852759941602
Ni 5.70344271976906 2.6119710048932916 6.542369898934412 -0.34453373714958085 0.46067123827581313 -1.6941027011847534
P 1.51732747751458 6.771277815275158 4.3287561921876545 -0.6742090691300905 0.9208128293004013 -0.15766750204921878
Ni 5.727786115400784 7.131991684517426 6.72208127312114 0.5714898982922932 1.4232446964527683 -0.723657039348573
P 9.426577645866796 3.10354574144435 4.361838838945098 -0.5353080490550974 0.2540735861847947 -0.20885379511504676
P 3.7639708094845425 4.625170753839273 9.048981534082678 1.1434863039073597 0.9643693737351134 0.6034237708864124
P 4.390276055141408 9.097211595989798 3.1781982012467354 0.8324470989707987 -1.248026587114296 -0.05020593143042966
Ni 7.2380068469227625 7.296014265783839 13.61921639723726 0.47811077390849915 -0.6296091710325286 0.5523169249082682
Ni 5.255875856635536 7.028264819905519 2.190497248021347 -0.6525284988328633 0.34525133204189573 -0.670241085621278
Ni 1.548907847468613 3.4180006475698566 6.010984361991817 -1.134163226734221 0.5411521665407002 -0.35609830205872867
Ni 8.647161092568284 7.412345372306707 2.253573339515104 0.3256464133267747 -0.32192911237618754 -0.5994989819107095
Ni 6.9771781065660345 4.3741928564225505 12.674836828091378 1.399214909197074 -0.4078332685391751 -0.015251526842431796
Ni 8.221677233343708 3.1561858927167723 0.9065594017941562 0.015244327753580197 1.412976995978173 -0.04803797724483339
Ni 1.1219728725701552 1.4806589006784094 10.732667330977208 0.6944919877488427 -0.7262147727734203 0.26362754842181696
Ni 8.737623271597142 3.2267045332533044 10.336119276411251 0.7483208606438403 0.6430074467163055 -0.6212659412741559
Ni 2.62645425556146 5.530992505165872 12.624422651054594 0.24455870471582397 0.373708301831008 0.16074819785707153
Ni 0.33559096403701 8.014521168873511 6.000379124941862 0.5864742875162674 -0.4469585166754109 0.10299067933162907
Ni 6.797090930627865 8.65557012185796 3.0545789592720296 -0.7853241773410667 1.6532005636537528 0.6854969833390839
Ni 9.11902484121578 5.076197969733591 2.943254201824054 0.5213641852804957 -0.6421772375055262 -0.0029950780725819387
Ni 7.965201840008626 6.935765497719096 7.392361835113114 0.9969362519275412 -0.5017368979678714 0.5523084402678359
Ni 3.028152840567343 1.4409764682118684 3.281382757885647 -0.4084205085012128 0.0382389888765406 -0.31767110843078195
Ni 5.245634328706408 1.5019140244913594 1.7387426138853777 0.7276275939605469 0.07581694713031459 2.4797096998735615
Ni 1.529782887048733 5.067528483784501 0.9495096351339966 -0.34984975004585556 -0.5631389552244366 0.26704505874379814
Ni 2.3764530706175426 3.013576569663669 12.124172847340317 0.38194045993281317 0.0017113262641518913 0.0736433365177635
Ni 7.6400775128706675 1.380634241439611 4.763587654878154 -1.1206284254725798 0.4257967949961312 1.5473603306884707
Ni 7.1887247261520795 4.993977383570497 5.997383873358593 -0.8719978646802272 -0.17617584526605146 0.21298118701985902
Ni 5.359137620069918 9.216658880402093 5.299915356933144 -0.08413780829118413 -0.8283790995490121 0.9098704713562847
Ni 1.2354575598865631 1.1193403999053564 5.755128483425199 0.04457135885247162 -0.5928025437271403 0.16957710900261116
Ni 4.321785255738891 2.395568729013872 -0.043513005764647075 -0.5329410914848177 1.55718014499237 -1.2947957249490347
Ni 2.3542305363553377 8.050520000014043 11.92037853418128 1.3212624037809955 0.5424238341642722 0.8056258650128963
Ni 4.448088131507923 5.246797081650224 6.474965575882595 0.34956152938147544 -1.1620051886471536 1.2238823857679244
Ni 2.2715262449676175 6.591051108983731 6.391141320859392 0.20824572921740264 0.5104886760185725 2.1460249896233425
P 6.505267847800787 2.0463707649271536 13.730991372625082 0.857117090913653 -0.09117414631267523 -1.0513413090409829
Ni 4.609227085473672 4.229202215340513 12.075473963446253 -0.5571819663100533 -0.9697139258764783 -1.1673111742410993
P 0.919481772910546 7.063017179890281 8.214006784723946 -1.0622558990709576 -0.6757980108837651 0.16582998325535311
Ni 7.334943234342787 7.563261402390429 11.109909965866404 1.0316219762351846 -0.24713495008343245 -0.049035822381728454
P 3.586850979058991 0.661990598603746 6.785442936737898 -0.2727426233492077 0.46491587248478 -0.25662566318268704
P 7.496444967227006 8.585218917745337 5.585478177910718 0.028148437409757972 -1.110092301827946 -0.06458405452897265
P 5.594646252322116 4.807992724701296 4.4929052809743535 -0.9577282142695117 1.0465030071120751 0.9349099308234157
Ni 1.5671398136276427 6.026232238995837 10.555039610065798 0.9351415872182476 -2.090611802960361 -0.1434773265917658
