# total energy = -340893.4665760289 ev
CRYSTAL
PRIMVEC
9.02066447466705 0.00000000000000 0.00000000000000

0.00000000000000 9.02066447466705 0.00000000000000

0.00000000000000 0.00000000000000 13.20265428141769

PRIMCOORD
 96 1
Ni 6.28615813912797 1.8477297228317795 11.491365569377033 1.1972773815858864 1.857702509558007 0.40055241860704566
Ni 4.573585028937653 0.5688791710352499 5.821776147039609 -0.31154648359028275 -0.6532414657394878 0.3291433707364396
Ni 2.617210425731197 1.563921583812513 4.75964885827676 0.36009842435705725 -1.1610129999372132 0.538432196506376
Ni 3.5510656728175416 4.236473784792683 4.787229539258624 -0.3597212435232966 -1.1353842436255157 0.6913603840983964
Ni 4.919762040666194 4.44169389675913 2.5971737262718624 0.9573446056778481 0.43344274157716317 -0.32705332097663026
Ni 7.1928521661206455 6.2037994744135245 2.695467394405593 0.4062247864014745 -1.0477129682597763 -0.7618903717981589
Ni 5.123223123101499 4.437977383083078 11.68650057869827 0.6637019989511795 0.12990498722396984 -0.4467726259168499
Ni 5.625439585238637 7.8598761643292985 12.267100298809476 -0.2627194347852508 0.20701777034757252 0.4610677023832834
Ni 1.888331732676218 6.574530734263941 0.3869828885853071 0.4611584623248768 -0.9980084019457974 -0.32317866851257243
Ni 2.792490953011198 1.6740548737904617 0.4632598214541367 -0.408381170622845 -1.016679238882423 0.013207242718893382
Ni 0.497766568456565 -0.24119452104434405 4.620282301624101 -0.20713346998983034 0.3973477956268189 0.11496250698152459
Ni 8.771224854081302 2.228997118540518 1.2275455238049182 0.13076322145920707 1.2434654501061746 1.0129387980033846
Ni 6.923612399884931 0.4754250892782223 4.806347033029636 -0.4898437460747112 1.4373178867163825 -0.8628185121738043
Ni 0.7998063720162881 7.506148856613245 2.3860360585493736 -0.5097883075174381 -0.9687824152011445 1.053142881026096
Ni 7.758014823479844 3.8278647557050314 3.7754041806214245 -0.007972219572199174 -0.08921676547598828 -0.6239990239346027
Ni 7.72836390004979 4.021358004130538 12.617882359643902 0.3125492138231843 -1.917974566975187 0.369131481093603
Ni 8.078131136154713 8.84521234236037 6.759825100941478 -0.7993287191502749 0.6389890695855318 1.188105228168315
Ni 7.127118585641547 0.448230492726783 0.35548543518076914 -0.9678084813236494 0.7457199326858835 0.07214361204378543
Ni 1.8662671878907264 6.53364006316311 9.248169023221289 -0.5977881698671897 -0.04754046878312458 -0.49996592211037766
Ni 0.16701489261649025 4.95867718629359 1.3439111907216637 0.013459982159647789 -0.8538448479202844 0.8477631605025787
Ni 6.303396628533152 2.0036338632764426 6.868390599470645 1.1230712305861175 0.0867446497864119 0.7925839442272737
Ni 3.316880207904975 4.288974050799045 0.34801632517161674 0.9404267468765869 0.28969442071219786 0.14699690970925006
Ni 5.982197836146812 5.452766029930431 4.638210871845345 -0.4336396880793177 -0.48675045186136817 1.2491277905982747
Ni 5.404586662105693 3.0651856336593584 9.157453615134283 -0.4310855541988963 -0.22781825203269154 0.5347681173912273
P 0.43153053697805854 5.5593271368605235 12.342909961269521 -0.37912150242677933 0.009180895168319672 -0.45411543943516625
P 4.106666426058743 6.1118067402669825 12.690153215513861 -0.8920879505618828 0.5592918135642045 -1.0832139893798636
P 2.512453451653556 8.458451362115914 1.3400431298860058 -0.6241496905798541 0.9444368964772445 0.6562442571215537
P 6.143126486585555 7.962405034334163 6.078580927589796 0.6311628886728936 -0.8654585208998128 -0.18343149838720024
P 4.651866353405556 0.9559829365216713 12.554469796079482 -0.08335053650319839 0.8808769123374119 0.14065682642383517
P 4.117671636458702 6.25480231015235 8.093424770344951 -1.2611482120979185 -1.1192068625347047 0.9410535818273084
P 4.88675543013058 1.1266809663564428 3.634347151486017 -0.8078051320524023 -1.4681446422892521 0.6900401226250762
P 0.08880483139625811 5.605936909103629 3.5475927170765713 1.541530868490887 0.6927932598901811 0.15767084448332847
Ni 1.3257219233032398 0.8839529323875144 2.647422434478363 1.4349349883065028 0.3140353114504076 -1.2492630306245582
Ni 1.874494033697909 6.3809021758745015 4.938083009782847 -0.20747696937217816 -0.03148624353373933 -1.5704426664292308
Ni 5.835648124542114 5.486539396928337 9.515614579335239 0.3420330822149142 0.6061301140739819 -0.8265587585108216
Ni 8.82239908244111 2.2047225110107727 10.014899325587143 0.07617021670467526 1.2234360422591253 1.0652964856694944
Ni 2.3287295826240797 5.380618757160865 7.050375284430359 -0.045376628362586366 -0.9904745554625976 -0.4434160507397912
Ni 0.3776194390810798 9.110239458385607 9.112814858032483 0.9833443721757194 -0.72243525112633 -0.3636437185061544
Ni 1.5998057862477886 1.133175844625271 11.525257107076774 -0.8243789772506834 0.05733791448952061 -0.17886110540769842
Ni 4.08351940156178 6.872456212853647 1.6701886170876565 0.7326512724273834 0.06531784737120364 -0.19776385584947231
Ni 5.367250132724194 7.919629044402519 8.20274259227359 2.149356367989421 1.111829082013395 0.04571807086240513
Ni 5.461489012272038 2.8001404763055957 4.8008543505603445 -0.27500236591766186 0.7525899203328393 -0.10903020065748964
Ni 0.7450626668079027 7.364840150944921 6.872311882225451 0.17262052381462528 0.6102878449960973 0.15547769348675158
Ni 4.968121821776178 4.693289243697861 6.888471500184866 0.09128907462398472 -0.6092938565139442 0.24461681164726903
Ni 8.082641468285843 7.1844900103495295 9.160727214195058 -0.48053609552054016 -0.2809655254796322 -0.6568831762571332
Ni 4.811261490919715 0.5172683425251479 10.332000932265563 -0.9207161558215369 -1.2405634459680313 0.010275928004711334
Ni 7.849403173120813 7.04535528476841 4.957292514329333 0.0035234397722261903 0.9796746366336161 -0.7306378415417804
Ni 7.295985420631079 6.020869423839126 7.112560135588684 -1.572404675251608 0.5020647136209353 0.42928115400030586
Ni 2.4240960452047062 5.213267393767392 2.68118136841345 -1.1143536482074614 0.19173976114257946 -0.3791484990099729
Ni 2.446007238697739 5.100653421117321 11.20521115558315 -0.18177082285532567 0.1621489348593401 1.24132860626883
Ni 1.237066834933735 3.1285197174446955 3.691277465711575 -1.2051102473667439 1.0248566324868928 -0.049106270608347685
Ni 3.469248247958831 2.621341889963313 2.7431154451052837 0.5414126192909385 -0.44349498360684264 -0.276286374836408
Ni 1.0229072446833882 3.4096306778495458 8.075654061748295 0.657710557254435 0.2079701069585128 -0.3105974894134522
Ni 3.49944041124462 2.6673292363723213 7.206536513806497 0.2312031093445244 -0.07456996209709094 0.08129699640827935
Ni 4.088534890891598 7.045247036797264 6.034616014108386 0.8048815306477041 -0.23842868055868613 -1.0730038816160812
Ni 0.347969417717453 7.403223077380843 11.098481362231354 1.201749301314311 -0.5336746272167325 1.2477717907910124
P 9.283616625506271 5.657932017911302 7.92664892533141 -0.16920789858865054 -1.8805336485199098 1.2050017468133376
P 8.449448739182177 1.7508568093193548 7.795044650276427 0.05045301444422924 -0.30687684602875537 0.6033425240265158
P 1.9250277948950971 3.053260315504649 10.19920863572724 -0.4758428038099289 0.9585370833240524 0.02493738667162802
P 3.9533421955930863 6.063952116355686 3.9859870774917843 0.38018439647365493 1.7789575901476202 -1.543560497326406
P 7.03657817844123 3.729377143289662 10.479302967269733 -0.3186653540232512 1.044065858425492 0.3645096660508754
P 6.316214992449825 7.595877404029959 10.25007886770141 0.01986845678915288 0.17639747435855427 -0.09932248645142248
P 2.3046173470510545 8.415215318306895 5.731549658955617 0.7739699286705122 1.2860722290331077 0.20686607526105666
P 7.0220278469862025 4.039255002026864 1.536405851613337 -0.4438672793445969 -0.6410246119583219 0.9252220141116906
Ni 5.2511541836688895 2.8050657589927903 0.6315727876579664 0.05663677465743794 0.04540182517356697 -0.6133937376149307
Ni 1.3654579493785008 1.1124553788148568 6.945639057880522 0.6871538022162166 -0.4961586325491455 -0.02094214946930587
Ni 6.963068785368062 0.8170719234142563 9.160173345409355 -0.6447485977771283 -0.27245157447135016 -0.9883945330051171
Ni 2.6036072640237076 1.215209765426276 9.238517814527095 0.6145746452969093 0.19011353839306613 -0.4945990013715095
Ni 6.513560064515317 2.1323858042916988 2.6116564027449227 0.4077869886822718 -0.583008440454854 -0.5796096991859502
Ni 3.99093130357393 7.093588776578722 10.22773919265592 1.0705541345240077 -0.5103387807042694 0.7694632990494104
Ni 8.210256805604054 6.967218290928702 0.4992098747385268 0.28053717969296205 0.5960737582792444 -0.6108935969008963
Ni 7.62560049277411 3.810698431613948 8.384543255682354 0.10182031317261173 0.419840063192064 -1.0890177405458341
Ni 3.120761946179151 8.269062515929736 12.418126064021108 0.8646283116890335 0.24648703208678835 0.18892491740160366
Ni 0.09122958594995396 4.964179791493569 10.154320006225376 -0.15840026645018526 -0.9735710948390395 -0.027197386350398322
Ni 8.674135444626582 2.277645560906893 5.634708317768111 0.0674354079348387 0.6216338661365359 -0.43258116490781623
Ni 3.5952037830527868 2.713695450680345 11.510998143077417 0.2691636477486978 -0.5770594219602706 -0.31468194389547094
Ni 1.1847108995555702 3.4016113073203957 12.624536001603746 -0.5381128654937443 -0.18443654261294687 -0.7837138954311536
Ni 3.0512487073741648 8.229470820482671 7.874498661098425 -1.1170317092602566 0.8902593819935765 0.040709304793904076
Ni 5.592469057360073 7.619403296425936 3.704876117086934 -1.0507149883108937 1.3373492820405293 0.05298195151367005
Ni 3.0496881324567933 8.30314258551256 3.5139393249133524 0.6187323762190248 -0.09324516990909103 0.6762906342494674
Ni 3.476798543946344 4.494942877899258 9.157625007755266 -0.1453316061916852 -0.6069762641243611 -0.00014012512229008125
Ni 7.293360407330762 5.967485132735064 11.568733100555168 -0.37426186034163283 1.2774184100128516 -1.303206060499917
Ni 0.5284368269482536 -0.11254902386738244 0.306463537313936 0.7509888943943066 0.531470163366246 -0.37137502571214104
Ni 4.663412803661251 0.47226966091928324 1.548539547112505 0.28332965483643463 -1.0798072776911596 0.053447835406495045
Ni 6.06931039092747 5.631726988229434 0.4952182308024762 -0.9385626970846546 0.23454580056451219 -0.32590532341511613
Ni 7.860904520055197 9.09995590112663 11.219470119582509 0.04287674475886809 -0.6797179147634617 -0.013618362114382998
Ni -0.2411205515973935 5.031762608146431 5.620527833547837 1.6418535140720498 -1.5016396887229042 0.7162370927354181
Ni 7.613170017420713 8.741474703344362 2.651198484538546 0.5428799478650844 -0.6533286261366554 -0.26712013495610776
P 8.522010962507807 1.5362552065201573 3.3806319484456546 -0.8990751805129935 0.7782202193064338 1.8311779809049171
P 1.8316368577879054 3.3404061003009526 1.5325901106304007 -0.7941412614120646 -0.13452063161911026 0.5131158292287744
P 4.841300302913045 1.2300487581376958 8.27339063064277 -1.166974616837287 -1.2120655956386543 -0.6651762695038609
P 8.544120610614609 1.7422150129561085 12.406639150149545 0.2808889066054259 -0.26236873631405133 -0.9837943152289443
P 6.297903043997435 7.684370120442742 1.235487316621413 -0.6946159149212167 -0.10811051705669766 1.2086311160358088
P 1.9238821705337898 3.3348854537724484 5.854716906726109 -1.464545612084084 -0.14090082411384122 0.8726900056512454
P 6.854829834885188 3.9809634695641307 6.071319292858675 0.7969216523706791 0.2097498245667549 -0.20313694723592757
P 2.2314236772270664 8.314346250526288 10.46120210236108 -0.7092413781438753 1.1343648012220657 -1.4632423198916285
