# total energy = -340897.7370541488 ev
CRYSTAL
PRIMVEC
8.99999190423477 0.00000000000000 0.00000000000000

0.00000000000000 8.99999190423477 0.00000000000000

0.00000000000000 0.00000000000000 13.17239788497753

PRIMCOORD
 96 1
Ni 6.306780362165696 2.0182661958067762 11.351023852953807 0.6050515362978225 0.3638604625026508 0.9266615747716944
Ni 4.7046917943243205 0.39758094458957516 5.838125581111314 -1.4136164293343847 -0.570631921167372 0.7676267600613037
Ni 2.664465618148278 1.668760508241179 4.886775131554155 1.0891349828499888 -1.0458931414422183 -0.74997587974876
Ni 3.5161798567734603 4.323164135384196 4.9720401553330005 -0.6587994194432396 0.30937672963247365 -1.1404493168532488
Ni 5.091673448388943 4.323272135287651 2.665461017258459 -1.0869726850913475 0.04903942192615426 0.1960658993217591
Ni 7.338863439553358 6.025089613978138 2.5188124483523433 -1.0986624627244497 0.42540135932992545 0.902031177817524
Ni 5.0000625302828965 4.506637971371018 11.238242253772915 0.1292465277043645 0.6002587428948695 0.6798333572954034
Ni 5.737890870714354 7.793525033116701 12.475973347325185 -1.583771522327653 -0.261596119814085 -0.6738635128652136
Ni 1.7161724658581012 6.6674910397147915 0.29769723387884456 0.6398514175858271 -1.013905275681712 -0.0175637199153762
Ni 2.507496758467803 1.7246954582391236 0.37868816147844314 0.8309355474222786 -1.2016881090590723 0.39410177788569545
Ni 0.7304816469989043 0.04107056328569931 4.708289091108581 -1.0431628869952485 -0.28608690586659763 -0.26415436745956444
Ni 8.598637313400875 2.367618883509145 1.399409649022596 0.14088411194329284 0.1967043042367064 -0.15294489976256886
Ni 6.746474969108511 0.5913597713644343 4.735200867051277 0.9192570547775072 0.9717214432248104 -1.19461731825522
Ni 0.8315641566379898 7.288805484301778 2.551993618690625 -0.7385612101539152 -0.09111501093996566 0.5331151551688367
Ni 7.5760132275575165 3.850898557557622 3.85628505274246 0.733064191595086 -0.406937496197783 -0.2776991960235346
Ni 7.5912322139527735 4.092341341724133 12.71289183553611 0.03423655258536684 -1.1671962459297898 -1.3581078547441192
Ni 7.870915963934452 8.692750229270306 6.642589861974757 0.39585269913853116 0.5491048457288736 1.1115634870568338
Ni 6.752315963887058 0.623573442567595 0.37519886459763807 -0.13653072007060357 0.5541346948432974 0.37966631918665583
Ni 1.9839312264999123 6.444660238910429 9.226685551968307 -0.07652734293377787 0.0348153079069723 -0.891368298787039
Ni -0.021004181223685206 5.008468522768509 1.2699096647868073 1.3398414523347635 -0.8249569612413405 0.36704965886390983
Ni 6.335373336605515 2.083813137212252 6.877322252139907 0.6921103748905435 -1.41385914147281 1.042627840427385
Ni 3.3374130165789024 4.2070912391455 0.510264443858162 0.28912929223734724 0.573467076623322 -0.3977411744104956
Ni 5.883555740499831 5.416006158457476 4.665149429672515 0.6108365184107157 1.3530085858443408 1.001531070387075
Ni 5.405566167790121 2.9632383510656997 9.307036580139933 -0.4757900961951226 -0.19448055711251022 -0.6256180475952645
P 0.2584977689205101 5.572579018491949 12.257192542900398 -0.11219985663472289 -0.1947556651507678 0.4038151485187174
P 3.934508482816014 6.1459415059447355 12.558775073306053 -0.4518837218911702 -0.6689002553226674 -0.09625516038000842
P 2.3254359212178555 8.436097458700491 1.4801692768289612 -0.23436839444638347 0.9442072969649415 -0.46970558056393946
P 6.252078411065534 7.640399170000847 5.643805854819983 -0.3533153399969528 -0.7276833868991467 0.5182166407904495
P 4.663174831437672 1.0725830411834383 12.718108230873007 -0.21705715686144553 -0.11423411345593229 -1.4680975911014007
P 4.043507385378381 6.1857574703519616 8.18764638079892 -0.5660443017966896 -0.1443766984775836 -0.7097777102633196
P 4.719181781371254 1.2605928731153877 3.738050358436266 0.31197457226663694 -1.0069465849756918 0.39762701743013457
P 0.16532805220792374 5.465686114046963 3.766963732589668 0.9333377012402895 -0.2677161166688938 -0.8245954641368638
Ni 1.470886685126969 1.1175380009967502 2.618079659614182 -0.5869548266971117 -0.24823846756025636 -0.32165066190382025
Ni 1.8419923533836473 6.476718210252775 4.920628601291447 -0.4792137771646909 -0.5263387556769515 -1.5312364285434144
Ni 5.998548637703973 5.558386031179518 9.061846199323517 -0.1096279821424886 0.7140408564150477 0.7439011343095899
Ni 8.513083389880286 2.224249011672096 10.054715411765716 0.32440199939671227 0.3220247574137873 0.30605666412030513
Ni 2.4270008304257082 5.111491430673009 6.947109089755202 0.3277164084819259 0.8528313190541055 1.4812125312168039
Ni 0.7799141028096382 -0.06070224573630543 9.056050204504745 -0.5914866531291941 0.18332685448853586 0.007106529137794213
Ni 1.3655417792981768 1.1677579561035132 11.31693368342811 -0.06714024529192308 -0.21142386983506814 0.14499196346407933
Ni 4.041977386746096 6.922739811539685 1.4805508764878368 0.04815290555614287 -0.09365731774584515 0.19655749424619695
Ni 5.675907926122907 7.721939097109677 7.829159601261811 -0.7214590032559898 0.8808360317971475 0.30522079848257117
Ni 5.373589196375367 3.01376430589892 4.932852390364207 -0.027153677596656465 -1.0455013053204383 -1.0461772483415401
Ni 0.8034490817709616 7.365782415489617 6.880075349678823 -0.18178650658460951 -0.28075932300609713 0.9574104259187769
Ni 5.1001334408262835 4.486549989328313 7.015078828994861 0.6233446781800555 0.9357090296859434 -0.024948699525537677
Ni 8.113924746701066 7.22742553917129 9.212761664415318 -0.4139856612938161 0.07530066961552838 -0.5115978499223512
Ni 4.658233835854587 0.38163385884518924 10.451204657331198 -0.8349361839412395 -0.0633362981648006 0.33393667836002494
Ni 8.160886704720257 7.114907639754668 4.667955627163964 -0.04445797320305892 0.5214012091660182 0.3466857504955771
Ni 7.238567529211105 6.090834555206616 6.990130851296662 0.550480900140794 -0.9421714974818354 -0.6075725029474633
Ni 2.2704639703590543 5.216908336437439 2.592959782069651 -0.20813105801640927 0.10405794425387886 0.33258582075908527
Ni 2.371641879912859 5.098234442523858 11.35126145274141 -0.39170962350443506 0.01685512388412581 0.28918611361721164
Ni 1.1068640105385743 3.2672490793007083 3.826041479778165 -0.5026627522162505 0.7152364193850456 -0.12533459424446802
Ni 3.427637935923938 2.5996296761072175 2.697878088279794 -0.20490200955615034 0.8688693463535745 -0.548259467009443
Ni 1.0277180812896722 3.327315025605822 8.146179817867218 0.0685019015261401 0.12428506993403111 -0.1920135836292564
Ni 3.7255106696458973 2.6844276003036187 7.027381817996822 -0.794486046345993 -0.379058767509644 0.01613521499896576
Ni 3.991523431848513 6.737483977145849 5.81405960262467 1.4583646800843528 0.8013910009959424 0.671190851129057
Ni 0.73626324183055 7.319018457293427 11.071426502894893 0.401415023717657 0.21877696776602967 0.6405939521788064
P 0.17102504711519634 5.59111900191846 8.110469649789689 0.46583838429904934 0.15223116152499588 -0.3774464287172016
P 8.455231441596007 1.4559826984501234 7.851605581196626 -0.2983312704515894 0.16616114134252674 1.2439822418415931
P 1.783861405348776 3.1152212152033174 10.204946877468966 -0.5628391645958307 0.5424642004839044 1.1521200683229578
P 4.044848384179619 6.06464457861868 3.6042843780139884 -0.809290201238361 -0.19471015662481306 0.37633931169595186
P 6.969944769341652 4.100711334241927 10.435476271391309 -0.13327056126209305 -0.5752691628290673 0.14027064672901005
P 6.191814464937419 7.880698955189121 10.156130021107929 0.8577205288256067 -1.4043715136973491 0.3113865609736508
P 2.455422805018389 8.408521483351546 5.818814298374294 0.4218262403841574 0.7696910987895003 0.28771981348433034
P 6.867722860721112 4.009739415564658 1.6538997215257154 1.40111058355789 -0.6759623043757714 -0.4615186738777729
Ni 5.3457792212356 2.846535455390181 0.48528586618731806 -0.29724266537310096 0.43156635049005676 -0.004693805931243529
Ni 1.4270567243079841 1.1231629959683858 6.929919105121883 0.7107693847526275 -0.48929610110135735 0.5292883252235788
Ni 6.752099964080146 0.7423346364031348 9.185705888601348 0.21683295666578142 -0.012858858240539145 -0.8650147484941748
Ni 2.7885845071944018 1.5010726581427545 9.237710542112712 0.5077969881190222 0.15068515719411468 -0.7993377180113395
Ni 6.494313194524051 1.9398402659142437 2.5462246238477153 -0.5610393923829305 0.055328597368975684 0.537154615345533
Ni 4.1358923027925245 6.7591469577806125 10.427099078879952 0.5679767429327122 0.9120983322455389 0.031926673505267594
Ni 8.022547828385841 7.0751186753233055 0.38399545673408075 0.04827323318409106 0.20032364615684856 -0.35761191048977764
Ni 7.593761211692021 3.774947625452609 8.26320311325632 0.27142853252347443 0.15521492674366819 -0.39361326828505117
Ni 3.080220246491812 8.395876494655308 12.43056838791414 0.7721187343943864 0.2868415246444351 0.21159381975402913
Ni 0.10277180812896723 4.7576747469611504 10.152612824252065 0.13596919114017875 -0.0443885534177042 0.4635459887204469
Ni 8.69796122461203 2.325894920807541 5.8254796924158825 -0.5080648970684282 0.11141464172926617 -0.6626658443771813
Ni 3.5879187926437126 2.659524622565194 11.424670787118439 -0.01461517881001354 -0.4242878145507725 0.2962517622147414
Ni 1.083680031263481 3.3141930373359907 12.578981855242558 -1.1925241831716173 0.595629214542658 -0.8603638799857247
Ni 3.0131793064218693 8.408368483488317 7.974464471369103 1.2909082169691704 -0.4038010074513304 -0.28869271892056086
Ni 5.508409075855529 7.751540070648412 3.5767804026006784 -0.08211692120641341 0.2103596902366119 -0.3642384146673598
Ni 3.0606452639905197 8.287309591706764 3.6360561496121773 0.43800696390907795 0.21598115018844738 -0.10790405747284643
Ni 3.384941974091235 4.297415158402036 9.19183128312566 0.2745889325293271 -0.2505329200213879 -0.14336651204551437
Ni 7.212656552373764 6.202497455387548 11.366567739058627 0.04842775648408434 -0.6183760213208706 -0.5149459404589778
Ni 0.5101888439257434 8.888608054186681 0.14284787230368137 0.38049061486016406 0.7451218940905683 0.6103148415792908
Ni 4.4102210575612055 0.4149833290330226 1.6135923575577675 0.10575564367127593 -0.13574961893020493 0.5304766891047251
Ni 5.770866841236071 5.4023621706542775 0.3846380561596404 -0.3311938255075651 1.202141651656723 -0.0029146025436336902
Ni 7.921018919145805 8.777575153442571 11.405360404380612 -0.42580245142308604 0.2884101546831356 -0.7010033065047993
Ni 9.285921699015205 4.795609713049862 5.989608045696256 -1.5238589051324207 0.14150477624642724 -0.47565048529346465
Ni 7.965505879377477 8.805331128630609 2.344897503820519 0.10641564585277802 0.11648125761889619 0.7917550205680751
P 8.45225244425903 1.643641530695843 3.6481485388024004 0.06802907565477961 -0.5744757203934945 -0.28676490577022873
P 1.58131658641012 3.3891089703662227 1.5542905105696003 0.7142663421622925 -0.5801347184514848 0.3257561994317616
P 4.776106730484207 1.1846059410425562 8.151172113404444 -0.3818928945243294 -1.4843361644474502 0.20785029355119689
P 8.30020658017773 1.6853114934457196 12.445821574278828 0.9138379406444649 0.34596481316915256 -0.6810893411896914
P 6.192633464205288 7.6647981481898135 1.4522171018163115 0.47356814884313925 0.03127644151577839 0.3360573242474535
P 1.8304543636978283 3.25415409100674 6.00287223383897 0.10673883352015165 -0.41727744467121036 0.25263505396605523
P 7.094972657575191 3.8757745353201836 6.033722406261006 -0.6483854231987672 1.935809024053447 -0.09229540440131201
P 2.5478527223923058 8.511247391521543 10.29476949717363 -0.617993184060155 -0.3434695575511246 -0.36827273263773347
