# total energy = -340855.1545445823 ev
CRYSTAL
PRIMVEC
9.37424704751982 0.00000000000000 0.00000000000000

0.00000000000000 9.37424704751982 0.00000000000000

0.00000000000000 0.00000000000000 13.72015811745660

PRIMCOORD
 96 1
Ni 0.5134697056365152 2.9981186246373492 6.7841380429633 -1.7650517786998052 -0.318089169804807 0.5796384955413566
Ni 7.350122281657638 0.8268395418884561 6.698853953816537 -2.5796932169477507 0.4597417844830082 -2.8619422371254966
Ni 1.3139226163841 1.329155768154711 12.228461798656081 0.21842961172893993 0.3268034097493533 -0.7540292238825271
Ni 3.0532766954178268 3.1424914064337686 2.342030996288389 -1.0818839577145303 -1.7695080146989461 -1.363194525238407
Ni 3.8102659088211417 5.625991980147279 10.099600247259088 -0.39298334801053614 0.19238330826384933 -2.6702101892924013
Ni 7.397818451632326 1.631962702612729 1.1752287535677644 -0.9788829939702561 1.5793422829117059 -0.757389912824644
Ni 5.160682469724004 1.4838964674023893 0.7811897700870131 -1.9724343885859643 0.5308063045300019 0.8057446499789479
Ni 0.13576441055275645 1.846211123361847 1.669633115160545 1.9851173833702718 0.3228580519483601 0.7355836155828299
Ni 4.822094033537725 6.861124048450157 1.0807888371383216 -0.2193922327525254 -0.8388067226402394 -1.6198214739726748
Ni 1.377273779255355 4.195584967516033 9.77381515795792 1.106698959875681 -1.597543893521397 -0.9424378637693447
Ni 2.0964941505147983 1.2042439236357 0.731138789204769 2.1284335017938245 0.1891033519609969 1.03351636504442
Ni 2.0090043009916516 8.129244092802745 11.410575600309848 -0.14290936990343775 -0.4022516606863395 -0.8744095594455134
Ni 2.816408216070257 5.420658468526685 2.8423917545796593 -0.07734726773191195 1.4488757667573113 1.4748932738669955
Ni 3.433158690711515 6.7592728521500405 5.679761724911001 -0.04244351387619142 -1.8102384025387728 -0.8617409628389094
Ni 7.9106553955799095 2.054085055985417 3.351409630200259 -0.2302654280216034 -0.24571955779314456 1.1672571810747123
Ni 7.711087046014039 5.145036851074681 2.3490419958017674 -0.3183974450738452 1.1187540912680023 -2.5394811635052394
Ni 6.046351975038198 5.840043541704285 5.2549030287679495 -0.28890714892421215 2.1685349978004007 1.388739720697363
Ni 5.853186236339606 9.302909221930301 4.009469600169242 -1.2384548842654606 -0.4135349469096426 1.163397698119306
Ni 5.969455024900153 5.748035305009793 11.055196012461096 -1.53599451205369 2.4474755224302043 0.44565342471074215
Ni 8.921002389232028 9.323082601998212 11.505189877738017 1.0899939884161745 0.20348147505953987 0.3699596334218532
Ni 9.197927027050872 7.817006665617813 0.1815463592403321 1.964782271357345 0.5852141898569212 0.6083512900950168
Ni 7.3080506600290205 3.645738495451298 7.174243592300698 -0.38273930168502474 0.11263000219360603 -0.20484518817628594
Ni 1.4365096475867345 2.878775082980949 4.470014180718669 0.7647103577454571 -1.6486057451942187 0.7526349146381619
Ni 3.7568420737807027 8.773170510202775 1.5437238507348305 -0.3026023870231176 1.361842382085887 3.2679356242424555
P 3.9496140940950695 7.657353860814566 3.6044918075801053 1.3933378815910067 -1.1900777785136538 -1.5535065527955245
P 3.165683294114071 5.091894243451545 0.8027046049354621 0.1104731037516033 -1.255715471118121 -1.2918055319724593
P 5.989928380879855 2.504217660121542 5.2878038243182965 -1.0895229623170268 -0.9765322343498923 -0.29982585271924495
P 2.449978265570923 4.664653551083933 5.0464253946219015 1.0204338208288488 0.40902266086158595 -0.39921261674969954
P 6.316442786616564 7.260560723493689 12.642055461886676 -0.5893757774337786 -1.5358111923982907 2.8703502586835343
P 3.168289334847751 1.4845807874511614 10.877094689082734 -0.21858156392577197 -0.08859558695222161 -1.0188590201425614
P 8.01702497905137 5.474063555072637 10.577720603965266 1.8677480667194672 0.7432866406540425 -0.8316125188846452
P 1.8240691513728111 8.77652649071593 13.377689202644682 -1.2236795257284991 -0.15194808306693833 0.899786090537089
Ni 5.342777222428078 0.5852211314626287 9.73183165425339 -1.108214625189259 0.4422603398687932 -0.378774917720638
Ni 0.7916870521502318 5.352357703110887 7.64677970992395 -0.16817482933844585 -0.23812786148881568 -1.615263422288347
Ni 3.7185295252967103 3.0109894661026098 8.972956342304693 1.5143833615418176 1.1610335687625035 1.0591006412714277
Ni 5.401000672057164 0.9390370948711718 12.386929698607757 -2.4623203007525207 -0.3272543812438429 -1.7345739218259222
Ni 6.941864439958017 3.850743908418371 11.258213147587833 1.0469393233185451 -2.2168411411049562 0.46474360857297375
Ni 1.517062554149726 6.358514408245182 9.487928739774333 1.1427941629363416 3.174102700150695 -0.7321961871678357
Ni 4.66021953213778 4.343191864611443 6.363711490916952 0.017057726813235138 0.2493664105171125 -0.21444645871147583
Ni 8.529890045740682 7.355240620652563 6.043839676776952 -0.49318258063995707 -1.1541250145681285 0.9166052189769568
Ni 2.2398170166199507 6.94681404250256 1.006709785721659 -0.17317691053872755 1.7154590553733424 0.06544845941179696
Ni 1.87100600732078 1.8442987769241825 8.885750532473024 -1.783450592921967 -1.233204948720431 0.40103912843547707
Ni 1.8665907368691137 1.0261894714935542 6.5560541707075695 0.7604286996509678 -1.7135795789624422 -0.9118016269407264
Ni 5.49516498561765 2.046970002327636 3.0857050289071033 0.3326770949213109 0.5050502786118205 -0.6904651259776367
Ni 2.8568674671729997 2.9726112978879136 6.866967016757001 0.05954932031854261 1.2655838792717689 -0.7687410761714051
Ni 4.794421255675052 4.3425544157988885 13.076504950384505 1.4901815674846335 0.5149755081453324 1.1587992801153462
Ni 9.282838958582069 4.197328577503315 3.5307867886284563 0.6528869106135466 0.3322922007780664 0.3407220767129745
Ni 4.99164604343006 2.7424922765556294 11.095958989174527 -1.2643101547656679 0.16537181267201195 -0.4548960263549327
Ni 7.328008432410332 7.30954116534073 3.716736231799038 -1.293405015249095 0.1327709959178552 0.20868975873335674
Ni 7.156047240976431 1.4660853976398287 10.870509280394208 0.7168004214380559 1.0253369145574212 2.5788216129760753
Ni 1.3834889051777643 5.6524086088793295 11.52589384019991 -0.48032835038510824 0.9768978452194272 1.1978252836695564
Ni 1.2440094804424275 8.65587992869269 2.612139618936519 0.5609424617937501 0.21361573528006433 -0.9522242537321471
Ni 3.010567624976655 4.226332498474559 11.51720860012885 -0.09504262812914599 -3.6756681055377083 1.0420575697462116
Ni 3.9264972003927148 1.1755399785762473 4.863837556512821 0.8532069572259693 3.1971701234931196 0.4196510871097095
Ni 9.254369369703703 0.1841992712102293 7.24281714831128 1.8790251822951831 -1.401501905459038 1.1272181628749554
Ni 1.4884523515627075 3.452329026324376 13.470671423627767 1.3400453408154533 -0.6681721189073911 0.6204606717640411
P 5.825635323691097 3.6628652451650865 1.3251023436466418 0.6386139456343002 0.1979857420522913 0.6522605898834573
P 3.6109506639308444 2.6071468948546555 13.173135628394743 -0.48665557815471666 -1.7349804132357216 0.030722111674205157
P 3.0719501959267848 5.188149014147321 7.845804353149701 0.2704461140055472 -0.018891951808496493 0.6403736086378843
P 9.078733473350367 7.163246662859403 2.616324282905996 0.15559262179806105 -0.6943531481781331 -1.4113127209018725
P 4.120544118332192 0.1486971220498242 8.039780026810128 -0.38175482628456836 0.3091108775655967 -0.44385570938037106
P 9.221315773923287 3.0391590790691865 9.028577500898997 0.5575987421324978 -0.34174306177832114 -0.7404725682440151
P 1.9431970853426115 1.1899200738477038 3.1835702952793037 1.0888963844766215 0.8559996894797579 -0.3524691899465736
P 1.2613799605845462 7.84208277699405 6.182399487857706 0.7818267057107696 1.0197769039711404 0.6968622877532321
Ni 5.246306844045703 5.962283725758912 8.1318145113969 -0.05263228148373515 -0.010544094064433452 -0.11093770209284765
Ni 7.409245659022096 5.285875541660318 13.469614945963428 0.0337092193269871 -0.20829252329493808 -0.43620436348270036
Ni 7.221695094422332 7.285468098419543 1.082228721514916 -1.2967831876927085 0.5517949909665271 1.168600582476484
Ni 6.674510908574739 8.493255487513268 11.060368722090034 -0.5082739277554408 -0.5374117256616615 -0.8314096588452198
Ni 9.337743924686974 3.5781595470732457 11.589417489220443 -0.6623370002828528 -0.4181716743507056 0.009682260284770422
Ni 5.603090694131524 5.800465469842426 2.8684737226851187 -1.101172373630497 -0.18585219201355088 0.7166394703801594
Ni 1.1729339378425672 8.791028451201552 9.24203567260549 0.10522676775099941 0.42913203001695127 -0.044340216678272024
Ni 0.80431135091299 5.570430816735333 13.669558265419038 -1.804508699143847 0.011937117757218152 0.7187932834983686
Ni 8.896826205591163 7.051618126684366 11.73136702810443 -0.3810135772431696 -0.8855902586526813 0.49217547953168134
Ni 3.8792884912746857 8.380286433982416 13.159909502958955 1.4342258780546204 0.8086697940455428 -2.163971803909751
Ni 7.06873550215091 -0.006108259503833961 13.330588297369951 1.0141351323043308 -2.4329639590775907 0.737969085095871
Ni 8.926776925533995 8.882586724028357 4.486587849845095 0.753666955447102 1.549394844619996 -0.9632434876607863
Ni 7.751827524534085 6.0183417242747606 7.816429211987617 -1.2269162874982416 -1.9668121573031803 -0.53061450023417
Ni 4.453742362353484 7.778366018480301 10.621392409598341 -0.3994144483478605 0.8462678069039747 -0.42516481783908716
Ni 8.680562321684702 7.296567207155792 9.314341116443693 0.8863597898288542 -1.3151817448045542 0.8010045641908011
Ni 5.237232572714041 1.91566492118859 7.141520907447977 -0.9503208660618471 -0.1014960970639736 1.4734943366369397
Ni 6.843669200082847 4.030485725064339 4.1892311027344205 0.8351881520510456 -0.08659861112685086 -0.0681224066995343
Ni 4.4050525221709895 4.002878566932369 3.8469407763117025 0.32274620896084416 0.2843303281868071 2.041223739445536
Ni 6.725863034974374 8.162691406967387 8.114581832689261 -0.909019436209899 0.589128951530295 -0.7043897064785288
Ni 7.5578930975615295 1.825887755338041 8.740427202006117 -0.6502759553532607 0.24632119593288546 -0.7430889228209395
Ni 1.1499951548378375 6.755082563632217 4.155164150826987 0.4597649244114598 -0.6522978708792959 0.8578511408662001
Ni 3.6942033536999497 6.304884339765388 12.331747254784448 -0.33125656042470053 -0.13530738918646373 0.782069417849195
Ni 3.065622579037454 7.684801656743397 7.76102741077881 -0.7713630871752845 -0.14099826892365394 0.9972532689473276
Ni 2.7439640333728517 8.827578641203775 4.785399480127953 -2.8270302557396607 -0.769684413921281 -0.13932833742039877
P 8.008372548845664 9.198020769523307 9.570963009582668 0.9469298381024274 1.9709832579617348 -1.529937764336649
P 6.31783954945584 8.163919433356279 5.793089812111277 0.7658465282324294 -0.7389682157843467 0.7068821338830794
P 9.132701014730927 3.868648720653366 1.1538132857400962 -0.2690147808756593 0.7815827080207636 0.070017309729402
P 5.808114855593083 3.5484994287949605 9.211563744515923 0.8856977307648229 0.3405068753783749 -0.901953016281421
P 8.103942999492666 5.212428314507864 5.703579812307167 0.494909847743709 -0.711737919313484 0.04431913363234948
P 8.379414628988775 1.649361305496578 12.938026695254766 1.1296727950630352 0.972334137108145 -1.5151449222981905
P 8.894791993939332 1.5944094681554566 5.128457557399909 1.2375663110129203 0.33621801819503383 1.7449298111389497
P 6.936774223704822 9.26964939271053 2.2771621427884186 0.1871948220843744 -0.41358791163476516 -1.1940786721429306
