# total energy = -381164.99632701336 ev
CRYSTAL
PRIMVEC
9.23739979869791 0.00000000000000 0.00000000000000

0.00000000000000 9.23739979869791 0.00000000000000

0.00000000000000 0.00000000000000 13.51986833608301

PRIMCOORD
 96 1
Ni 5.670885986017084 0.6151720363046342 0.9187250056603217 0.4675684796162786 -1.2085928065987057 0.9976520470476432
Ni 2.553817763537051 0.06413896247026986 7.299093186007858 3.0052547560046246 -0.19253397490910068 1.5702295219771603
Ni 4.385317041841686 3.732454566462363 10.295190266868778 1.9157485058581458 -0.8695702290753412 0.9631439859684444
Ni 5.462139223061881 7.998664573984889 5.635162189381247 -0.07110694324915497 1.2411969657869721 0.9703764991611417
Ni 3.148309108944079 5.041966851180281 11.644513897678578 -2.1291228145513657 -0.08049044134658395 -1.1523013310958283
Ni 7.249548391640647 0.8143931924822729 9.498883903392002 0.11822472267256413 0.22242844847568788 0.18416503411911508
Ni 5.387861290460641 1.1755053243589872 6.586393605292004 2.170746403629423 1.06468379178616 1.8347433296586726
Ni 1.5676698997417733 7.144334406772086 5.715943251512552 1.6214207001389946 -0.5628810735773596 -0.531474277131304
Ni 3.620497279666316 4.903627550267939 0.266567343893419 1.5343505486923639 2.0069352505763116 2.6245725939589444
Ni 3.391382049930149 0.08496006184636634 2.2860883547361284 0.6605374851802688 -0.9753801230233201 1.1821353837381252
Ni 2.8661712037781006 2.5185124211167134 3.4765527244942502 3.0430193763479076 -3.389519236084924 0.001627508301093971
Ni 6.592796970903144 2.9015319705978424 8.216159154646022 -0.17733412724021072 -0.27632057050845316 0.5473842634933412
Ni 2.9812507317405714 5.3602229899578555 4.368093909726898 1.5441364244345344 1.5767943196788714 0.5152752987739384
Ni 6.438236795765236 6.386008536726882 7.185823264685927 1.903452204989296 -1.949330455578649 -2.2901918860829653
Ni 4.464980378585012 7.116816192468007 3.206872376834308 -0.31362239228270505 0.5561159869393842 0.9705999280258573
Ni 2.8625870926166432 1.7855894007983357 10.06397352865521 -0.3948173158954813 0.2533868445304152 -0.40776462008476866
Ni 1.1032411449360933 0.2938121311604372 5.817139891164316 -1.5553032396846311 0.9554620439431546 -1.2762740119957632
Ni 7.550262708006861 3.4846243645274506 12.827665017935344 0.4479273083465834 0.07791085354486581 2.796509975663616
Ni 3.9745575804588635 2.7639778486770554 7.8624932908292315 -0.4373243360197565 0.010416567347633673 0.48089142197742984
Ni 2.2851018004267374 8.4816327903912 9.939252926416415 1.746376056667173 0.05795112259348729 1.5963550154196184
Ni 6.407457779296224 5.781623936026243 10.220885545807825 0.17301930191494072 0.202395955304845 1.3123435040248106
Ni 6.07473587227421 8.016705215990886 8.369988651451786 -0.2456678786196027 2.7540384367629667 1.040479940846447
Ni 4.258829325001895 0.6217241240541753 4.965888549338404 -1.4376050789394983 -0.93947749558944 -3.45960133761399
Ni 2.362973081589334 6.636988692027921 8.501550472057014 -2.011010963307582 -0.16576262035252742 -1.7079054113958005
P 1.2678793233656263 3.9583274688333967 10.396643706237779 0.5133192034888321 -0.6183505673995737 0.713519693804255
Ni 9.11983551212817 4.598220634752188 1.435837423319458 -0.5977855987640285 0.1288786028419845 0.16132695317867699
P 0.003710663540096697 2.65592798203899 5.2661511568494745 -0.010719957520665409 -1.2607306649445256 -0.38821986518362167
Ni 2.8773946446574072 3.0365550449458465 13.067236984359061 -0.8652875425395873 -1.9891182769995488 -0.9713568607965399
P 7.602527916644816 8.228130824917281 6.114603566505486 0.717394603378629 -0.529156684741721 -0.4226003995460206
P 3.9753242846506187 7.790176458226904 8.028706445941829 1.6352686617656804 0.7900161835000975 -0.21547052910061598
P 7.350928855550434 5.037634510626869 8.48382574912762 0.8695661153102832 -1.4084369420159744 0.47455185291264723
Ni 6.050515409734669 8.270927698657056 10.708722795701778 -0.08659835401653473 -0.04041697036446587 0.5316231440043425
Ni 7.737366242994809 3.0619024702732682 2.756484469877637 -0.4346794421977417 -0.5711790519200938 -0.9979886044514554
Ni 1.3662761071074985 2.4870683118548533 7.833033375066035 1.4518572179831382 -0.8631090468310296 -0.13839271298000683
Ni 1.60741843151433 7.824733571255288 1.049947813689193 0.5046196188323051 -0.04073655848741371 1.2057350254349364
Ni 8.537094139394787 0.4196227465875096 4.470750058562967 -2.3467325014821716 0.5798531826553239 -0.21928218953722234
Ni 1.6573373405775178 1.103906237728941 1.0753728331757804 -0.4787548352504013 0.21171234760976443 -0.6465062038981834
Ni 4.140710692472106 6.034165211910494 6.66521449116439 -2.110100250702276 0.43867570784132837 -0.27943649042961555
Ni 8.558931352759958 1.9334616984081638 11.544196658497357 1.2377192916510167 -1.1824999661663957 -1.532623024478296
Ni 6.787179577012815 7.468807315682806 1.8075660989020053 -2.423784092350535 -0.28736860079249865 2.144794716760668
Ni 4.6327592729807705 2.0144367459373838 11.947102482484635 -0.601121605115797 1.714214898553596 -0.158095847835889
Ni 0.053475308024943435 8.9435489724239 10.615259707246851 -0.48403870935716 0.7095637944803006 -0.12461957045531441
Ni 7.910308843935038 1.091620495861058 6.645542524335935 -0.07246217172546876 0.709080941306611 1.232717210450735
Ni 8.30561413528405 0.0852501162032472 2.10843745106653 0.440044563164397 -0.5075180234260227 0.7094516943824686
Ni 8.768352445907908 3.7843133295046902 7.14760259885694 -0.8827820997799248 0.004311225780844187 -1.7411885989289626
Ni 4.930813218175593 6.395107375629036 12.142221309366388 1.2006231581296678 -0.06341343125963918 0.7993762845587588
Ni 8.05018155323089 7.066213715812171 11.76212354947384 -0.055273575761324155 -1.0894620271721043 -0.6299444428847603
Ni 0.3882414516449741 5.280846012611451 8.723491937030323 -0.9766556473016342 0.2600262042238038 1.01945217364187
Ni 2.8722494129127374 4.496461437446475 8.980721193364163 -2.536964824841289 -0.5015782609028201 -0.5339368797391837
Ni 4.895092192759725 4.55024157966814 2.9770615708856205 0.593221890652746 0.01586859160114041 -0.8397204927037601
Ni 0.9491243649934166 6.2869004731926585 3.3059591943487594 0.11559217014572351 0.29621499543953506 -0.4334807939039503
Ni 4.661773946068756 0.7668482951935557 8.685407060979877 -0.08271238869856723 -1.1201455722988902 1.5584968069212641
Ni 1.4373578993431073 3.9028568824299104 4.023661750850813 -3.8142454237246954 1.2173245300447486 1.9211146552660654
Ni 2.7675434850387117 2.1023675555918033 5.829591906230411 -0.4357701041587592 1.030772997971328 0.38543870289405874
Ni 8.722701215598828 7.025753904247262 1.1937732064025401 1.5295140465356691 -1.059497362489214 -0.8866351549774278
Ni 6.644073777751729 2.9982567849576935 10.796764454155007 -0.5005601040509509 0.5043298555060283 -1.885668912863946
P 1.2456633766045295 5.295080845858374 6.819921540960718 1.9197766531809326 -0.4759775296155803 -0.03424555144643134
Ni 5.764599408009319 3.0737448169459194 1.0404009608918567 2.242425417331964 1.629788869598032 -1.8380286852781635
P 7.658626646241548 1.5241432714098448 0.8129318358179879 -0.8813551375254111 2.5596838637053594 -0.7848698634124677
Ni 1.5091786835707692 1.1250136965019581 12.018014306562073 0.5040223515679384 -0.40077404769954844 0.5264768239167126
P 5.527604676157885 4.068197103251894 12.45891078512081 -1.3232159279629405 1.1797717686019553 -0.444239575082351
P 2.633878308476105 8.46019278522176 4.553924531008534 2.7987985145874767 0.3533539065443721 -0.33596167920985365
P 2.8038464666483214 6.053924010298014 2.0814919555562934 0.44856237082742106 0.0006674583806698182 -0.19030971356427223
Ni 5.6656853298730105 5.931306764016601 5.02079288312798 1.1629053318639195 -2.513715624505361 -2.3542689190685326
Ni 5.397976243351869 3.7439643667385902 6.407930734171138 1.011820111017909 0.6791684700178948 -0.6424852556642483
Ni 1.1499731510335522 6.314409450096836 10.729760050235551 0.8136523348617988 1.1368636563845196 -0.6454847046122045
Ni 6.221481207096158 8.97387535629778 3.5672852375385413 -0.1232640848686845 0.15644391405476282 -0.007337157091361558
Ni 3.8878461075913315 2.191628550831919 1.4305776478160201 -2.4929351974249 -0.30446746525631435 -1.2234368135900737
Ni 0.6613544171080036 3.3833639868163727 12.666737503045907 1.2856099446847085 -0.9352932823047634 0.17369370227414602
Ni 5.415296368165614 1.8769288110161007 2.931094421499937 -1.4020423513435403 -0.14092653514545406 0.3731228616411832
Ni 8.838187189156928 6.050561596734172 5.820844088524482 -2.6741092672364912 -0.3238582110781003 -0.1493445840058202
Ni 8.673253413930572 9.13359000058026 13.238452191517869 -0.01699216368262235 1.7808882315114298 0.081040400312783
Ni 2.8516684859340584 7.737357005594908 12.670928511380838 0.5117983959689315 -1.4617035146495987 -2.355485565084453
Ni 3.692040941896958 0.45901840968386104 13.275253068982122 -0.7436208840650097 0.15479300871490115 0.7312536207489083
Ni 6.580640552633871 1.073893925451684 12.212497600330659 1.113926845082688 -1.778341810940492 0.47645395503136656
Ni 7.9174124044586485 7.0957733954942945 3.9000219244003964 -0.19757976486312423 0.7170809287929522 -0.18678524535078156
Ni 1.095333930621125 8.968277491957977 3.383062847579611 -0.036353341818053525 -0.40246249114556487 -2.1775379726299597
Ni 6.6807554927572665 7.9640427991572 13.178951327537721 -2.1065192182192365 0.2620175236222197 -0.3117539716153986
Ni 4.662882434056836 7.319752630885693 0.9223959483808454 -1.231525247025163 0.3028620684424075 -0.7841083026560948
Ni 6.619345258217653 2.0055965542324485 4.583167367874067 0.7160717708021473 -1.4297380174865957 2.8519457880344175
Ni 3.988339781110654 6.737205243550224 10.081278873629113 1.0961368680891186 0.18790676054973446 0.12828313534983068
Ni 0.6499563893705744 2.08089060082276 2.9009712604238715 -1.7529614231941746 -0.9841686678492275 0.38981034959919314
Ni 5.042881353770447 5.035436009450512 8.498535384729436 0.4648076290416898 -0.634664731178565 -0.09893450698438445
Ni 2.0349714859165595 3.595519350334921 1.7609227718435931 -0.5762785779301882 1.8970671273985587 -1.9115853756193917
Ni 8.190645456120388 7.310792352982049 9.418345784878085 -0.9093997023674533 -0.7473888357478741 -0.26712450583148184
Ni 6.396132727018009 5.51680615567401 0.38829225734442774 0.4272083306316772 -0.044090562561311164 0.577264081771909
Ni 8.584177166688471 4.675999541915778 11.068689489990811 -1.4364920483809778 -0.33025768684654094 -1.545445630164261
Ni 8.82819232246441 2.825194097818755 9.221780381171888 -0.524510187108645 -0.4775888399667582 1.9372830374958117
P 0.7073612873132602 7.785760981074387 12.436467598322157 2.1104956863684814 -1.0519738004186592 -0.453479091402748
Ni 7.436919811225715 3.990769217284529 5.006934935797004 0.914994165736095 1.6470615406355507 0.3108767112167678
P 4.216401947258146 3.5066925128901367 4.753450521382895 -0.20120759142369862 0.08725038577823682 -0.09333772962289731
Ni 0.31401524848317924 7.754824928807063 7.5642850810560684 -0.6203832815588863 1.1548768051324885 0.2900595173611004
P 4.196800184668937 0.10087610187521028 11.151917539355802 -0.8364839880443337 -0.9651666728254281 -0.7690210693056692
P 1.1594414859317326 0.5117962940163043 8.795120583340053 -2.1946892875982655 1.3130053059785258 0.07365387804072476
P 7.189699277684246 5.159004707921693 3.0936301677120785 -0.3678826962881664 0.78445463025192 -0.3942197915207985
Ni 0.43063095604913076 5.5611918621967 12.780521023802317 0.5162114374349627 1.5695682342440775 2.5022099378586065
