# total energy = -340871.0855983848 ev
CRYSTAL
PRIMVEC
9.24805416510064 0.00000000000000 0.00000000000000
0.00000000000000 9.24805416510064 0.00000000000000
0.00000000000000 0.00000000000000 13.53546207826682
PRIMCOORD
 96 1
Ni 2.3372792731409318 5.706419458948137 8.164076956400853 0.7883069141184746 1.1871827163540458 -0.3262614212029542
Ni 6.551441929488892 4.775158881550951 2.666175228596234 -0.6833704239143844 2.294986479258131 -0.605030710362216
Ni 8.558445437464819 0.5008246843503706 11.876285740961752 -0.43555490282415954 0.44591927677761917 0.489241593714338
Ni 8.137159569396422 3.2701305158871046 2.9850157745518047 2.410390958873081 -0.6022796299796401 1.9688261024094156
Ni 0.444664949476767 1.919294960477119 10.156253058830087 -0.508690189357253 -0.7198651764063086 -0.46078128149111613
Ni 0.9573863309488655 7.726638436596754 7.576976248171199 0.11432204518404829 0.44889841401060104 1.0605330028425801
Ni 7.93622709243453 6.649064391255806 8.833702677663576 -0.37215561263190744 0.4373055669666791 -0.06980005151227334
Ni 1.7642698253313462 1.2159526826484812 6.798768195925956 1.6566892935333015 1.1712076810820282 -0.6434864432352531
Ni 8.350243989780228 4.492575332692499 1.115967342993973 -0.1045251136982845 -0.30335160648431625 -0.8642179636244923
Ni 4.066609949120687 2.436566384691669 11.642609602752042 0.7900321243396974 0.6015666630730155 -1.0242225984473199
Ni 2.183807811126728 3.6853866525163173 1.7000134188703104 -0.36261090636626586 0.0581203011814999 -0.16371885044962126
Ni 4.194519788898839 5.029702329606326 1.8495535329783837 0.37381345995030457 1.5585795964430578 0.003255016602187942
Ni 6.783105691071044 4.905732160983222 7.2058203835372225 -0.6796343539107198 2.2719972174518097 1.2490357451051004
Ni 2.2107288973529013 8.257670965690913 5.516134266964668 1.7227039098612136 0.6856782461119546 0.9166417286418471
Ni 4.845629055732827 3.1268966500434177 2.954439857244702 0.4367255260934931 -1.3953613397789388 -0.6211638684786528
Ni 8.739328132585989 4.1699107162613105 10.531875733717325 0.6081512582690687 0.1826246862151887 0.000385151253560627
Ni 6.008118736157499 4.999451943812505 12.514320108549237 1.110797555425087 0.19165671451046992 1.1177881278103072
Ni 7.0281698834129775 2.828082765792683 6.965605870898829 0.5820543040717008 -2.792533250404055 0.6853820550277745
Ni 5.8440674999616595 8.53478891442581 12.30384363949342 1.7731121871104367 -1.0171574640704224 0.4805137269230369
Ni 4.061514271171315 0.5784972432635912 6.53113135251537 -0.00085489180112756 -1.8890105756426694 -0.9447451717462826
Ni 2.3696012231101777 8.34454718829781 2.6920004203813903 0.20349998700230115 0.37093176752713536 0.3022941117540794
Ni 8.567832212634714 6.720255913677339 6.173239972242163 -0.8457787830826982 0.46514315800423767 0.16484859317869027
Ni 8.024055864639946 7.55205366649105 11.071168624960993 -0.7707989871416983 -0.31640869677859057 -0.28997184274330057
Ni 4.128618153568125 7.898837208678975 1.0355471871320077 -0.9722351496364352 -0.6708704916751608 -0.8754752817058665
P 0.041937152081699916 8.64290791788517 1.2351673651809858 0.15800534500461175 -0.045545549840282855 0.4486731853736724
P 4.475688385441042 4.71375180063656 11.076528797264906 -0.316133588740333 0.09988838625722153 -1.8690403031683296
P 3.7381283065004687 2.4094788334871136 0.8476276474524403 0.2770371369595035 0.9762159886610541 -0.06811649316226334
P 3.4051336133552184 1.7857715517057375 9.507227378642186 -0.8287136000702954 0.9747936543922309 0.5338499764523322
P 1.213622172951128 2.5418739796272365 3.331470086004707 -0.24347781294681942 0.8429428562957998 -0.08189323523138155
P 7.099278173345319 1.6749336202661333 2.305860858082127 -0.4109059939272278 -0.8160689147230914 -0.2830658596520867
P 9.395653302075957 9.051912369770688 9.536735145671335 0.7422553711760507 -0.5673280536051196 -0.15530620090589384
P 5.897539750239823 6.798559189897541 7.033432026340732 1.0449127798068198 1.049144044279348 -0.5671241651244298
Ni 7.335075815223966 0.3548718905264379 9.555630770328607 1.0926908185220472 0.5258085942050944 -0.22253823458067484
Ni 5.926597137021903 9.334061260074476 1.4775043062937545 1.717653234811184 -0.31884764523738635 -0.8848148139392373
Ni 7.993306083910978 1.4349281136561534 4.85661851872237 0.37776910216394294 -0.48178308055376384 0.6117497742536044
Ni 5.853787205088319 0.7950015941477204 3.9392522181875016 0.6202380142302738 0.8148679524364546 0.18014665698834134
Ni 1.2117725620802127 7.521155916892409 10.688724585181822 -1.2019081954896784 1.3558617390224197 -3.0335327770137113
Ni 9.0445601665588 1.484201747257339 7.78362217311335 -1.2588064513386192 -0.14542493723643984 0.2958133891257422
Ni 4.438557447207415 0.2616626002975282 10.843028372087936 -0.593889606143732 -0.005074586309429969 -1.9930127269579483
Ni 2.509709246582018 6.021454430536799 0.39780413325669034 -0.4091442740411147 1.338053250086089 0.7878801109937011
Ni 2.289180142442777 3.7644575172479495 4.927220015276082 -1.169725954330179 -0.465221833760973 -0.25930115313232116
Ni 6.54242507649318 2.1370681444186963 10.92805868304566 -0.35283634347800524 0.7800765557888822 0.5632842225530492
Ni 5.411776447211317 2.1404251881494076 8.922292564742374 -0.08803662912495806 -0.15569675147609316 -1.1816013656115263
Ni 0.8792809630918508 0.5428848355549866 3.957025129046127 0.09600602048367982 -0.30191821647189937 0.02914808231886593
Ni 1.957961075733605 3.5531764674632855 8.823348556008192 0.32444930769487995 -2.0052414078136565 0.1299785207743826
Ni 6.62472351219456 3.4726074179262114 4.762858044453928 -2.3456557234782247 -1.2099297802425744 -0.7115031775948585
Ni 4.275662217805897 6.859642588909523 9.673564733874477 -0.38019725198946136 -0.5105082164025981 0.09329607775168448
Ni 0.8789027176687485 7.141329076495581 4.012817716161854 -1.0852474748701246 0.9416853018740363 0.4622650651254942
Ni 3.4052353419531185 1.8063762168077349 4.341729393309559 -0.5206702445372646 -0.6295495214391867 0.5789437834671771
Ni 2.356681691176834 5.792148922815064 11.468813691682785 1.0304901766235866 -3.7624958019562293 -0.22228086715423007
Ni 1.8981446601682017 3.235847978394688 11.381726613436605 0.11410632962881638 0.6397339181713563 0.24568973299647362
Ni 8.479901711831397 4.288119347021512 5.615430626569761 1.8203497799411619 -0.45489319814145535 0.08034183158386164
Ni 2.151818791114246 0.492894477741321 11.681050065482276 -0.7825201322333685 0.49625196359390017 -0.5759132241709694
Ni 6.704266027698275 8.018895450310094 5.118719476796306 -0.8792686873100275 0.1490879879103239 1.0309383199045987
Ni 0.6111854161852788 5.066916500329143 3.228681661075326 1.4751257015927757 -3.2163340980160804 -0.5756365734708151
Ni 1.4665934517662247 5.621263374451193 5.847969254093855 -0.23375595767336516 0.9766168236438986 0.865261060177026
P 8.198529658093396 5.882733615218146 4.18352755149299 -1.8924162588901083 1.2512726048554192 -0.5983553552245694
P 1.021900758126394 3.51439012750019 6.774012079224188 0.8262710520670737 -0.9979826909141843 -0.30660328065239456
P 6.350296747276845 1.3221943310738609 12.81099029380058 0.485414506658764 -0.2372557432965075 1.241640481082294
P 2.4075829823444255 6.27498059261317 2.563467261739738 -0.06673966741939474 -1.6673200337742704 -0.05768012832028776
P 8.148858358154962 5.305294349372717 12.600905942249398 0.5860282011177842 1.8613113099551881 -0.7041732195923485
P 2.5286955021719644 7.657102315904689 12.316052920852332 0.013827135691079413 3.3099505352216614 2.182955029880473
P 7.644386241167147 2.5662241067428377 9.115917229153279 0.48519082068373215 1.4447198356074087 -0.30500045494164896
P 3.4241013728364553 7.635156682921278 7.595939383625259 -0.9084375955644999 0.18735988690732894 -0.08176056630825919
Ni 9.259059539258857 1.7980344717799066 1.3840961828962215 0.35305205903323716 -0.37003393830321435 -0.020816422524718988
Ni 7.6610327390053845 7.872757695399069 -0.013656601865403723 -0.44219220563501904 -0.40889359148288934 1.3594692538680202
Ni 5.1726032654932474 8.881711177429054 8.436301759576745 -0.6821010702836575 -0.08575503217963296 -1.067847534226122
Ni 8.020948518376809 8.459888922208092 3.321155730983047 0.521848838226398 0.9762843800051443 -1.1280023493391476
Ni 5.471879552461711 7.2510110011408635 3.116080125670304 0.015066921635451471 0.5456446550944152 -0.33092077435183653
Ni 6.168701951970373 3.113274265979126 0.6010439997800499 -0.8578596255066323 -0.5921654243637738 1.0992255343167714
Ni 4.7162210311492325 4.458505500450237 8.663589341838309 -1.387055905237037 0.33340214601279355 0.6169470021838278
Ni 3.513705771477951 6.4872141919963555 4.532308673421503 -0.3290536392361107 0.005182572642203978 -1.4443413692220672
Ni 4.335182695631954 6.730012611021418 12.225568107436281 2.0067956396746536 -0.28027492717051083 0.6449154623722958
Ni 7.39630718310562 8.627472915167381 7.433906072889588 0.4712428431440723 0.023534592786830438 -1.367882931853012
Ni 4.156380812740564 5.469475058329522 6.527733617345499 -0.4719666086839743 -0.008473584688649923 1.0362892998038669
Ni 8.550603087372137 6.563640113182579 1.9858421100017836 -0.5989233119128976 1.303662174200729 -0.15219053809504757
Ni 4.250424277472257 0.6808241902806784 13.184650531553777 -0.8574263946239556 -0.15269575986624026 1.0387932971726432
Ni 2.017675762701108 0.33510324953809434 0.5603386885383795 -0.7816860663678473 -0.32093023879802796 0.407453259491937
Ni -0.11806066189052883 4.843446514905147 7.943082675127578 0.08314921912566971 0.1151316855695372 0.8220220469827326
Ni 4.348749591370119 2.787862977404628 6.787587298211272 0.14247485346918043 1.2728055938311886 -0.22088295836543895
Ni 6.601492399655863 4.514123299338663 9.949444368131296 -0.6713672288059213 0.1684378531918454 -0.07850117883069707
Ni 3.873963728860495 0.7486753154693383 2.2570921682487017 0.040999839451129394 0.9891504373345351 -0.1396093589959273
Ni 0.8845209106891541 4.587275409283366 13.191634662202354 0.04821435492169761 -1.4805838964938693 -0.552300726958352
Ni 0.43968394740139183 7.0030891600033645 12.776731801249484 -0.10780918376619497 0.11760740080353939 1.5108704632925527
Ni 7.993583525541616 3.191882727993029 12.536680979173168 -0.3822425645542643 -1.5378048257895516 0.5426269513140138
Ni 2.37360563064571 -0.04441655545416198 9.056076768646554 0.18529451973786798 -0.09502565884828151 -0.3008805192360044
Ni 3.6912314228684093 4.244958677348702 13.093394430404553 -0.01999289818215912 -0.7055490168939526 0.6814464674187941
Ni 5.8990101908822 5.668604164692272 4.909366646344571 0.7338470925076974 0.7870995240739348 0.05203424288842006
P 1.0867203710976234 5.377826839675665 9.869544877729494 -0.6994423897755825 0.10911478995149596 -0.9475098789756132
P 0.5875242691190938 2.0907353921022658 12.751245088253707 1.4454397444925686 -0.3624376140131952 -0.08511611304405342
P 6.0571426722911115 8.091890343330768 10.143745990120959 -0.5957788527466449 -2.2716460047599782 1.5267236282747254
P 0.25003039753034134 9.161076403372114 6.008405425842491 -1.2907086993638546 -0.46462765182039983 -0.26630869479840585
P 4.356878631147792 3.9929584442408355 4.876028335201757 1.49106242742769 -0.03499554223857844 -0.05413843371561645
P 6.240661062903335 0.9478608349636513 6.254101260296841 -0.4849895033062034 -0.4727155710348568 0.04424302897877542
P 4.162687985810385 8.88932232616287 4.259055486601383 -1.9306940714243845 -1.4443318561403706 0.06731173787278086
P 5.736244434241646 6.502159047833352 0.972632673357821 0.8990767231748904 -0.3443013094238006 -0.4665924888562545
