# total energy = -381170.9099029142 ev
CRYSTAL
PRIMVEC
9.27616559354198 0.00000000000000 0.00000000000000
0.00000000000000 9.27616559354198 0.00000000000000
0.00000000000000 0.00000000000000 13.57660599533484
PRIMCOORD
 96 1
Ni 0.39610060712518386 3.0070730596541315 7.322013073398583 -0.2605049436324352 0.8858059742079132 -0.8164203845252392
Ni 2.3760526385319123 4.153069073917519 5.640292539437032 -0.14256098542508353 -2.081434250226151 -1.1490008059676857
Ni 1.0829551948421863 5.330316489097625 11.718498001117121 0.3224528460901414 0.9868978938549324 -0.061721902489829186
Ni 7.59095507888931 1.247301015572824 9.45199223676924 -1.270648952499502 -0.24912601237153226 0.3627826560574397
Ni 5.929417625401075 2.828915028782504 1.7572340852535204 -0.4877248999594955 -1.361972479905848 -0.2242274493576396
Ni 7.07966212337472 8.966758812449465 12.799195377323768 -0.7126478327222631 0.19296797712272573 -1.10292149511112
Ni 8.586575177373257 7.600620843138412 6.910424053061572 0.2810686267163998 0.09081702008357262 -0.31314313865344134
Ni 5.961707956832093 7.116432842648651 5.885906844415629 -0.4521724567761825 0.6538562165053513 1.1320173840358116
Ni 4.215571875750958 1.5870591222444421 5.104410324928662 -0.6975837393002889 0.4034276832723117 0.5399090381622186
Ni 8.38769419320749 7.757137580350584 10.795587269153069 0.175857028474052 0.5345935394865761 -0.23281416258538615
Ni 0.6884074177892668 0.07571206122952329 1.1586357171096684 -0.6473071025329239 -0.12237165496140215 -0.4218013006834929
Ni 3.170723167986801 0.6496265534934732 8.982173943955372 0.20283689949700548 -0.686113019656528 -0.14714937612671433
Ni 5.912933879651888 7.894777321164559 10.64749329003896 0.6886234447832075 -0.08370354896724293 -0.588662810527154
Ni 6.971233027110091 9.136763094016908 2.7670884593998895 -0.3561255557522383 1.3267247124471473 -1.0703350765346664
Ni 0.49832116595034653 0.4400009870534909 11.861568009101369 -1.1302901169320598 0.9865790770629332 -0.14904967847322073
Ni 2.289051484124696 1.5935988187853407 7.189695068620797 1.1008083054228588 0.6395588260460727 -0.7019731266172362
Ni 2.877280954689234 3.843161667201377 3.2689614690459954 -0.10057924167665905 -0.719924054668702 -0.5299239019250486
Ni 2.038530087699098 1.397389370227772 2.9318953055462473 -0.6355561326445829 0.4335594696606856 -0.1783458563341767
Ni 3.0933413970021544 9.263401302777684 0.9803431818411004 0.55590772758332 1.835462210102568 0.27889887275859065
Ni 7.141274413338759 5.816202027838427 9.990507954608049 -0.3515237953141688 0.40316208831575084 -0.1451076631063372
Ni 4.58343676330048 3.180964054484889 6.972428724818065 0.15218436744746047 -0.3595626064582453 -2.4021063502667857
Ni 0.18190003595616439 8.461578849871685 3.385136163341333 1.8950822357580457 0.5083829425294794 -1.092252702543364
Ni 7.87573335379085 1.5154285737496642 0.4366495085283467 -0.012665768393126576 -0.7731823997722104 1.389517479403652
Ni 0.6692595573641281 2.746672547177388 1.0359463719197586 -0.04321690170710622 0.6550348101944848 0.4866794894141167
P 1.9470670977795805 1.646500789526822 13.389886742160583 0.7645524920113542 -1.3944768802914567 -0.861252196127949
Ni 4.870422765544904 1.7291885270666372 12.888895895835098 0.7235606229800248 -0.867982315762931 1.1733458104709533
P 3.8874275280427497 7.2495736432891 10.745815076585911 -0.9308748415220935 -0.5218737779270625 0.1745110559691188
Ni 3.1308449333352795 6.113002212976852 12.69818535807107 0.42017636348556026 0.9647714942695383 -1.7392741555150693
P 9.001637194000923 8.840927630070333 8.933420274338841 0.47657556821089536 -0.5671789296217651 -0.3820376476323098
P 6.585743425478714 0.13643012885804173 6.5211970844283105 -1.0094678087356486 -1.896785334492082 0.06412125595994118
P 5.47698193875457 0.27690744863919553 0.9525768362299349 0.151229716843675 -0.09220207335655735 -0.04805880318043981
Ni 4.3317558462116015 7.315861120567485 0.8577048555603749 0.7887188048449126 0.16156632288299272 0.5397380598019931
Ni 0.00713244350396722 5.504226036258995 0.5630242741944252 -1.929945366183818 -0.6791970092629851 -0.80095417056884
Ni 3.275089303847297 8.49340537303739 3.5729005910041023 -0.25285745438950646 -1.339280437624971 0.1787873147469695
Ni 4.560199969208351 8.483683951796452 12.357059944633312 -0.5538048223077043 1.184642209320379 1.019362185031225
Ni 1.7364888691626474 5.194513429014284 7.419397967249602 -1.755033732342171 2.411356150999828 1.0252425550714022
Ni 0.5062272416408541 1.7478892763240153 9.244771979993164 1.978024481079232 -0.12515590257475864 0.8729797689775223
Ni 9.209330535207616 7.572087358656421 12.981869045466471 -0.28905858690041186 -0.4479298794497446 -0.29941421910312305
Ni 3.7360961672367656 8.50268153834363 6.2579599206009195 0.7999172446638934 0.14461889639537676 0.48831573946595896
Ni 1.811245485365628 8.210575092850162 10.16416611768962 -0.251133015499232 0.29186366044937473 0.46840125993021914
Ni 5.956105152987124 7.091053254370781 3.069846725514512 0.9997022447084525 -0.1015151232273671 0.023431748660379
Ni 6.3975300314151236 4.650642580944182 3.429953028401897 0.21090347855522387 -0.6541086988357896 0.8229579285334406
Ni 0.23999109356995593 0.6248684682911211 6.839296272726392 0.08037191349084868 -0.009256228490945349 2.285226057437258
Ni 7.628616310032641 3.633177113164044 13.161120736227705 -0.7923574300387644 0.6325062900746655 0.11683504141388912
Ni 7.792062342728574 7.670952728490317 4.5156335606110565 -1.3496725794925724 -1.293042489703354 0.28180241955863083
Ni 4.195164312077231 5.4553220927645025 7.018304000340071 0.7635924420909301 0.36838894650062365 1.6680245160404628
Ni 7.291724538440651 2.0189202742417085 6.871093112163118 0.20180974378407177 1.3637267435927933 0.6626959262841684
Ni 6.454986599321969 5.215950647037004 1.2720257065800735 -0.7958320188509262 0.9777023433985936 -0.8528680858293118
Ni 0.2611416780847116 6.4609697259444925 9.063904381235584 -0.4128872860233147 0.6773864384168076 -0.05071758095952556
Ni 7.2323941851419455 3.7506133659410303 8.629032185979913 -0.08031869165541006 -0.19764352822152412 -1.5360672742731547
Ni 2.919988419759159 3.6475551693887143 8.490008441302246 -1.4365923214042677 -0.5616214901386457 1.3989130616859393
Ni 9.049474378485199 4.406707261886013 10.000391708741846 0.4316283140762438 -1.426095278527686 -0.2254800908178181
Ni 8.795094097292203 5.703431686210478 5.127314104686297 0.09812229549573424 -0.7092552621009464 -1.1867746822823497
Ni 3.3450594187522578 6.364033798494294 5.140917601107897 0.07456841943519416 1.6538420538924938 -0.7223398631990463
Ni 8.48580819365158 1.5731727027810023 2.915413415030122 1.6565465973078506 0.8435925740646568 -0.5175934053841537
Ni 1.9692464090267983 5.036614543171483 1.2419022873645926 1.4931501631946544 0.23808158163191256 1.2798822981723117
P 8.249247426011872 5.4630491384646 12.14229167214755 -0.7808365738833585 0.7698515356267644 -1.1247447616337984
Ni 2.0805882211975857 8.31510819968617 12.735508009180723 0.7672773471416849 -0.6947424131967518 -0.6708319251277415
P 4.098757126049488 5.062810433996303 0.637830054073529 1.5661242415595351 -1.1863136834855312 0.7600741445250265
Ni 4.391568560106231 1.0072153051167443 2.7855665806899177 1.7399272157180357 1.1424504064436778 -0.6438440836849879
P 1.2805467920303848 6.775812052603553 5.766500334127598 -0.15888903316114572 0.004836502156694897 0.33685359489650374
P 7.670414710902555 1.612457262852925 11.854276943170666 0.09380129952287718 0.48582768293678263 -1.3330956489704977
P 6.319749385322309 5.882276153314768 7.758894486059585 0.3034148556220839 -0.10578803957110813 0.48015660069393434
Ni 2.5466134900177306 3.767570196120835 12.80150328725196 -0.052089007385755455 -0.4984284024199286 -0.43407728983736854
Ni 0.3783386057967973 3.8479759969953156 3.090456509591914 -0.19322920120391238 0.8190444524116475 0.6073652720326638
Ni 8.540750920760434 5.126287233186896 7.269458031239554 -0.685720926424432 -0.16739629930120847 0.6219943347997482
Ni 8.232633813948398 0.5029935704150992 5.086719750073134 -0.7630553386405374 0.8804375108071483 -1.1201537998290063
Ni 1.4975070223780103 6.128511961368884 3.542543412422904 0.24037526276209573 0.3968405169730972 -0.26708979593880455
Ni 2.9651262401393184 1.1178335763936451 11.144533417560517 -1.2915723329157305 -0.2389094768498466 1.6347392716247717
Ni 6.65323680424691 3.437283054226887 10.78494286946416 0.8139750083085401 -1.3031777783651428 0.867814422726499
Ni 5.7241268110086985 4.7645817194007165 12.418955157639193 -1.5846914630387612 -0.04706969979429313 0.8570453571354529
Ni 4.719972640443013 5.105350928090715 10.362900538443547 0.33757890309830246 1.7313289325260635 -0.7769362103876878
Ni 0.3200481106289216 3.0097445952623283 12.164774314000281 0.40315051835152504 -0.9299595287966759 -1.0698738206275316
Ni 5.023191931973355 3.140696220890505 9.111409479001894 1.1393475991486377 -0.020239724085642563 0.4905358870457294
Ni 5.193418841508149 1.1847054520863225 8.02035248138124 0.6964784220512521 -1.8918125638678387 -0.9255871107605931
Ni 4.064565180730691 6.032902525557478 2.7550600558472893 -1.4563103686584855 -1.6408739237676 0.46254428692880983
Ni 6.554046768627296 2.158405971951625 4.031287865311089 -2.440459239013371 -0.6814346403442523 -0.09601836177885398
Ni 8.224721244942176 3.1117916897962643 5.033770470888591 1.7186603359194594 1.3423475065860688 0.6966429726535743
Ni 5.5843349998436755 9.026033508756331 4.5808422198643255 -0.2664917573434894 0.3074527731368834 0.44447097436686683
Ni 1.7318044056829967 7.842487577333289 7.681508076992285 0.3322466922521116 0.5938091306147838 -0.6245708372776728
Ni 3.635792991780403 2.879971042628044 1.1062012650996214 -0.7366776199779571 -0.2570833195453959 0.6767521472669182
Ni 6.285919210450454 4.8664154621326094 5.661932905479958 0.5021547022315804 -1.531795643480994 1.4376133064696144
Ni 6.710025488251705 8.09825928332222 8.382413272298649 -0.013964946820524335 0.041655727867573426 -0.06170416187801631
Ni 7.709179805717327 7.697853607878409 1.1646856321223975 0.4326444140455839 0.6704881686350775 0.6281894078668665
Ni 8.516122701872371 6.20633898828823 2.6122071101312083 -0.5782128188384235 -0.8483570853328357 1.5434926202029482
Ni 2.5179408630561455 5.910503524341654 9.696900625568032 -0.23826155885320255 -0.8116108789517377 -0.11595880945652286
Ni 6.353672321847226 6.78440178167713 13.242159171576072 -0.002075394471789974 0.6032738755721094 -1.9126410705774155
Ni 4.187678446675096 3.079723986332596 11.205383206736384 -1.0117676605134187 0.9470985024698075 0.13986029866446878
P 7.8518565042925905 3.6796228728523825 1.7641847159174855 1.7211249954098682 -0.36613897412418234 0.9536468451112866
Ni 1.9791533535738615 0.3033454473785075 5.2255950761059 -1.0871678318212887 0.30816522582287575 -0.5222802693368618
P 1.9947929682801804 7.623690666255028 1.9457174157275228 -0.1676626655887177 -0.27134600011199717 0.31086231303906464
Ni 5.3826618899207315 1.1716631636657506 10.550991487125094 0.37557312295388867 -0.9401061303123746 0.021460998087253363
P 1.9257690222364556 3.324624026582613 10.553489558442065 0.10791485610612382 0.29970706775319356 -0.5349457806196724
P 0.9912788531206256 2.278272580038846 4.711000733358818 0.2248152035403096 0.20815856882023506 0.20359871736369453
P 4.330522116225872 4.497910519176956 4.6768282679871644 1.3344470207920696 -0.3977704849865343 0.07412156170576267
Ni 4.084304860502368 7.651546990669664 8.615374887799536 0.3110736577189223 0.14869435201633102 -0.2000724493779909
