# total energy = -381167.37066216295 ev
CRYSTAL
PRIMVEC
9.32772388316564 0.00000000000000 0.00000000000000

0.00000000000000 9.32772388316564 0.00000000000000

0.00000000000000 0.00000000000000 13.65206676379719

PRIMCOORD
 96 1
Ni 6.985933670628824 4.755292401629918 3.217669318999322 0.2511366150436578 -0.4960329056045587 0.8354342066235806
Ni 3.98826432116254 1.0703749959235866 9.041122314851485 0.9513449364509874 -1.1120648521732848 1.8502550521410264
Ni 3.9995415395994445 7.122500879176973 8.41629445551625 1.2298846260979464 1.2626499934544255 1.5802907628679042
Ni 0.10471303074663782 4.571573547756251 2.1199473015593457 -0.25020947524369813 0.26929785933371686 0.5945465230014406
Ni 7.204342330430402 7.455687184029093 13.056236489835886 -0.5066441054615016 -0.40328498704686033 0.5357088840379419
Ni 0.6275394287311067 4.166657044575104 9.477715769076243 -1.548314981292256 -0.6821622625388961 -0.44649366122385037
Ni 0.19807049017393152 7.775208373074709 12.32277888840442 0.4871870251781545 2.030451845641013 0.515524181559951
Ni 3.878150538162001 2.0801197851971516 2.8768865156401593 0.20572296279554894 -0.5587806782557408 -0.5102300230405471
Ni 1.9181438562005928 0.4751897110057516 3.105681596227092 0.5642147047871185 -0.8162126393898073 0.8622968353423794
Ni 4.31767289775416 2.419303816645574 0.20481256915341395 0.6447298287240509 -0.6690385806727445 -1.2126186399286472
Ni 8.154828088496645 7.178215375226293 10.719671451502162 -1.6430501054833122 -1.9160531815827584 -0.36440990724821753
Ni 2.793410847124409 1.514188108601747 7.327692153928846 -1.178159944030145 0.09334004361574248 -1.07270177699463
Ni 4.0013138071784455 3.1607925885271415 11.260019979208487 -0.2159459260751378 -1.154911772135482 0.4197888982391544
Ni 0.1647705151369195 6.444366009382628 8.846047889658475 -0.5135120362259286 1.5552618449237343 -1.6431730042144217
Ni 0.038034727790173736 4.031414372849156 5.049312525758533 0.4198608891276704 -3.2172342412328465 -0.6576295675048546
Ni 7.504704374174611 4.640095008994876 0.5855478803777114 -0.9209300716045559 0.9222495617469277 -0.20708281925755304
Ni 8.16565757617675 2.3910501403466635 9.753036604701583 1.487397062760961 0.5699243535773862 1.1575556375162321
Ni 6.133258427475215 4.109366163152885 6.418628953045898 0.8270619233994854 -1.2389030275464727 -1.4642085404596397
Ni 4.885339531032164 8.337520892719311 6.081094995990766 0.18702667193762626 0.07341990765304775 1.514755914389888
Ni 5.051307725943525 6.00760465612407 5.531845021175808 -0.5134732125681931 0.1135885094521334 -1.1643376934350722
Ni 6.926422790870801 2.477312932823495 13.32036312376881 -0.49715879167888577 1.702433846758268 -0.2679331177757063
Ni 3.311827097154396 0.2834630059922324 0.9762535958925026 -0.17474836879090547 0.3316028880205257 0.7205292923528688
Ni 3.313729952870797 0.7536399980666422 12.274723386613614 0.751559679296112 -0.5248148628332575 -0.8669770144268681
Ni 4.9943712980371044 9.189580506082319 3.846101410926799 -1.7052450909548182 2.0795776566333863 1.1013821756484579
P 7.9206182640696605 2.2989948312037303 5.581852815620746 -0.545080555060829 0.6989271407020609 -0.2536480686116019
Ni 3.011940767339288 2.3111395279819344 5.1760175316157495 -3.03710918151106 -0.4997802884621328 -0.9956103340272661
P 5.811815727264999 0.39517089704146274 7.5663438405722525 0.2194166582325576 0.23394236265255838 0.6025431680536719
Ni 7.80567271998532 6.692977839820017 2.4122250068260813 0.22691193816833824 1.0691575112867975 -2.0163593721036888
P 1.8150072108268556 2.8362437561916245 3.1040567066888713 -1.1906719604542269 -1.4154966770762332 0.11919248590247217
P 5.62054141687033 1.4275428794368157 11.784969367198117 -0.5995987407133674 1.2835168096011056 -0.9474201474752844
P 2.2255949702608038 4.886915916405065 5.386068550623725 0.11845560773644759 -0.5915424460677942 -0.10213475908923701
Ni 7.351916253416555 2.4215704536018747 7.710755665088505 -0.8000416860568995 -1.3330079743526977 -1.1470408540278374
Ni 8.613714803320411 3.2985817289323913 11.872929805461148 -1.8816744469925726 1.4971328019914862 -0.6523719186503409
Ni 1.3452630251506859 3.5512697748014825 6.983141882805692 0.32803599660487376 0.26172467497214924 0.5733696318135092
Ni 8.707281203767545 5.881745674842724 4.3452344569248496 -1.0576579952876302 2.779368945107955 -1.4055737615355666
Ni 2.3282465739813407 5.6729259154159495 9.054883506216221 1.4256741318298674 -0.3728099583864547 -1.244529886814947
Ni 7.7941436529977155 5.108635918262145 9.55307445208017 0.23337054930948842 -1.3290145369225885 -0.5176484269918052
Ni 0.5556152137408007 3.3690433567838167 0.07403881004377674 -0.15575485840753822 0.9765705437869955 0.6184860645361735
Ni 3.8134907547007773 4.252462778571036 6.989312172297844 -0.9220042785053411 0.24644512310525943 -0.884300079086348
Ni 9.151206249134905 1.4929208976537391 3.826374207227702 -0.38744339202891337 0.43677823370829943 -1.2196248960431513
Ni 8.601943215506207 8.737624290264856 1.0862377235280523 -0.42839026675492026 -0.9937959065263465 -0.1326900061682747
Ni 9.148631797283304 6.223821300762149 0.2390117367936663 1.7887097844383777 0.11314910792186965 2.5287185256720965
Ni 0.5732100997106371 1.2385631891707474 1.3578032174307306 0.32063070527973814 0.8826448028711121 0.020926465740022028
Ni 3.0971588547169184 7.4900785027858054 2.3622582543671835 -0.849447233073221 -0.05185015190207199 -0.7521410057208788
Ni 0.3319307931882599 5.999237687606367 6.31091332791147 1.655971955751303 0.8666738813641526 1.5055811898691553
Ni 4.814887230904839 5.800165399864095 2.968287018551272 -0.08835930257169944 -0.08890206244904689 0.9606397314893519
Ni 5.39873746549635 4.458176405872511 12.818758230884262 -0.467625300996143 1.0577850077837976 0.8840591667201355
Ni 8.536817045839983 0.9660537295891488 12.65684479763917 1.212790646730137 -1.2187358085699784 -0.26785521334991935
Ni 7.184548899890196 6.773625342388646 6.5226022952714064 1.3939973695518768 0.4157388965394969 -0.297536542464436
Ni 1.165769630294321 6.060511507219289 10.90249950772428 -0.3982373973206238 0.0882600579896738 2.22381088755457
Ni 2.839760308177326 6.6613195442246065 6.599791077743754 -0.9931251057115671 0.06279225273587251 -1.118891388176815
Ni 6.241711875585954 2.581065207987832 4.048493435676263 1.2358948368477682 -1.1235481702225358 0.2436981564877416
Ni 2.716205274748681 3.6722037177580265 1.130033253722388 -0.39651964329856876 -1.002816364857402 0.2550997134564639
Ni 0.5548400798680904 1.431712372109517 5.946786029447227 0.322100090736413 0.440278533552074 1.8762514762047882
Ni 2.320112798566138 4.926129668521479 2.892394789728825 0.7244209140977912 1.663190070766297 2.5991636669675366
Ni 6.681206252005813 7.472756919132099 4.302681379580634 -0.15458166403504345 -0.4175492102753583 0.006425443910369579
P 3.6970714302086356 8.271956320020388 10.348635107797048 -0.09600447782178305 2.095164198217734 -0.27933621740632536
Ni 4.450322462180307 7.885592660074147 13.445306122543535 1.9003069744920953 -1.1025088330537334 0.4629875451138155
P 0.8341531814082312 7.872086115577343 7.2159096410868155 -0.3389302749198743 0.8326378748253659 -0.38809156713587356
Ni 1.3367095021509827 2.8421482055469265 11.292594257310519 2.047573592922964 -0.5934849145061456 -0.4622725213246619
P 1.4463848821188225 1.5712457969214675 13.06457734072611 0.29122602686537585 -1.303514592879271 -0.6329161239185744
P 1.9948457314749204 5.933682442631543 0.9467015003988719 -0.1790274557822336 0.02180552591086567 -0.6778443518898326
P 5.684165822956453 1.3387709291770835 1.7786318851540723 -2.923606032683881 2.1858714321963193 -0.47453822606589247
Ni 7.091635440130061 0.49726283731599963 2.76837989950205 2.969805671168395 -2.0391254621556105 1.45074470164525
Ni 5.59365891601412 3.568358165352689 1.873978015359487 -0.7248433463471903 0.5343490275759378 -0.6137099833037689
Ni 8.41609764053774 9.160412712821609 10.002760299851692 0.593977537871848 2.1684601786984072 0.1514678009964101
Ni 2.8834793510340417 4.869640971371859 12.81454023404624 -0.44848549484289857 0.0600691973777546 -0.5127036813920203
Ni 5.962113345688354 5.908506915285634 10.429865593121926 -1.186449437732447 0.7198453789119668 0.2564860522810293
Ni 0.7201404097338902 1.6790183211729064 8.710660638208976 0.4836152486664961 -0.5752249398546931 -0.16921664033939887
Ni 6.819153963720763 0.30853965946268147 5.319828650699961 -1.4711214655293892 2.1004802111140086 0.9518843538942251
Ni 1.6591222856675993 6.900771549595793 4.3066671160885655 -1.820934448800038 -0.2625057761125479 -0.03537889371992616
Ni 6.4389839125769255 8.036897672700302 9.114283386057453 -0.1178943359163389 -0.31264305908857126 -1.501088958425757
Ni 6.024963550674177 0.45138349355772306 13.59542464866417 0.005571580550506533 -2.918996044715695 0.1835137736883614
Ni 3.787690269840168 6.417642079836118 11.221780974260524 0.46809581287465835 -1.4144363541325187 -0.49621339704648093
Ni 2.123885466674367 9.08193856996828 5.703328699347501 0.642400666370242 -0.9256477887951994 0.14431859154613857
Ni 4.958981912801691 1.8978747117312855 6.092371281655261 1.283345574130564 -0.2749272897053523 1.1040404392069114
Ni 2.148846456365976 8.681601979320236 8.791630880031464 -0.5690319236701039 0.1438550216461587 -0.35220488054159343
Ni 2.5847683144555336 3.1885612231728517 9.02648711573858 1.6074722083787025 -0.18727529761332262 0.35119572255078874
Ni 8.344442064001514 4.464211443365213 7.268906971105805 -0.3597677804905159 -0.13102933063640013 0.6863253927776503
Ni 4.4296895364711 3.84846039235169 4.4063543690901215 -0.1597971467977119 1.9052635471664217 0.23079636082440896
Ni 5.401349228244351 7.995072157835887 2.1546371074872583 1.5176697456025732 -1.0621921357125579 -2.944598832885464
Ni 5.67541641775065 5.822850424875304 7.770893367906046 -0.025224321784427524 -0.6546458022861822 2.3140321830356725
Ni 2.4656532776984905 7.431136614197884 12.684886734601012 -1.8243997816408193 0.36597288085996327 0.8597349881524742
Ni 7.884016274701247 2.6948168033873734 1.8443671552040262 0.35608184699849643 -0.6729520567945377 0.5332210846190817
Ni 6.349139274045693 1.1174800026286036 9.688475695115818 -0.6670937982415479 -0.25171974124063745 -0.028484994813570298
Ni 5.184544936987972 3.2147348169974608 8.573266060533156 0.2811933252197222 -0.43286604313808674 0.40781038572103956
Ni 8.395725891103332 9.214121748189427 7.641417095218721 -0.24385859332500584 0.3102866430412527 0.4772756796017136
Ni 8.641707303344521 8.599900443928306 5.4293865013441405 3.2714536646980434 -2.025481646119931 -1.705066913505741
P 5.382460586941844 5.935408071590044 0.9505193378730032 1.0420763387992893 0.21583331175667345 -1.3802283407922424
Ni 5.9145979191229365 8.537871078663283 11.362751801356286 -0.9586311856997555 0.234773343194286 -0.05264565122017385
P 8.595385825463904 5.504728394444688 12.06809937343998 -0.589334896893514 -0.5305854467684475 -1.1554969552149905
Ni 6.445112227310628 3.591472265672497 10.853011267511711 -0.6108558016844254 -1.0658464446356934 0.11968562348880678
P 3.5557004437489845 7.64160738079036 4.532336476329587 1.5202855859588658 0.3324274408043501 -0.18659395527558187
P 4.156200665859001 4.6735722107897875 9.77092065011852 0.49277094702383517 0.7865889029861033 -0.14698842506881782
P 0.24827509959737967 8.181104287286356 3.0682205234690683 -0.7139758075050672 0.6521870563330444 0.03675443391121412
Ni 1.2879814714525653 0.21360581466248715 10.915059288224933 0.061551952570868186 0.22220681938318504 0.6004832002008498
