# total energy = -340856.2383874713 ev
CRYSTAL
PRIMVEC
9.43591413463381 0.00000000000000 0.00000000000000
0.00000000000000 9.43591413463381 0.00000000000000
0.00000000000000 0.00000000000000 13.81041413285483
PRIMCOORD
 96 1
Ni 3.323857269523938 0.04811938627493719 11.73190475811248 0.580295155288749 1.4302229275428142 0.6583633603470854
Ni 7.023009140646644 1.830633338505322 9.294628969390526 -0.8095462831132252 0.6073076793218509 -0.1745758477687832
Ni 2.7625996777482027 6.864995327296558 11.639927244257748 -1.3008139061186563 -0.02112238380091201 -2.012483691198366
Ni 9.190863168361648 1.0506984432309459 6.135635043081169 -0.7561789232356784 -0.09536761556873254 -0.21967248299710554
Ni 2.40439351613373 5.66236923514947 1.6807410162068552 0.056220255945309626 -0.17769768122721655 0.4901720759484074
Ni 2.560520146713601 0.9066507259718346 0.7184287780189201 -0.04471919728424557 2.270855904758515 1.9799787765921253
Ni 6.134098876306213 8.719690246122118 3.691261559960438 -0.5118251354418089 -0.44772059165241607 -0.2258683273951723
Ni 8.330628646214633 0.23775389053135731 12.344506931517447 0.7368696813841052 0.6278839608113057 -0.05974652393101324
Ni 9.129916600797563 0.30531125933950704 3.252711422678225 0.7579740674628881 -0.029552773956452328 3.3492110233841803
Ni 1.9417506600155696 7.2658140758624805 3.498661347980625 0.3489557774766764 0.7081417173217933 -0.5567664760391896
Ni 1.0899046652821582 8.905549441246723 11.456125078352677 -0.3698742727968985 0.30010173208845087 0.782455083323388
Ni 4.246510361795809 1.7599017282776708 8.946551317703795 -0.4484235312567115 -0.46283559291698356 0.1818271300145578
Ni 3.4941660786219733 9.48526368051516 7.417601129662244 -1.444382763982964 -1.28447685952153 -0.8087854936878006
Ni -0.11621365858121302 2.7547867410795135 4.018084815697623 -0.1939280270431499 -0.4201977036417989 -0.11126423219433094
Ni 9.222124350950258 6.412722540500728 5.137639953074012 1.0835865422279338 0.2846864259746452 3.528514872756252
Ni 2.5526694663895078 3.1583796483176525 4.311389818253024 -0.05875459233138913 0.32699341427297235 -0.6537019503156741
Ni 4.077871709449414 8.137428310113892 10.143265809823186 1.283325519525906 -1.2726040193433437 -0.10195323920605023
Ni 9.179700482275829 1.5776753599857287 1.301261586815136 0.8264623421422734 -1.3677985996693218 0.14590650485854872
Ni 5.484143694330383 1.0825823961337249 6.885637332437168 1.3261798956872708 0.8143799570564426 -0.0953367623307971
Ni 8.339102096852898 7.414863771054047 3.4502560535160005 -0.9129642797902598 0.696714192211142 -2.167768294837705
Ni 8.183635980242602 4.126664819973318 8.534366067312869 1.122961958701763 0.44071279287601517 0.6523004419824572
Ni 2.2191948349787 3.446844970658837 11.014646977002478 -0.11825249058670602 0.8387090207201103 -0.6605243725541463
Ni 6.296292799492325 1.3968171992021927 11.783362570707926 -0.06190702191744177 0.5356584904159807 -1.0437917788284992
Ni 6.97737706126285 1.433805981498403 0.1928417713744002 0.020938807035196197 -0.06486379055292055 2.4702755510438554
P 4.626787125907944 5.839169952977044 10.174228817534102 -0.9647061882492418 1.5337985328436359 0.06699780617678784
P 2.3562703554932525 5.381311105181377 5.471851529356589 -1.1823313017990151 -1.3120110603860566 0.03312377913716231
P 1.95554596606584 5.845322168807944 9.685795721678184 1.1145547084746739 0.0653399588583907 -0.3279460079942288
P 1.6957092063488142 2.861393695768948 2.0919600290194325 0.008998603954184503 0.5245294703823548 0.048285317368949095
P 5.48192625457538 3.0182468917153518 1.3517097566285183 0.27760843608194125 1.1060680111599015 -1.1333983235437384
P 2.0016026615729325 0.2892617134702152 3.3906909037397104 0.20141816477260793 -0.999363116201479 -0.1458643387667036
P 1.203390401169026 8.078350053492318 7.480023474152638 0.21024424770467018 1.213656337164542 0.17592541981814216
P 3.54790360800384 2.209541895109051 12.234466247777608 0.20637345189535425 -0.6422497426146746 2.3539675857780296
Ni 4.769892195373332 1.6483409188164224 2.7781302483556853 -0.056142865740154924 -0.9847404811922976 0.971646367012501
Ni 4.43294514766533 5.8422177531509405 5.5757749101467775 -1.7463251488245795 2.159850582652525 0.31473567995154184
Ni 4.883623265020328 0.5092364551233788 13.739787020353301 -1.7557922077747503 0.5648096580586403 -0.21869854911961042
Ni 1.2191011977310642 2.128864831682368 12.995765213196112 2.5509845361591483 -0.3441136188930267 -1.0946620833158052
Ni 3.4344461798585257 6.847689861293689 8.253779733037332 -0.8659285185576958 -0.6487698031213794 -0.49402281715306534
Ni 8.30397218958535 8.343102924325754 8.300376162816704 -1.6297384759760707 1.3743919366161232 -1.6481676292155356
Ni 6.641203758490635 2.1212783569461044 4.88526794480457 -0.34408790786141386 -2.4723486315228 0.7559639790113948
Ni 5.55494135595499 4.0331360418814715 13.077287734503852 -0.6468278489036602 -0.22858469788507085 -0.05139403820125988
Ni 0.4818723049552641 4.017434681233285 5.945852394977286 -0.15514653539957796 1.438441973018497 -0.5939484844061255
Ni 2.483645756568901 7.549051901930171 5.714334699910104 1.2798452742867894 -1.2307492880910866 2.152094335745874
Ni 4.898088520954025 2.9660662881189124 10.856117962756121 -0.4069246406819766 0.19990995565819766 0.2547559569638
Ni 0.548973919124407 5.996325098166682 0.39978645959061565 -1.3412331904759673 0.06057544759021181 -0.4163762730131797
Ni 8.963797337449403 2.748115549986804 10.783709590637136 -0.6228721094190112 -0.7236637242167924 0.4969199361952023
Ni 3.845823716023801 9.145391499513325 4.811782934915176 1.250932447907181 0.18835001873474014 -1.0192814523919607
Ni 7.971677047405926 2.907374903965232 6.714788789066851 -1.3531705653435018 -0.408249015920355 -0.8855887159907846
Ni 8.658064292760754 2.771761950097596 13.262181635641493 -2.459851270386738 2.3758489592321537 -0.874002553815082
Ni 3.206795322287513 3.6820917388799637 0.43903986121108374 0.13145484820959297 -1.2680307981503647 0.07566473782316646
Ni 3.989995043754361 4.129155901230001 8.9447009349976 -0.439542683827314 1.084876464683951 -0.36707022768920006
Ni 0.010580490201209323 6.294764181448452 7.651466480095573 0.20645315609335413 -1.5466319371628783 -1.676104979055752
Ni 3.7648541392677344 8.365626450688268 1.8437039663718295 -0.7470731042796682 1.41297519620596 -0.05468607868897033
Ni 0.49632340701818395 8.41300417413451 5.3662712020941505 -0.1654520310906441 2.5019816238978847 -0.45525289547371917
Ni 7.065036700939328 5.574426518057459 6.403764083890518 0.6911248710488227 0.8774352336457146 0.6334326585436768
Ni 2.2795658117978714 8.445331614988289 13.550197808483365 -1.6771609311240923 -1.1839348988407092 0.03134817529397827
Ni 9.001031453505743 3.7361783970743203 1.8298794089886208 1.951481440483381 1.1085475830486455 0.24297053429309765
P 0.15027825117497542 8.56658310797459 13.595661928600611 -0.8253415982742689 -0.9580781414097629 -2.769489481210714
P 7.052373704551186 3.602311087269133 11.496009742609784 0.7345482323397801 -1.457183001071426 1.6100589952692723
P 7.665991182286532 6.644978124031065 1.372009238096334 0.20522853965763366 0.08443399937536426 -0.005070729654688042
P 7.827571771072323 6.210520342586062 9.065058846942204 0.43881300475014107 -0.044374155240001 0.2387310422904534
P 0.6245499275231994 4.319723617366292 12.443666119404229 -0.32325862982088843 0.19077019814045856 1.1996260843237212
P 4.324781267190469 6.789177759503178 3.014716916343665 -0.22139486500485098 -1.3338456397626448 0.845744330300337
P 3.305013749563343 5.5350410136430765 13.089524227585924 0.7922810682748742 -0.4136840708929972 2.0267072909969164
P 6.430896110577896 8.828373101858789 12.639014069497476 -1.2611716091366862 -1.808703453951485 0.6021541601453694
Ni 0.2626099747978566 4.855089061534681 10.412527160294665 -0.8708976896375129 1.479443355131523 -0.6536572131206678
Ni 6.416091161745562 6.493588322204432 13.143190987613908 -0.19070720611300704 0.4727816483861019 2.239213338152569
Ni -0.1657229549664134 7.01498861387323 11.994896887421303 0.8848739493119471 -0.390199871728128 1.355668906285323
Ni 4.785253863122882 4.25890915259612 3.081655289203184 -2.0208577741946745 -1.3080453908700893 -0.588381017620677
Ni 1.7434077508659935 4.526304079307856 7.883950412741106 0.161774839349373 -0.019326211132437682 0.49311084686175716
Ni 3.5032151200051533 3.222779760351233 6.736443267763681 -0.16112023648450963 -0.18046727355255368 -0.12616428923461495
Ni 4.661935905003195 5.760323456837469 1.1274397869903459 1.2952209854119112 -0.17234644421763223 -0.9545780986763044
Ni 7.223626105034328 4.627391024394413 0.8463627851945522 -1.0478736622073566 0.2023882419953611 -0.060742826406011516
Ni 6.457411028499414 8.838535581076396 10.343558178774396 1.3071483329771165 0.4757790404515291 0.2876025711801757
Ni 7.6088472880044264 8.716972702933008 5.714929162482722 -1.0031817186166205 -0.4062029320246036 0.18209066808858965
Ni 7.254660825690512 6.664859594515277 11.176367217313263 -0.5804761609513035 -0.22207569312195946 -2.544061840897386
Ni 6.24564081393976 4.470754854466583 9.813417400105347 0.5548229791595736 2.038276483891754 -1.0066316248384342
Ni 5.615293460946461 4.123767994421038 5.451204806259053 0.4384137124291933 -4.0412434938489366 0.7779811067124344
Ni 0.9056005087602099 5.092496654027703 3.697006144312972 1.4815691432252742 -1.21991851602417 -1.5189095315469454
Ni 8.844659489165743 0.4919621276362176 10.1102863473223 0.5264976498523191 -0.5149302567296938 -1.1570678992465364
Ni 5.9127889528431234 7.005458340883646 8.647100704457191 -0.3267283335370438 0.2050843007702855 0.04126826262116764
Ni 0.7751697587795837 8.674586577913985 1.604577150375141 1.6878855166304483 -0.7592804449791376 2.6785025112081806
Ni 6.211765883214404 5.671437148360352 3.8728821425831406 2.033832846298104 2.580293569535911 -0.2629426065396504
Ni 7.016753129763382 3.1966045353283534 3.045942242459639 0.21701190544580692 0.6298665384589733 -1.3676119375798124
Ni 2.0797225923459743 1.0560014268152493 5.66884321564269 -0.19878304114260603 0.4690504634784438 -0.4067667749478737
Ni 4.200330999408653 7.627879526242043 13.263286581153453 2.988252565019673 -0.880624944227606 0.18225187625680225
Ni 2.098018829303207 9.061949713328277 9.33709624326867 -0.6572374742727584 -0.3542008279256997 -0.9718728812010101
Ni 0.22395481011554666 7.350274940743445 9.69444090594854 1.6112314183108185 -0.20069337079144148 2.0392409046875524
Ni 6.132032411172829 8.34017779103192 1.1877409380470196 0.7931914959042856 -0.27252510802176294 -0.04089905220720698
P 5.613981868921162 7.600298350055353 5.54303040190078 0.9653397080681828 0.5847254231459608 0.26114540542991155
P 8.279872865609706 4.912619828284679 4.299292033104562 -2.190365720522247 -2.972569092846145 -1.0458095805894763
P 5.89290748235891 3.7174198003383854 7.7874162960876925 0.2592091076391471 -1.2853122109386315 -1.6815991694011039
P 1.0282315323515383 2.423756011356134 7.180627589206369 0.5727057729772653 -0.07238066775525599 0.712239798650567
P 5.198348735609052 9.142258776114767 8.644518094836151 0.7849140863868418 0.7575446932349533 -0.7423669570532505
P 7.280543537384007 0.6674861663197416 2.5111608813586326 -1.4088318634615478 1.2384808524073896 -1.3200228749469394
P 4.216070103712244 1.8653669373911252 5.195988813554898 1.0386971379144112 0.1119463458630201 -0.7519296610410211
P 1.9371176263146923 1.386654719984586 10.523051906415064 -1.1186026532918025 -0.2687288742041243 -0.29489421974558244
