# total energy = -340868.8985907555 ev
CRYSTAL
PRIMVEC
9.33261122620727 0.00000000000000 0.00000000000000

0.00000000000000 9.33261122620727 0.00000000000000

0.00000000000000 0.00000000000000 13.65921988435133

PRIMCOORD
 96 1
Ni 7.2952927263640985 5.973561686192222 5.2579249383671085 1.299027503642195 0.2818492136361662 -1.3093936773678676
Ni 0.6697361668904102 1.2904574605382242 12.880261287070814 1.4317607043435794 -0.916409558026383 0.05411143713242293
Ni 4.415743584249981 5.613192243048731 11.03389005054876 1.1228161771525178 -0.482211426340434 0.14579800430514245
Ni 4.949064975400287 2.7304980110102512 1.849526592318575 0.7523785756529817 1.288614278728671 -1.7403509335190157
Ni 4.750187033892342 1.8483516165871885 13.097880044831323 -0.9724462372059768 -1.643747645770969 -0.8298114611201646
Ni 4.911193239753208 4.4550618746100445 8.600008550066839 0.11170106262143345 -1.1183540276161064 1.6234636987109525
Ni 4.336920351308821 9.192005933420276 11.436249710596366 0.7923489453983321 -0.20368844886402343 1.1468827311834184
Ni 3.8981849731656966 7.518668771882289 1.2340586254316634 1.9843655928059116 -1.0933353940845816 0.5531728451506602
Ni 8.782509625701572 6.6827654652195205 10.571074669370494 1.0204559323160363 0.4483319999841698 0.09746794974118697
Ni 4.959424173667476 1.9241230857144997 5.869994901570162 -1.1243410984374764 -1.1493975271854722 -0.36007811264208306
Ni 3.019482312220646 5.992105584351597 13.061068493799697 0.6411721932797796 -0.15874222317063627 1.1185545736626863
Ni 4.589040838865702 3.5470361497411105 4.223184753685022 -0.7052533400304049 2.0556070047504016 0.356133011951406
Ni 8.549716975632395 5.383582013348122 0.3039052797595688 -0.9007194009846359 -0.6256275606769612 1.2189962613202168
Ni 2.276737129074175 2.609566037004622 11.734717811157317 0.41129063096015617 -0.46941838834082383 -0.14226016635521307
Ni 7.672414206345071 1.0455697465462732 13.119488772460018 -0.24455304828886915 1.2328447371675346 -0.6970358372166189
Ni 1.6481951073651853 0.6265429764217536 7.183329391578982 0.4959285188162105 0.46740907122027886 1.5789172795591453
Ni 2.121918444340468 9.364621907429237 2.484530513919639 0.22965196280732064 -1.7460153308936446 -1.5172539982213933
Ni 5.976062825954029 9.01524628010444 -0.13410308798264245 -3.397146670723195 -0.05752611924092673 0.8793183096010405
Ni 5.170705155262894 7.641980561706056 9.463257340371673 -0.18016079805572843 -0.5848550067452895 1.7306545321668583
Ni 8.789443755712853 4.347895501905412 9.890217763151092 -0.17144758655244666 0.1113832742706985 -0.11867466572578918
Ni 6.425820017749003 2.6034905072100814 7.383873204159624 1.1603388566883244 0.9059073729434785 0.790914784054967
Ni 5.280195348119357 7.266202977716502 5.5658721719730915 0.49432440755388407 -0.661887314339944 0.4991678516891145
Ni 6.654711636398644 8.448887445831744 2.3018110551863002 -0.4123386126086963 -0.5901121413791708 -0.16040032759934955
Ni 0.35422951833269367 1.6675416100749914 1.559213327294444 0.07248556876423645 1.257422426506899 -0.9596899659815729
P 6.90704677400971 0.7350719103399089 10.790755934173388 -0.03961812861225435 0.4354428027263275 0.6110481202008896
P 6.1236767349559615 7.530539853139826 7.616708784239639 1.2220674440463728 -0.7824504553376976 -0.6212289173886334
P 0.9292975452386698 2.832008821417661 9.575276670823097 -0.3290886062391042 0.8997529233063085 -0.7130887769144235
P 3.509715038146072 3.6051969818141987 6.177805879054792 0.1302160907064854 -0.37381628816378204 -0.5935314514733648
P 0.31807964942462125 4.865724758710191 11.8169325149546 -0.5624776674913539 -0.7182628649161952 0.12396445336981876
P 4.321390886519088 3.1292058203533957 10.882218322261625 -0.05599528441869711 0.4404194300053125 0.7791776981236967
P 2.1142750358892712 -0.2078764450838228 11.401377476141246 -0.5134742410094577 1.8977284151316416 1.1274667885506517
P 3.2861523404068502 5.766695029624174 8.955298253014984 -0.4762251268500121 2.139084039529135 1.2306760116509903
Ni 8.755491716707414 9.058661586716122 11.530239369757354 -0.18042819278450217 -1.2874315712744795 0.7263749525003684
Ni 1.637406608989625 3.822740145425189 0.1150692277430623 -1.533579217743978 2.2149305543458047 -0.6662756732156268
Ni 1.2752919675795 7.65714605466478 6.4923503354130965 0.8219269161657652 0.13472837675454216 0.7896099492006143
Ni 9.355289296377713 3.6205584596050047 7.523470400268298 -1.2625417500113352 -0.6645954572997265 -0.2729760795162524
Ni 8.954574975658492 9.194413747071568 2.7987333967134576 -0.05339564201232094 -1.0113154034673486 0.42114335538451986
Ni 6.711901876922375 7.6855358574835115 11.593850446684531 0.354155576510061 1.1704983137198293 -2.216281926167377
Ni 0.2825364002348978 0.32973234758355224 5.17349747248951 0.7982822801636317 -0.14549589968369137 -0.09432631878841174
Ni 3.943000171435108 7.999139586647823 7.506315194633389 -1.140518222417971 0.6858556522300833 -0.7882950870439327
Ni 5.746079291811361 4.867264639533691 6.495600883842342 -0.19893010824343157 -0.1601882115885435 -0.42651413277813
Ni 2.2623555754437787 4.844623725122697 10.70460753481789 -1.5053631603210784 -1.0825884399807228 -0.4331054128424025
Ni 6.293511590871568 4.795394201825916 12.423292786716331 1.6031280724773938 0.16764158254279515 0.6609180084481391
Ni 5.01822895590312 8.94180796374001 4.02830863579597 0.4626836407201515 -0.5791330166598477 -0.16310718500755136
Ni 1.3863220412594635 6.118777114153913 1.8918014538597618 -0.2862869376925457 0.07918226405812169 -0.5179811277408756
Ni 0.759265771229876 6.568972938668306 12.839871612962035 0.2658700645990905 2.320111042239901 0.23919152686663966
Ni 0.8145334938769923 7.147893467416351 4.309893109703612 -0.4331972012252604 -0.3407066500940068 -1.0693439162659906
Ni 0.8514859673354958 5.833861831361982 8.153420712984962 1.225581113626586 0.37515660424176034 1.4926611393733777
Ni 8.02584018686623 6.259083588702502 2.6353007119791956 -0.0539887955116296 0.003721671825961332 -0.3008774339122109
Ni 2.431303833309491 3.9729485202994432 7.992213855986488 -1.1280344881286637 -0.3198771149431652 -0.1780362955135579
Ni 7.986391239951444 2.1198186068538756 9.138495541434162 0.5232706582745892 -1.0173037598402996 0.19276280309045513
Ni 2.9624413934737404 2.3106611702464592 9.369923763767606 -0.11602128726334213 -0.3279346951403191 0.381286371288582
Ni 5.126935209431254 1.452742234113149 9.437373343620276 2.2256510260871023 -0.23704259884443693 0.5149030030361842
Ni 7.8090996278056695 7.842893012423232 0.0791937375999046 1.1466073660348446 -1.371682250994444 0.3755700376300951
Ni 3.852305857236412 1.41222936953849 3.404123076925831 -2.7653870290065665 0.42357819007825764 -1.3141687301590077
Ni 8.567626256240265 -0.03728564767304275 7.4746935086075155 0.45477055652066195 2.0565845381723227 -2.002876250015589
P 3.849608732642522 0.2413982507197865 0.8522428420917743 0.5568446375752927 1.6213548798980657 -0.0025844728977245813
P 0.3853052466120534 5.489367159617131 6.063915360087537 -0.5155594056732605 0.38449202271007327 -0.9371449908015215
P 3.249111207143357 4.940217660123443 1.5875424681413404 0.9668438034175348 0.42984473981325966 -1.2667159359936828
P 6.0075323904197635 5.022680611374696 3.6511638242873676 0.6128797740929897 1.9238179131298419 -0.477318617024507
P 8.331772509746187 1.8815477140974541 6.141431094220378 0.6708686919029478 0.7062838381774481 1.2875490706889503
P 1.6702107368357269 1.5783591788666422 3.7834946494313257 -1.0411484276683811 1.1214496358222945 0.8925090972597016
P 0.247690297090723 4.01981689300019 1.91765838603911 -0.5052467108933427 -0.012029677471024444 -0.062310942224079784
P 0.31826163534012597 8.307013092626498 0.9659159112215286 1.3997535553093634 -0.04437544079158164 -0.19251186342191362
Ni 2.321244351178886 8.338202678760688 13.590977882349566 -2.0228619491088966 0.9904228762890556 -1.366131496379544
Ni 6.664174904004888 5.672314334060126 10.214132161005125 0.3202815494704355 0.17980392893694194 -1.2823904093061462
Ni 7.596250767553595 8.564546494593262 9.385441096162973 -0.8751253545656155 -0.35919776691965877 -0.06970003559929931
Ni 6.263693898561954 0.23170353435946492 7.132489059614708 -1.106284755156398 0.19842951445792922 0.05407287058500365
Ni 9.118632945333207 4.656151644937201 4.007546375989648 0.6144653734125547 0.22504608860419303 0.18570461069209307
Ni 2.9379526220745453 0.35572833566756823 5.193467393617558 -0.6389157931454351 -1.1897502199709058 1.1537514332787937
Ni 7.343271679779975 3.564264149742221 2.538183694854842 -0.3854446164313297 1.9860116130497667 -1.146473668670458
Ni 2.5853105808817154 7.1577673699088615 11.131690214802086 0.1921616791713465 0.025504314918691564 -1.211466785712391
Ni 2.7033867759055785 2.246228823546748 1.0831652369062266 1.2767422098814334 -2.2474699217344067 0.5286594333903282
Ni 7.201313333075266 1.3848474887133229 1.7732259641446426 -0.5874073408534981 -0.09493644156858488 0.077387376941228
Ni 6.009398912630068 5.933123482505975 1.2601227415763554 -0.09132738406108788 -0.49519035509860526 0.6028902669804455
Ni 3.461325449843928 5.642813950526264 6.838556608024797 0.10484753003470974 1.9965037708303421 -1.545565443571577
Ni 0.7037992639673623 0.8096609376469924 10.074302582881268 0.8601427651138542 -0.4345357175310258 -0.9993440900380853
Ni 7.132923959289709 3.4478118290413233 5.007347131417045 -0.4972107279627437 -0.7472001167758358 0.23402720905688082
Ni 8.624377864044574 3.249204533253873 12.920419512425516 -0.625863073726535 0.11164835500662708 -0.16979051056499792
Ni 8.837413376517677 2.2216187282038833 3.7165508970976497 0.864885422005162 -0.534991289145627 0.7561789232356784
Ni 3.9481611053465997 6.389497495536477 3.260878696418222 0.2860938478451331 -0.8033926048070035 0.9862929132810822
Ni 1.3348526913103167 3.5334851984942994 5.458538745530637 0.636866109705258 -0.6005464493386173 0.34054004260915544
Ni 6.510597456541033 3.2537868452801697 10.655612260058504 -0.25685680535688665 -0.6454885612669464 0.051340302145189
Ni 7.248928314660134 0.5313568765239601 4.868993039100434 -1.4915409097260055 -0.21906236021693243 -1.2120252293190223
Ni 2.4154850575771603 3.713445937400808 3.1464692842765025 -0.8031709757145007 -0.40185313969634023 0.01149977310948342
Ni 3.2564559720409054 9.304286576981143 9.440364445462288 -1.3741484531467496 -1.5729687752851942 0.007069505252271695
Ni 4.301876396810354 4.065947989427865 13.299394448961321 -1.0925419516490087 0.06751948300821276 0.7256735555579695
Ni 8.40141245341265 6.934661970111165 7.264013547163815 -1.9474499507264846 -0.2172726153063613 0.28110847881539974
P 0.45917192982374894 8.20698616737628 8.752295297422267 0.7760656348572763 -1.1140533433582231 0.5725450790296849
P 7.804862622388279 7.827111567135108 4.1063031328757535 -0.09485030961268182 0.22032220076596248 0.7102243108824349
P 3.1223370186194757 7.449803434933105 5.245331513014184 -0.11324963805547593 -0.041166961156612975 -0.6428488096512541
P 7.148276104469464 4.51143084536124 8.274905177564841 0.03900980560429411 -0.13370379214476974 0.38244105371831555
P 6.427593213848792 2.971410032694253 0.01973847237397012 1.3471498130707185 0.1387171861989611 1.1406606615331063
P 5.643905866019292 6.762885931096842 12.996119120447732 -2.0382461448744507 -0.12277454682677563 1.4449352940523243
P 5.784436323233119 1.9042259589526538 3.621796897091542 3.847297469083658 -1.406902507649319 0.5162600312847109
P 3.846090338276098 1.0980096880447783 7.697025234949042 0.21995196191073732 -0.46094197543869647 -1.6123411064352295
