# total energy = -340861.20469904464 ev
CRYSTAL
PRIMVEC
9.33843172686891 0.00000000000000 0.00000000000000
0.00000000000000 9.33843172686891 0.00000000000000
0.00000000000000 0.00000000000000 13.66773877541991
PRIMCOORD
 96 1
Ni 5.34223649197949 8.47130207890685 3.280188489589719 -0.4156555927970712 -0.03693595379440091 0.5775075652412828
Ni 7.603864517937944 3.6587600968615663 6.130090072260812 -0.16280765148926155 0.8463477682122909 2.1257451563283842
Ni 2.2158136811586018 0.6746652539430479 4.579990758479693 0.8559505814093774 -0.41568953135880027 0.5369568975124301
Ni 0.6504675103137417 5.188665986428417 9.844530566772013 -0.11802906172199028 -1.7473543614200424 -1.6178957177048716
Ni 1.714918893882926 6.078711889990158 5.35650935064074 0.4907878551555354 -0.5162618310569238 -0.19781296391985287
Ni 8.704333297850086 1.282988423025291 13.202064615025568 0.06547108511961629 -1.3641921132649861 -2.47943819137973
Ni 5.911441905470192 5.199246429285782 6.664717141698334 0.10782512460579494 1.0041913908280578 -1.3549695662254535
Ni 2.2520187799741396 1.5488909207486885 0.5106030206335899 0.517995783028895 0.5921906211747543 1.3104156908744786
Ni 1.7561013766728462 9.154090834387077 9.498094369880365 1.6205308413348734 -2.046591431515353 -1.5693180659064843
Ni 9.269803338752133 5.827134546144251 12.469350737211677 -2.9090384192823513 0.9509461583506719 0.7508863073781714
Ni 6.964807637039396 1.08209074677596 7.00866558044594 1.911836058177617 0.12059193735316005 -1.853493356572666
Ni 3.736735999649737 3.1530933711038838 3.9519168068349373 -0.7466632704357593 -1.971197945075702 0.4318316883363015
Ni 5.717538714393117 3.4075936440004124 10.890180886259351 2.5669258899797534 2.5199916873220602 0.251094963172445
Ni 4.2031999900894865 3.7028001396818073 1.392332117126691 1.4434743932360816 -2.909927506755524 -0.19859097973645798
Ni 0.5262915855059404 6.570305599520083 7.340231259062154 1.8376221938683641 1.7263492199232848 -0.30404888966165705
Ni 5.994395192232745 3.989602047038729 4.104982103243395 0.6870841253205456 0.46183466245629495 0.08540690481159485
Ni 6.253424604393018 1.65402298225638 3.1865781848317334 -1.5712636196686296 -0.01930898474125707 1.339038496817494
Ni 0.1983641597910758 2.8730618265638994 0.7268670858694999 0.6551973039142781 2.0794755838378833 1.3362624767342535
Ni 3.5587548342318036 6.468946264326933 12.014939860272369 -0.2067130946229601 0.33622650283546607 -0.04594767037470796
Ni 8.909330545515466 0.3178615304315868 9.447892829975137 0.4748480439968274 2.0881916235546423 -2.547658814220025
Ni 7.226442471580256 3.645873061430707 1.8855189630656772 0.0029950780725819387 0.2989359939151239 0.7260972733589495
Ni 2.540875142254821 4.765905855275928 0.37202536681022974 -1.0215702484261373 -1.1118038852024144 0.4113183988742981
Ni 3.415671387223379 0.10459323401177807 11.654084191345364 -0.6592637606741678 0.22433517858009752 0.11129714231479541
Ni 9.26716990107713 3.6387104844919618 11.912431898008208 -0.0875640603639137 -1.3344308228421533 0.7885835648186289
P 1.9199815105686073 8.377609595951915 7.374783455507212 -1.4384777113524387 -0.6911251281591387 -0.8593794045852685
P 2.0344333266849928 2.7580870582851023 12.51325163740299 -0.7609349498634249 0.6403301569944585 -0.6172599054385564
P 7.824625037927447 2.5992683542469686 4.493173228774176 -0.6339769610829211 -0.9835690865920157 -2.950296911711506
P 3.318318239131561 7.286806092612918 2.9553885045747057 -0.6541246396753896 -0.4756075478706713 -2.8533683794135567
P 8.40399066485929 5.959544165980596 5.58712565120541 0.27032835748076023 -0.3595235256901937 1.0734204003282093
P 1.9545430454451365 3.005350046791112 5.682157265233378 1.2010921273462865 -0.0011629099598496101 -0.25944153536492737
P 4.02354724543813 8.8475194676047 9.50956102988439 -0.6991986491958926 -0.1545976048746434 1.6376636443604182
P 2.4417103384575056 3.9020822672865454 9.609964109694841 -0.29484614011646637 -0.21208772867131215 -0.7945202420180382
Ni 4.780053578955459 0.3629250653411193 5.201941500608496 0.3682683617623593 1.0443306820511047 -0.06149770229416505
Ni 2.544040870523706 5.104872240833416 7.725757196250931 -0.39467539100097837 -0.9305364843460683 -0.019550668438417945
Ni 4.4144446484093915 6.156136825321501 0.9721073701187528 -0.9598843413805662 1.4311549524387805 0.33309464207470374
Ni 1.3667448148944048 5.882763582420794 2.1359663567035154 1.2879136531172206 0.3771900897320214 3.350184185930727
Ni 7.921501926014212 8.958870924472501 3.2929270439601797 0.04590344740033385 -1.2812046165281614 1.7853382968629832
Ni 3.639625650776182 2.766771799553725 11.035865086432628 -2.181942015234926 -0.0650864480866879 -0.10796062174239471
Ni 5.746179683716629 6.9799919266122785 9.10577565763912 0.8728345016489097 -0.609075312745235 -0.7092999992959527
Ni 9.0598193686809 8.457247739542037 1.1340955377983604 0.42684066287961325 0.15814598434753407 0.5696209634043544
Ni 4.540364058372948 4.232261188829221 12.793071199548569 -1.0978119417986965 -0.6976539304165921 -0.45757948672436677
Ni 6.423225303841797 0.5497964175200512 12.86907762713937 -0.26214427900807113 -0.6638395529703083 0.23687059204294691
Ni 6.864933112450236 3.1035529921468488 8.7477075105064 1.2971002047124953 0.16294057752270003 -0.6415470601206951
Ni 7.357031097279631 8.628122358610055 10.423017447302378 -1.9265764497115854 -0.05783645139249394 1.3888646763110017
Ni 5.5469442482692495 7.745285724144418 6.661942693708111 -0.05431146895837098 -0.4491766073726522 -0.38885467055414324
Ni 0.47478453288097827 3.994308616500434 7.020570212885983 0.3226294808773218 -0.24608902531742136 0.06814786062083102
Ni 5.282713329779274 8.04641278537883 11.33390392837937 0.374198096983233 -0.2973365106384879 -1.0452997308325933
Ni 9.204807855709538 8.147183799389268 12.019026357884357 -0.11696411079258565 0.7691305983003399 0.3599996939956639
Ni 4.61783568586165 3.066843618031843 6.007463393234155 0.21800923636206967 -0.12372534077581918 1.9744403632723997
Ni 5.908201469749534 5.868317028934172 12.991172015572145 1.8638718715935128 1.783539810201664 -0.0669299290533299
Ni 0.10390966082805422 4.650725641504756 4.167306794885102 -0.47012724148239027 -0.013353024268138294 -0.10159251343252182
Ni 5.944752090529522 9.22454929984058 8.70783894502454 -0.6547231924913369 0.6382887010843975 -0.5388127197742463
Ni 1.5414014987084355 1.216965712520816 6.94744842677677 0.8695278058731799 -0.2707795860855659 -0.28324352288053156
Ni 3.548491898044474 7.091315368185665 8.222702760857251 -0.28843432305285166 0.426562212407246 -0.36115257665318445
Ni 1.8464693780238792 4.962171669515328 11.941297923530184 2.646901596473448 -3.1080358904286083 -1.0720021798244441
Ni 4.89812870648284 4.622187394927432 8.551658347877142 -1.3211143082389054 -0.8660200498302376 0.5384933887616146
P 0.223861813081234 1.021372265347375 2.469008441335396 0.7012233929354053 -0.14940860447453624 -0.4209062996730493
P 5.006351788807644 5.565126174344527 10.467341378439356 -0.06679263214451722 -0.10314674529351912 1.984964659842491
P 7.689152412568407 1.3054473507145785 11.149198158458711 0.273545064645845 0.3941372591093212 0.024903705220215178
P 3.4465909338259695 1.255449388615433 2.8951276062882307 0.5477061656091342 -0.15015679549447045 -0.5051958030507493
P 1.4177419891610157 6.743561518613368 11.056954066225027 0.48272050476636863 3.1490498709471253 -0.2917574738888136
P 4.662734864377281 7.91618835850685 13.306814734686071 -0.11273721719543163 1.2433299529695747 1.3580559184602612
P 5.3097200735952494 1.8599540730689232 8.002651961659591 -2.5739012928563216 1.130220182926073 -0.03878869073242352
P 7.764728338468367 7.147887586040843 13.60192784605275 0.1572476409029808 -0.9296425117768894 -1.6166441046859579
Ni 4.633552266028415 0.3804981256844462 1.2154799680736785 0.36767906491779256 -0.7655570220164686 0.6212284031680011
Ni 6.503517137634933 8.116889927695276 1.3627825184209892 -0.6048918707915066 0.07956304443630813 -1.1779822808017002
Ni 4.060760894852605 5.124837807319777 3.0117954321928355 -0.9034725382497409 2.8523967595289066 2.1269088376191823
Ni 0.6047465498286059 2.3058361605451845 4.130923332028456 -0.6275438038630675 0.09671230252208506 0.005575437205248463
Ni 7.6542173404330125 8.010786669314534 7.792332741898526 0.9441702730794191 0.6718742503493267 -0.5972276693780295
Ni 3.7013806980981183 7.491504510471206 4.858403019002496 -0.06867082300383658 -0.3478383760427816 3.1559013466513197
Ni 8.073652989981596 6.523548073141596 2.1572196928898144 0.7914477737403015 -1.2597053090038048 0.31376071763278224
Ni 7.649884308230172 1.0371075223770836 1.547215606142677 -0.7566406933634452 0.886303225559306 -1.7866770702790649
Ni 7.976467933656268 5.755107224203514 7.872221155452087 -2.122197548186442 -2.4006284801696784 1.1133005243525986
Ni 2.45302851740113 8.787958951678597 1.502070826879341 0.15817272382041148 -0.5201295415424462 1.4986764923295222
Ni 1.0295247160221142 0.9446290355134604 11.208734394462986 0.6892376813284388 0.4194654534614647 3.4402345030516046
Ni 5.39145936426649 1.241367033956204 10.614802682121685 0.6352913090189704 -1.3637565683894641 0.01887832496174168
Ni 6.738920318171964 6.531093525770679 4.220406050075978 -0.29287436110207626 0.5484831529844748 0.6250475198037752
Ni 1.951339963450365 3.4621114069318306 2.5067721243635495 -0.3161348742919136 0.13108306669247102 -0.6086330830014938
Ni 1.690853755980517 6.961118956608099 13.85225290623831 -0.08175182455751082 0.7354828283389075 -1.8097961727950314
Ni 2.8209253636577487 1.8207886914768772 8.883688146537498 0.8079982218998149 0.8452190539244863 0.4956043027075722
Ni 7.134421567858743 6.434263329841272 11.153038121479847 0.8295880322554486 -1.3207240147790222 -0.5701189860866955
Ni 9.095557545922855 7.38224486225305 9.669555442444802 0.7651042507497662 -1.0038671747194194 -0.42740656268541233
Ni 4.4021646110241885 1.8544630753636009 13.132086144949707 -1.5944652545960734 0.5571251449301888 -2.221906728553322
Ni 1.2280410922461777 7.844749357748825 3.63818753232955 0.3316589380694417 0.18766816217636711 -0.755572399999931
Ni 3.7969315289159105 9.42733333924718 7.352696197390496 0.6138408524546783 0.5951856992473362 -0.045129802459102926
Ni 7.4171892728199165 3.9228976310368244 13.272863933227786 -0.6714657020569985 -0.11537748303175614 -0.4073691844185629
Ni 0.4362663045899164 8.67498260773473 5.627663782223787 -0.5432219045855354 -0.27657228150794305 1.123746145165955
Ni 0.11189962279518702 2.5380736128133297 10.008597469297207 -0.8083509772535433 1.3478913192224335 -2.8463456682388206
P 0.012362215582153318 5.166589934429466 0.8675598944211859 -1.3123666439532626 -1.8795504586710339 -0.8884657804282634
P 5.878000982370259 2.1757237948508634 0.7645345830534956 2.271428746542849 1.2463422574333372 1.4643864607984005
P 7.8766587780874096 4.634598170353239 10.005754850757242 0.005408572610081008 0.04027247436680161 0.25864449338492873
P 1.167369302974951 9.183329463324773 13.463241866424317 0.7728805522610754 0.2681076956803576 -1.9987797113487125
P 9.036286521372373 1.889071302397488 7.523187940768176 -2.1439143710382433 0.5142000634318887 1.4869617749957553
P 3.8481715024007834 5.2293255170559245 5.958532813852217 0.1712275001218406 0.5557652884681847 -0.35805182624067367
P 6.091001265806832 5.572858395603043 2.2059728420737907 0.1871770814725615 -0.5509886930151477 0.8688086683189682
P 6.880285493789607 8.76932878089268 5.280967976937226 -0.09848584948274007 -0.008934069264836227 -0.35265019560912814
