# total energy = -340857.8786913234 ev
CRYSTAL
PRIMVEC
9.33305008805838 0.00000000000000 0.00000000000000
0.00000000000000 9.33305008805838 0.00000000000000
0.00000000000000 0.00000000000000 13.65986220303706
PRIMCOORD
 96 1
Ni 7.210098656206841 1.7719729239974302 6.766931830472487 1.0724474948919789 0.8511580451167406 0.4371176193255891
Ni 4.861641883218189 4.1630537375628025 0.494582599664101 1.6756843465785658 -2.3828711561862574 0.31031029719033654
Ni 8.599967169157296 0.8731553844894364 5.169356283794219 -0.36258442400370455 1.6195489370375784 -1.7699690134957646
Ni 2.8756154513102934 4.363284998025464 9.743333958328423 1.4643067566004007 2.1272330537278203 -1.1856325982581064
Ni 4.847726305267698 0.6908678464731959 0.22851133608156265 -0.7877186457151724 -1.1665580981251586 1.6519612919300128
Ni 5.909780760583656 1.1961050563239368 4.645282178586351 0.026555639001341367 -0.18929772735999012 0.12113881099556556
Ni 5.703473684396132 4.295088399712764 5.746035193536053 0.811309545661235 -1.5377798860888872 -0.18463194645320458
Ni 3.501359139619214 1.0793205983128769 4.992051661316387 0.37578318208216566 -0.6283387889605373 3.4590727188040296
Ni 6.472955679891845 0.7067078993890731 1.9858295045472285 -0.7365871171466798 -4.5831039993105716 0.8455553542179824
Ni 1.2052141133860959 1.4567211520244754 7.260680988747601 -1.0124407753210434 0.35377531035250687 -0.35460706222518285
Ni 0.9897699809856078 4.363275664975196 7.488008894055105 1.2622635566492841 0.6549877590066332 -0.1982708773928779
Ni 4.6305088933161755 5.0050255344947745 2.3932488811427697 -1.9591111891144968 -0.20473360229908613 0.956178610394205
Ni 7.574778262402329 7.591792413041998 8.2822748045391 0.27536180613960964 0.03191304665851278 -0.9974373599336755
Ni -0.033976036197831266 3.7255390070711165 2.835009216201644 0.36347916790383206 -1.3899982756948124 1.275453830087313
Ni 2.017329482508799 1.6143563710612212 3.423858423493741 -1.7682258055524125 0.6842703100208344 -1.1672610377294543
Ni 9.15373437379473 0.6480067464196523 2.8204197920217604 -0.6781845088380708 2.0208937696389326 -0.7602978305000583
Ni 5.0050255344947745 8.286507342835913 11.68053453775611 -1.2418680237120678 -0.4511650985575907 1.0937447137078582
Ni 7.407063349075489 2.522116839336593 2.562781872661934 0.9959558902921428 1.1967014544777583 1.5063363228676252
Ni 7.460644390667554 2.5200635682775 9.873935997262153 0.6447673668302056 -0.16685739607860295 -0.5850594094466118
Ni 3.9942561904048044 0.5737100664513917 2.925682599476227 1.6148078228081673 -0.7000607400858717 -2.0363206457169643
Ni 8.43242025073529 7.863486839411371 2.2881774012188094 -1.9279759011622732 -1.289817812118469 -0.8887321467157727
Ni 3.538374016984503 -0.03748246318374634 7.719147483787281 0.5768830442834065 0.623193754424488 -1.0428672101317007
Ni 3.669783364766468 3.0032169145826666 6.932626138416174 -1.6184883569835478 -0.10800201650329141 -3.5655086763717816
Ni 7.926970247338425 4.787593462387074 8.793304105386538 0.6248351466826529 -0.8193997788685372 -2.6631309138481165
P 3.0850211001869936 7.375190982408203 8.762378110016487 -0.00010927188435465052 -0.14110059882947312 -1.1500338752178902
P 5.097105408444836 8.041141451274276 5.065814490809283 -1.0425450509055916 0.41171409165082 -1.2783123825820308
P 8.292424496706209 7.153801696986613 11.771031526380614 -1.1512903733328108 -1.1052077200421353 0.3078137560207279
P 1.2153311398772642 7.341041351475376 2.136634797397409 1.6906797915461338 3.536918780549231 1.0774737444619766
P 2.7141350155628814 4.3401297003090535 5.084842713696915 0.31467680168914836 -0.31292459488473207 1.4514355570646873
P 1.9555446897306308 0.7607117281583048 11.131476790284212 -0.22220116295623024 0.3992979773746543 -0.43798819485600055
P 5.179814899925217 1.5438918415332503 7.0506612251632275 -2.0228796897207095 -0.036701469186091636 -1.354202349042126
P 8.06367143462269 2.836659299489134 12.042110904737287 0.9709421418566246 1.2209528708259552 -2.113165777001477
Ni 2.2606234369108056 4.282890103011697 2.9728910343448867 0.5514532913563922 -0.35885786708173684 -1.160002299284512
Ni 9.2867770053737 6.851345536931916 9.493700062878952 -1.2551858238668965 -0.9049514367881125 2.916602347672538
Ni 3.282760436227937 7.730080218871924 3.5939644642993978 -0.7152022237130005 0.2523136660708945 0.3708098972372904
Ni 7.070672218244144 1.3372767746868628 12.9949005406436 0.6096543251771563 -1.3840099193218616 0.8585445673887988
Ni 3.070312212963671 6.367604208459826 1.5219134414557112 -1.2527111370741588 -0.40502356700452175 1.272484205936028
Ni 9.488072233566983 8.853826136463363 11.33726214896172 -0.23808878072076414 1.0134013394620998 0.10085692081807793
Ni 3.0210243744951657 6.3693401558097875 12.918760583247291 -0.42344654959639977 -0.3098158740524213 -1.6294625966068645
Ni 8.461212710813937 5.373037039636156 6.050609022696697 0.06093437359152731 -1.1135419509394433 1.6908245446541137
Ni 2.7986737848959096 8.68084738278503 12.698153407438209 -0.18694645351899417 0.2321436188809228 0.24631656794719517
Ni 3.6736472475776702 5.486209607193265 6.9642353130658865 -0.8208933326949281 0.6668369450357354 0.6228032038542887
Ni 8.812704716979887 3.4018501576553426 0.2542602884676182 -2.0076955257811036 2.2291042747430256 0.08631193312436748
Ni 1.329325015858011 8.66170529668412 8.540050853042901 -0.44386445113111944 -0.31834576590030333 0.18038936912676676
Ni 1.4180169925605686 5.946748972697602 4.421656694320403 0.8772804532354054 -0.05216434070838113 0.06701451834733621
Ni 5.55229693614526 7.985292478466941 9.009212090385375 -2.929711631360987 -1.1238798425303418 1.037715233617116
Ni 6.728055942883638 6.341117011797524 0.978551654562744 0.10934490368443105 -2.204642285045919 2.0208534033193004
Ni 6.907035847884685 6.17068618084252 10.174043028564244 -0.934328604398649 1.0920156468318933 2.958552466852079
Ni 6.337598451846261 6.579716441914424 6.199842629881644 -0.061490503205313456 -0.2541666601192332 -0.33918712812568685
Ni 0.5038885840869275 6.945105359930326 13.326684877862363 0.29250489357779946 0.15838201161774015 -0.24171737861228693
Ni 3.471913366021764 3.9480482585249392 12.314803034180375 -0.7163409653031341 0.34413444482863315 -0.7685844959888827
Ni 5.809851791357697 0.9199204994703376 8.994691730777479 -0.0027225411374856338 0.9315163317608344 0.8216101562562946
Ni 6.446468483229544 8.0677406445398 13.448120928127295 0.5908623892816339 1.952784732675837 -0.6535235157562809
Ni 7.249586791893311 5.185806718197662 12.770468680834446 0.35680458409713384 0.17582026169884557 -0.820635193937535
Ni 0.42381847922250765 8.209547010320993 4.140659083443284 1.3329035875643496 -0.7374371238518009 0.9832911503402807
Ni 8.763855531874007 4.671770308553679 10.885435185883129 0.7934200669753239 -0.49700323993762796 1.1308853273138975
P 5.368295850099705 2.357528497849736 2.160047687301233 -0.555879702558862 1.0632707134887172 -1.0494145243319153
P 1.517647304177932 5.152077074526922 11.478983583985467 0.48350649100277376 0.7596198305964272 -0.3721414715645204
P 1.4372337430636273 0.3919321129798171 5.4268308747743434 0.40927694296423706 -0.4652202910990762 -0.6134420743543629
P 7.977284721336477 0.38406995143354394 8.481709022508824 0.5968512598752173 0.608659565364055 0.4705537874968477
P 8.020776735588178 9.379342197937731 0.8564417580684177 1.8312394302704722 0.014863290265077626 -1.4010229089400903
P 7.4721240424979385 4.442186604996254 1.6808048890586116 -0.2327367723802314 1.5993848033848777 -0.30787006317996013
P 4.341986977312507 7.840760862007317 0.7378989533867524 0.7996287668891972 1.5245155648798132 -0.879929203712162
P 6.047853906257404 5.883498891027262 8.275376747085573 -0.7532051853193351 0.08650939384715424 -0.89063039217975
Ni 6.0594922199423555 8.850344908713174 6.873478865643914 -0.10724225551913144 0.9971295988852698 -1.0924619903406927
Ni 1.6583990352787705 3.1115549621006386 10.996066363852098 -1.3259266420258842 -1.2264496322744685 -0.4428632635601147
Ni 6.078475644188699 3.5603160181659943 11.421011342242027 -1.2683573282518479 1.4367219050035966 0.015613795277856979
Ni 5.13355096974374 1.547018413373233 11.864219233397561 -0.556927427097086 -0.9754456861539331 -2.4376523656921956
Ni 5.614847039045454 7.5450058320454785 2.5717285346494188 -0.9916845166102985 1.880386324308768 0.8129409106170709
Ni 2.279728190810641 7.434175860105789 6.029763654921766 -0.31351054929518907 0.8959713447766893 0.7104438830924087
Ni 0.2430027632336263 5.669930701730764 1.74790205404967 -0.6321849021795047 -1.6668258677466712 -1.7164576718411857
Ni 3.6011014478398002 9.198411685430544 10.133118536441435 -0.2695950788591615 0.3481304533619037 -0.20472588898960226
Ni 4.242020675885473 3.0150978875746013 3.6939410320817263 -1.1471095024822437 0.795497518329643 2.4153264485014856
Ni 2.751831205597779 2.2812868102054984 8.772814326826841 -0.9182862062238056 -1.1483932542906738 1.4976722194347238
Ni 0.38310958056090444 1.5118141477600533 9.622785481144035 -0.1840310796444121 -0.5267383051082154 -0.1328715260514615
Ni 0.8564165588326925 1.8904373310568392 12.636902465135405 -2.972860913054951 -1.3745852835738521 1.6047833486926297
Ni 1.6280479558052656 7.172318468719526 10.747429238171312 3.31300089201221 0.06154989568833915 1.259283648085354
Ni 0.7906894856210654 2.859879928557424 5.073751316757704 0.0017758609535001675 0.9194537441693454 0.5489472371050867
Ni 3.471166722000275 2.5033014099950845 1.3948355623034066 -2.3832871606777535 0.20888799078709186 -0.32615574886302534
Ni 6.2590235016348705 5.568741770718543 3.508357994015641 3.279426398490875 -0.5916617452544778 1.3630248324297622
Ni 4.0585329076046905 6.506004010892977 10.411246234360958 0.4326598406645516 -0.9801091530678733 0.6213551585538525
Ni 4.321398268419963 5.883433559675383 4.743319338522864 -1.0960980444313833 0.5544486265392903 -0.350332603219545
Ni 8.941892798797925 8.486477277891053 6.446758741092896 0.2198779141396923 -1.0846175545956094 1.3045497190120048
Ni 1.5395893053594232 0.28935069086752097 1.2182346518158274 0.4083762855268387 -0.19748951914216312 -0.2910488778575633
Ni 4.91491493415139 4.093494513910886 8.296249180706283 1.8825738188783898 -0.3407519015096454 2.217536110289452
Ni 8.577558515462373 5.826651281841187 3.9250385563927193 -0.6836493886073839 0.28571795256295307 -1.2663007028331352
Ni 3.0840224638082523 1.7542401284870797 12.859926900964055 0.070385234591782 -0.3418988706298951 -0.3736813052478145
Ni 6.948978575791798 8.682704659788483 10.877471294088927 1.9399299882003558 0.6737709531514073 -0.4589431998411128
P 0.0946735286197068 6.629414934594746 7.560447363714886 1.6350817425658548 -0.8365953168112172 -2.9021185522340662
P 1.9245869619896665 4.60665361682962 0.516815792013973 0.5588619251156375 0.3102295645510722 0.12219604861548633
P 4.961309527036627 5.45385192191201 12.683564916563352 2.1857343923978227 2.078199545338937 -3.0777320972387443
P 7.696107915894201 3.6570437511498213 4.6556222649789385 0.0961299476560538 -0.1174233098171913 0.2390966531599882
P 0.9655973807899195 2.535099112260223 1.2373226062251792 3.233148341359942 -3.0148858513364853 1.7951282863702116
P 8.712075768983784 3.1064497836037113 7.674643766886462 0.04432504716962044 -1.208707734910015 0.5745124871687008
P 4.454926218612901 2.5076132792191803 10.016886595006275 0.7704511168839764 0.6821967153212575 0.5858770202519007
P 7.557185462646008 7.648985345088012 4.521482999993407 0.38526695320288484 0.4094299236023336 -0.08396245905558443
