# total energy = -340874.64016771666 ev
CRYSTAL
PRIMVEC
9.20080816175365 0.00000000000000 0.00000000000000

0.00000000000000 9.20080816175365 0.00000000000000

0.00000000000000 0.00000000000000 13.46631277666567

PRIMCOORD
 96 1
Ni 0.7344775289636072 2.1895347658705027 2.0484412898264823 1.0259604070740334 -0.16215716238945618 -1.0036067219691813
Ni 0.061566289027053106 4.045264204619404 7.149117339723201 -0.4930365419803961 0.25504520606944464 -0.9287025164611231
Ni 7.7906924665640895 3.471510996406174 2.3206904488102214 0.007366724777716345 0.6830053272654818 0.004327937951392547
Ni 2.3455068691054914 8.165625407032811 12.96133974392021 -0.6596129164834705 -0.5002939948737578 1.5793181145419897
Ni 3.447257665582234 2.996261642442224 11.549760006814317 0.4871338033427159 -1.5771936119998193 -0.46830612911325153
Ni 5.349773214816619 5.880797869028946 10.707941247176395 0.6873623186825968 -1.4678687629200462 -0.8677457742720927
Ni -0.0038735403174805505 7.376867709178525 12.82835954068368 -1.21598755640088 1.0293082405003435 -0.013006439561996952
Ni 2.0843235223303833 7.945560472796471 4.7626171890725715 -1.5441834756223856 -1.682553820004889 0.4362226183151455
Ni 8.499329525262509 8.21229190700968 7.580120006307664 0.25202827361999175 -0.36039178722775994 -1.3842282059802549
Ni 4.611040311988796 0.7937353351743757 6.299204628975331 0.30275871009532374 0.8599933840201834 -0.3004855977904309
Ni 2.582988933557963 3.4418935943112334 0.5798643851226609 1.2028415059372253 0.22002780945399525 -0.20210182110319386
Ni 0.8011217441218184 0.9794628526296307 8.4291715213935 -0.42808996190568205 -0.29734756638208143 0.5193960058105312
Ni 3.835531778165795 1.5272605804732342 2.288250238711949 -2.261928263251582 0.045941499727120874 -0.3043399385395146
Ni 3.3230375519805593 8.039868758435842 2.5176217905994345 -0.4354109210471276 0.8306720093482469 -1.1898193826459444
Ni 1.9407817111830818 8.093389860637231 8.87963297756808 1.4808104106823787 0.9108346350417668 -2.807134031036365
Ni 5.160116952193753 2.9944030791545018 0.9666387659443472 0.12569094914262224 -1.2181603956824827 0.9499961357325768
Ni 3.3885749098936566 9.158650251177802 11.250727294708996 -1.421519229121229 0.19274583380959062 -2.094643035606941
Ni 3.422295872514954 3.5553211597124217 5.842292486063017 0.174263458734687 0.7774090362590482 -0.14807445904414498
Ni 7.825775148821935 0.3549285429431502 9.559224004370408 0.5167508548782004 -1.799985100241881 0.4131729355845336
Ni 9.023186749766245 6.7068096399128745 5.505957856724609 -0.790808854604722 0.03170812973655829 0.05974266727627132
Ni 4.654265709640871 7.376573283311163 12.256122625687365 0.12228783699834422 0.29758153676975846 2.046026045930186
Ni 9.049749483487304 2.439272307051915 11.54769994582362 -1.1448237917718607 -1.899333297724916 -1.174800797749925
Ni 1.2643198793023098 7.068640629283991 1.4508607482161522 -0.29497778059832425 0.9668106361867544 0.6522595614421928
Ni 7.520391118709116 4.066426063836043 4.900835412505636 1.6030450258452842 1.0302999149896515 -0.17468511965313788
P 6.413211845302888 7.604946547492124 3.8833207767619804 1.8005173185962668 0.08202359016165874 -0.668489393037494
P 7.248249609183131 5.965095675178012 12.603674880572264 -0.39045595360299207 0.13413393770365287 -0.9674084176717532
P 3.6221374299868727 1.692930335714457 4.553741357876819 0.19546811783676013 0.19113915144410307 0.4716531912086135
P 0.7256925971461954 6.313392275458834 3.4514835968597133 0.6917504204479635 0.9863957574075334 0.7878633988231527
P 4.834583151783351 1.245863057742058 11.598764432194205 2.521019357255626 1.9099177581089817 0.6177887813588329
P 2.124705870200745 4.071569315706522 7.698031125620273 1.056271656463065 -0.35653616092709567 0.12150107943099074
P 1.5560039057744437 9.0087414806488 6.638219453787568 -0.4867386247868263 0.4972852899544209 0.0933852950313811
P 7.543448344446898 5.48588077281303 7.106698852963864 1.8700044668538116 1.607313057093019 -1.1386438882133938
Ni 8.637746486156042 5.365276576894895 0.7031975407989075 0.3431461127734348 -0.12525668981868104 -0.09505111276957823
Ni 0.23855395862583603 4.126314125419134 9.577241947372125 -0.13859094503374195 -2.0355488005479456 0.6416149372441531
Ni 8.798558214585793 0.34715201972145293 0.8739286607162491 -1.484394014268579 -0.07887758833350932 -0.9107135360828702
Ni 4.297007522022219 6.497141619117752 8.26745443342161 0.3856737017230003 -1.4170969316838173 0.4705473597389444
Ni 7.063083341037534 7.976880024437097 11.26116377162614 0.3370114606306067 -1.734868827358522 0.6145643608842641
Ni 1.2941765024144818 2.3413297021122936 5.789666622514576 -0.6664399667076328 -0.6198981143923517 -0.4482188714450733
Ni 8.996504405536568 0.2006760707897222 5.3010816169208015 1.5944086903265249 -0.050864390950034984 -0.019969501143391414
Ni 5.458618777656986 2.669982576555062 3.755283247773791 0.22073229172018757 0.4779613928148284 -0.5833313710119115
Ni 4.7284978314495 0.5958701113371244 8.79355665516398 -0.7930613980843244 -0.16307761732119655 0.6611740903230032
Ni 3.156677736112707 5.891553613996011 3.781501871262372 -0.22861349424047722 -0.6478120671938005 0.1627847686711261
Ni 6.3615033023474465 7.177863425266916 6.378979317737049 -0.11708263864832094 0.7821020708593435 -0.39928615030011233
Ni 1.8200855071813957 5.756835378061213 13.160008198326857 -2.0408043925199304 1.0033624671688592 1.3505089593509387
Ni 1.0653431978157673 8.729036906654954 10.848717295332165 -1.743676398347823 1.422862116302369 1.1191942641292145
Ni 1.3597782659860644 3.9776750664431275 11.828486534880017 0.905732537928511 0.9641713987916942 -1.1986526646668583
Ni 5.5118270523743025 0.13990473160454636 2.639370567076939 1.5467450657019748 -1.2657921386278328 -0.44545210733321344
Ni 6.177174307762161 5.197987479383182 1.0730001105288487 0.8824064616080609 1.2412938963761526 1.1315083056098771
Ni 6.6393309114368595 0.15104691052252484 13.193956420914523 -0.059352116706071975 0.35787930521855144 0.047617858988279284
Ni 0.9704276588249611 4.599014855468731 4.776259227620621 -0.10865327693404514 -0.6497344810274939 -0.4954860319621532
Ni 5.652443006464695 5.58572794508215 4.478666442022866 -0.23480522487348596 0.25100857410622573 -2.6357736048810865
Ni 9.04457862919176 8.339060644525707 3.0312265543531254 0.49279974337924165 -0.08187060952356222 0.8308792402630464
Ni 7.9539148067828656 1.5216480873766471 7.228137562199803 -0.34033589701814937 0.5131901341101355 -1.9254137968620517
Ni 7.3618335883263555 7.485161223517588 1.4902898923409293 -1.1485140961392544 0.44731512868388124 -0.5318494010825356
Ni 7.877824121686514 5.775218593154624 3.008670772670694 -0.5297048439357072 0.6123241586998358 1.1140134912592234
Ni 3.503373395739749 8.009018448021324 6.7868603529252445 -0.5726214407935751 1.2335978132834755 0.305050591453294
P 4.10698322706515 6.081531904911305 6.049256389282587 -0.5092733155542326 0.3578034576752934 -1.6994223136254538
P 6.478988424233217 9.168614726626332 7.387323507793216 -0.7669171355887889 0.29487082270681475 -0.41541390909991033
P 1.5750587798777744 0.07353102021197402 1.394517758092267 2.025648253604782 -0.16369853873464713 0.9216312114366386
P 5.0490815969648795 7.777194880707215 1.0213311310493345 0.4585205104813974 0.0486522137900646 -0.035096586592816975
P 8.387134868180897 2.265515041266594 9.174558448823703 0.6627324359490586 2.7147578939957895 0.8724580921460974
P 9.05510435394995 7.452213128798117 9.43144225785449 -0.9609174106307711 1.7188588250835106 0.6778438376692003
P 4.599162068402412 4.442794330408156 2.526589818503112 -0.03632814500707292 -0.24335568554665832 1.319612012661766
P 4.231644979467868 7.600024115022166 10.05540335718045 0.972386587612635 1.1749938875973378 -0.9482076763735864
Ni 7.047948011293459 3.7109436322299185 8.112941578391734 1.0533825078407277 -0.8104171157539527 1.3976712188590381
Ni 0.26518201808621716 6.070582942968783 10.864055962940887 -1.518698186867088 -1.1718530279755108 1.870382933239153
Ni 1.7335151013686296 1.4471123388923004 13.111785841657149 -0.3234267799676365 -0.5440515995756824 -0.2806896461104263
Ni 6.221310585441388 7.916982762045651 9.065023745437541 -1.3309235810198432 -0.026733816450418474 -0.16589786037881107
Ni 4.275358019962761 0.522811092593765 0.043496821498549415 -0.6056922552056149 0.0915119892680682 0.9751317544579401
Ni 5.641494044522172 4.816641575490982 6.574859927212113 -0.5772257723348059 -1.7437226782047257 0.7113131730712394
Ni 2.3712967349247265 6.829714037919776 10.710902987385888 1.421822876404577 -1.7426330446849732 1.6490428327316373
Ni 1.0237371424341828 5.9479637700208885 8.577798619318644 1.1682300865109427 -0.2741477312268504 -1.2419395003799514
Ni 2.0160719259525437 6.02321718155693 6.377686604163163 -0.10842522008363907 -0.4466453563103663 0.35906586932748485
Ni 2.738547000416974 3.3950798814006844 3.3485329919324327 0.6184822078814316 -0.40412368089807177 0.4409750453984663
Ni 1.4057179021028825 4.767638070191928 2.0900933492498424 -0.9476145228742777 0.2101501453289671 0.09237176616520221
Ni 3.2539302804256987 4.616441186493216 9.700539219895786 -0.2139677193028444 -0.25279009148668075 -0.37940792331894657
Ni 6.722524620583318 1.9719448490816724 10.888874223397828 -0.6606950938040557 0.20930810904364597 0.2721150170675378
Ni 7.434713191306791 4.300402620305237 10.927387887091276 -0.6077275404680887 0.5977398331277577 0.3385191555243848
Ni 7.68248175950022 1.1955898408900063 3.219754797871661 1.2030232829307281 0.4214431460131258 -0.5381709724251893
Ni 4.924981093871821 2.918974852259714 7.7892120564997605 -0.9379908837415846 -0.5528077485017577 -0.03617156482455061
Ni 7.464266187743246 3.315916126313742 13.200447591209018 -0.6228875360379789 -0.2857781163769272 0.34360865423215015
Ni 7.316657619303007 6.033752107123474 9.206864327119991 1.361739023738803 -0.9293468349133414 -0.21548467016800307
Ni 2.7713018781609904 1.8130928928315497 7.546212267276759 1.0316322606478299 0.03266432300224052 0.04019765526480819
Ni 6.738359211762377 0.3669944830199767 5.086374313389612 -1.6708871823002385 -0.9643035534941845 1.1355757908110313
Ni 5.344215926570161 4.262780514941394 12.637340638343431 -0.8881886155074767 1.0014482808652818 -2.526379336015959
Ni 4.442950744150192 7.939947979699884 4.55833348132683 0.597942436056867 0.2829146787862031 0.7259648615461433
Ni 3.800062661957036 5.882306801599176 1.2480151268163067 -0.8865297397478151 0.7785876299481816 -1.1089417331632707
Ni 1.9256739838640722 0.7261535576447838 3.8748909961470734 -1.1573640903307165 0.8596262304887518 -1.4697418115730427
P 5.442627772735891 3.7831331745837242 9.724307668119414 -0.11928350295438168 0.265856951972968 0.5360066177840187
P 3.3395714045946034 5.1401695996799805 12.123870206391723 2.967891741975134 -0.7724411507308115 -1.804888451080769
P 0.3629663691221312 3.3162933594563 0.07720490298814976 0.8660223638230828 0.235587097344833 1.5674439888122234
P 8.542554922914583 0.2926225089243502 11.923773786528368 -0.47305649931404337 -0.02517624215531148 0.9042281854688426
P 0.04445646580998224 2.758531156164166 3.9508142265313637 -0.20885739465947256 -0.3107142174969746 1.1312481099699547
P 6.959841070485399 1.7659663524369287 1.2559922276601443 -0.538460221530834 -1.0370961119758784 -0.08864366658133765
P 2.629333405242404 1.3890736397885777 9.677269455485002 -0.0069358078878848295 0.06204457593657057 0.4490169418663364
P 6.331517867918304 2.6233896830450343 5.714510739547099 -0.7889458332540542 -1.311124029795413 2.5463799475076017
