# total energy = -340859.7787511002 ev
CRYSTAL
PRIMVEC
9.36995766914169 0.00000000000000 0.00000000000000

0.00000000000000 9.36995766914169 0.00000000000000

0.00000000000000 0.00000000000000 13.71388017862628

PRIMCOORD
 96 1
Ni 7.397253681684475 0.4598943914596608 11.493232320110133 -0.04182850600001184 -0.4290361278690353 -1.2748743034347592
Ni 9.282676576719151 7.688949835870563 5.348028933544551 0.004080597827276843 0.18549018068844184 0.6821692045174316
Ni 5.05304954616882 6.1141222997694396 2.461435424696338 -1.2393920513677494 -1.3057943900523834 -2.4347979269625357
Ni 7.917089566753697 0.9973757809316718 4.812735429203196 1.9004221599137203 3.0953086726699275 -1.1039630490017567
Ni 1.755499061108869 3.3432102890928697 4.316060205658409 -0.09347579786265837 -1.2007074903133579 2.0242629432214816
Ni 2.1887096869364866 3.4058297166225224 12.694884423570528 -4.070092042649513 -1.597126089257688 0.12618202984642785
Ni 0.5058540341400359 5.324300452581497 5.29281739459861 0.19023669423449174 0.10266003546508772 0.6695450879955179
Ni 5.66467353719053 1.079316061306775 9.136214767394597 -0.37304161478128656 -0.02677598254226356 -0.31351260617771814
Ni 1.01175866605183 1.024707947638839 12.472183953151402 -1.6637179182453088 -0.37319665230191207 -0.9822652801789278
Ni 6.132843475319978 8.4723532620114 13.05018291385246 0.4588470405828807 -2.311207311992368 -1.2408033298929793
Ni 4.265495228752263 3.214907457854873 5.540818624888389 -1.9801875501688215 -0.44143835818813004 -1.2507779246071877
Ni 1.3189714702437687 9.254323084619086 1.2141900439029267 -0.4127810994627536 -0.38320287158500455 -1.4283251962994692
Ni 3.578677326923212 4.829341805293395 7.4641355029868715 0.2810565425315418 0.09826062084581143 -0.15247413077373742
Ni 6.901208119299346 7.7982503928260325 1.6356685456530522 -0.5310117356725886 -0.011038517202348731 0.7531375653061934
Ni 3.130484138680524 1.208059280558223 13.167834914135355 0.3053933195046934 -0.2322852866651096 0.16789149377007215
Ni 6.929186813090091 8.483765870530195 5.124232178070663 -0.7088495420220954 -2.2447342679707987 0.4270977731957419
Ni 4.386498862916252 0.6640957543265213 7.021369394263138 -0.16788609445343344 -0.004308911787999031 0.16393019512947896
Ni 5.452481474368964 1.0099783740825596 4.903342920481325 0.3076828868698185 0.4233298215128774 -0.4061962471563843
Ni 2.84775503404492 5.264866810681065 -0.15751742245372444 0.45570309563726036 2.550621753503091 1.554217205709304
Ni 7.650167580813667 6.57374683644639 13.341356224397046 0.28408993004122685 -1.4805700125367984 0.038639309638752804
Ni 1.6841562029297914 8.138267419041211 10.119266693939826 -1.7294309441724023 -1.7138341181754098 1.047198747627519
Ni 1.665266368140059 -0.14522591189957232 6.631113465670921 6.257764275499997 -0.12753365877831585 -1.203788957452159
Ni 3.579754872062507 8.101855763290764 13.411763023798597 0.19223469850112698 0.9032938465800313 -1.3602177019982704
Ni 5.4649435181538575 6.697270989240556 7.178969272344913 1.154263854138838 0.9544122625224014 5.325286094046525
P 5.308315304688994 3.9975987672080016 3.579912287352421 0.5442644869174369 3.3749583075516134 2.199812467757444
P 6.542572987068692 6.38460486964801 11.54873245375425 0.3107723244284196 0.3133238872056797 -0.4472742481436168
P 4.785752761919469 6.222542080698006 0.366709224809182 -0.09429315155763116 0.680368403863267 -0.48415389477878557
P 5.090979135072012 7.295570900365937 5.40547708140136 -0.7788971907688005 0.8660388188833149 -2.167163828484487
P 2.90855668977437 1.4712051735318534 10.682344933946855 0.11633007675301255 -0.006170390476770019 0.42749500863416057
P 1.366233537049031 8.148724291871241 12.62960580203625 0.055659498345833176 -0.353759626623223 0.11115804563376985
P 2.5336365710037585 1.9586116348871547 6.410896034051041 0.2585102817999096 0.8336125800338094 0.7485095796158786
P 9.373049819053955 0.2431504031714036 10.352964683750178 -0.5676558692581837 0.15834267373937244 0.03614431113104098
Ni 4.811295266699633 8.167557906914576 3.501332073820373 -0.1384737027295873 0.2872099637274473 0.09051722945496668
Ni 3.4991732355586893 7.525415963556479 11.150988991937592 0.6920684659090145 -0.8305233995855246 0.32004835041370683
Ni 5.589479626383188 4.633022450871536 12.455659095693479 1.1273701150717874 1.6853982314322198 -0.09501768842848152
Ni 3.9486969577994633 5.692680340854473 4.542640775574772 -0.7844669715470941 -0.8190778767527441 0.113245781400734
Ni 0.7077391434552984 7.664334956905966 7.910221387735407 -0.1331137239692546 -1.245313301948191 0.7687963548893728
Ni 8.831297602847243 7.283361845439835 11.250387377560823 -0.14946414030282 0.8360924090328696 0.14777543974648744
Ni 6.51815487721649 6.20235919174112 4.000435053413781 1.825474502762237 -0.12343866277333579 1.082938881341606
Ni 7.929345471468464 8.751146984399142 8.766529644009413 -0.4885389112203586 -0.5894516249770364 0.42274258155083966
Ni 7.050471545986069 1.6768476358980497 1.546801992521714 0.47318813979590124 -0.167057427904551 -0.17459950191786705
Ni 1.275176287799717 5.806909495577501 11.927688213320467 -0.6394588101330987 1.2290832132425737 -0.8264721123342862
Ni 4.480039150964812 3.928120530617791 0.6998946148412291 1.3072290656163807 -0.3353998931691127 0.5682855324223827
Ni 9.186606400082681 0.42788005687331265 6.754840009552121 -5.161069220914563 1.6271750861242686 0.9590245644834322
Ni 1.7352693223633175 0.580827750940652 8.948581363791229 -0.8608827286036722 0.7839697201957014 -0.6098625845332206
Ni 0.2711459628860672 4.622968486224025 3.056617950883949 -0.2009746494772861 -1.4115698312180012 -1.5484520210907526
Ni 0.4657243791611346 2.8429576156856227 6.420976234580205 -0.14024082193233914 0.14426125594564188 1.234226705116726
Ni 7.53394262509351 3.6417184025508496 3.280620845427963 -1.3308580178892304 -0.11539548075388513 -1.1232674057573235
Ni 2.945052675144413 7.2344319261580985 1.5122296594742561 -1.017226112524829 -1.5576208320742142 2.5780893627957404
Ni 2.0722036324843387 3.796688133496971 9.865531986513224 -1.1609687769628394 -2.0677097015512067 0.6819180077385739
Ni 3.1967391098105815 2.2483026181183794 8.567211903112993 0.8868069046686018 -0.014091445096059602 -1.5262477170795714
Ni 7.908244326653743 1.854764393332293 8.762429350505451 0.23169187605548483 -0.6384787056080166 -0.7657812222121327
Ni 4.670408582226215 0.26507329327930856 11.541916746499265 0.2227009854107842 0.6398982116633625 -0.8724879169427684
Ni 4.498872766008146 3.8272529356220235 9.561578053620824 0.23885419813187894 0.10625598034646216 1.3541961783945387
Ni 8.70737991182829 6.665937850581398 3.125667980405761 0.200302563110926 1.7871948904557478 0.10577389850372106
Ni 6.15919179646518 2.880849724757883 6.61240821904853 1.5125792184535434 -2.657883035185616 1.6089336234155776
P 1.8542021958683128 5.905678220041076 3.4473817311852937 1.181572826366436 0.9160688868575126 0.15599679921501522
P 8.959263115606852 4.561529673368731 12.2327674781366 -0.3954364375367189 0.2101457744535929 1.3957488050253446
P 3.0750702086475497 2.406139556130799 1.2377985894069985 -1.9471020804687629 -0.41418260779597055 -0.07653531335357786
P 1.9932617385837965 6.190815403814062 6.700986177481692 -0.14752270030573303 -0.5462979724076978 1.3765303231153647
P 7.812333439298734 5.4845267298158324 1.5772468591877844 0.6703287602390778 0.970005488974968 1.1096289890382824
P 9.055361402116521 1.3491521041017684 0.8740034214527803 0.966777983176606 0.44833457108733105 -0.12527494465112618
P 8.280765736244707 3.741649001773317 5.229966529112952 0.035436743541055096 -0.411648271409891 -0.37210419056868177
P 5.864075607706547 0.5032829177381002 2.8023491558665654 0.19711028142587342 -1.026196177233923 0.3075481610641671
Ni 8.379009743075233 8.815696623221795 13.668843743131655 1.4040529540156657 0.41644209325410864 -0.12481985939157858
Ni 7.889232682413482 4.515129642674904 7.18722514210346 0.8980138291280148 0.620382767338254 1.4198279574617354
Ni 1.583597816539213 8.142652559260256 3.404402672059786 -0.5631944910527203 -1.8057127467542773 -0.6369273019604966
Ni -0.1509884359053686 3.017969686222635 10.813435327610419 0.9111557658266115 -1.3245598435853447 1.9515896839264715
Ni 7.320288848865597 6.240335630432978 9.480693767482231 0.9285140545994008 -0.043513864122234736 -1.2442295819657085
Ni 2.5747987953248366 5.888034589629833 9.412247163238423 1.6342808439311145 1.9798455934483707 -0.21884638755138439
Ni 8.210097515022404 2.3647056030354645 12.705924107771551 -0.1786505320587891 0.13225266152054 1.8667126834764176
Ni 6.870212299118576 3.1229975424518557 10.530175883367127 -1.3498078195188559 0.10157040194533476 0.5209126995653739
Ni 0.3763387303713882 5.604855727023044 9.40113907834595 -1.651657387536349 -0.5216403217600177 -0.21896851495154546
Ni 0.18339349772918292 2.113909314353931 2.9046962671883736 -0.22258322888599733 -0.20396432823322935 0.8514686343786239
Ni 3.2050690022352204 0.12874790423031487 2.4661803712923303 1.1847165142017402 1.4505158734638954 -1.7921555768951332
Ni 3.1868631743599973 4.116025662995414 2.834426269169724 -0.6127615033475704 1.105321105691548 -1.5499892836708853
Ni 0.85892434847306 3.383651026668507 1.0266953156740086 0.2924637559272189 -0.2134409002650969 -0.7093966727748169
Ni 3.0695044537541465 0.926375863205622 4.581573886951169 1.8933254009679392 0.610865314766122 0.8405892684619588
Ni 0.49641005374094316 6.015756483488384 0.6917539955627969 0.2572694674142731 0.07553361156194088 0.02719610079881768
Ni 5.081862166197801 0.4943243011495769 0.5770647759150783 -0.39330499301601296 1.3360048521974925 1.6859103951819483
Ni 4.094446650336311 3.1390108002175556 11.844129741244874 2.799174666979973 -3.1564505342865705 -1.286962602057861
Ni 5.076811758979713 6.250258415672227 9.874076450969948 -0.8127879299789744 0.10165576257028944 -0.11352680297626255
Ni 5.847743771377924 4.980160644963797 5.940524155854337 0.25755434564454355 -0.7739010231057898 -1.8457887888395563
Ni 2.770499732536318 7.628944626548418 5.41215505027767 1.0384937636543534 0.5673738192413906 -0.3993427145696606
Ni 7.06817139614371 3.8135821672895736 0.6037457305598016 -0.3186717817811544 0.04964697360316611 -0.5540483057770781
Ni 8.772735367015981 9.228190272501745 2.838772992562064 -0.5804815602679422 -0.7609449771657539 -0.39306639464264564
Ni 4.684679027853577 2.3694186917751643 2.671025450255448 0.4420723922277032 -3.312622168516553 -0.7124534573232698
Ni 3.724370799713661 7.8803780723557955 8.424559918602677 -0.4628574472938545 0.5810135215120122 0.10325370318502863
P 6.007145492331755 1.9116025569406834 12.785752399673637 0.04806805915182044 0.36260139328456903 -0.3752262811374312
P 6.966198146135449 0.7502515786857021 6.765784120184268 -1.006441620314815 0.24403677077408295 0.8810687166332439
P 3.194921338010379 4.986354187025311 11.433288952509026 1.0047976569534889 1.472930750823986 -1.5003644215549063
P 5.821826468288441 4.475204252774582 8.161185398660361 0.7628612203518603 0.7605325722186838 -0.2286075807032063
P 8.08142925543282 6.783661999538835 7.351778465818897 0.4546764541449589 0.5060802625382316 -0.33602235724446
P 5.970218488905994 8.467274744920113 9.964423457423102 -0.9250494930895683 0.050708067877828805 0.004961457770333391
P -0.043991951556444704 3.3872209805647806 8.919411748372621 0.9702525719887677 2.3426300492780237 -4.223708000337178
P 1.120356476177324 0.5306853591282646 4.414442887863384 -3.801957864606594 0.2517459664928826 -0.20699128798501124
