# total energy = -381168.7518994908 ev
CRYSTAL
PRIMVEC
9.20805970819421 0.00000000000000 0.00000000000000
0.00000000000000 9.20805970819421 0.00000000000000
0.00000000000000 0.00000000000000 13.47692614788624
PRIMCOORD
 96 1
Ni 2.8125557860090655 2.047071369493799 11.947523720304545 -1.1148663261778218 -0.03900157807417799 0.661239653453616
Ni 4.6651345191458 5.6852770339041765 12.05703793638188 -1.8342638189190925 0.8685811256891944 0.6676195888380309
Ni 8.673660719318514 1.730673231161014 8.975861871251558 1.369488585777235 -0.43142751091934733 1.7216896096640864
Ni 8.768190659894294 8.92131148415249 7.82435257320618 -0.4980774468384132 -0.5083888560667502 -0.49692739239437006
Ni 1.1325452991542995 7.520535406800989 6.557643082237027 -0.061353720517133045 -0.9429556839460277 0.08917305672224642
Ni 2.43613030668529 0.7469679293241664 2.3444999840997025 -0.5532548633415052 -1.7070824012738728 -1.0710467578897103
Ni 1.1657956026239216 3.7065478832836916 11.619603536906254 1.0277465524401783 -0.7461356800670633 0.9126711740298734
Ni 6.424361943344559 8.866449864636564 0.7664862534074005 1.4751670963536725 1.387133809662824 -0.37051062082931674
Ni 8.78906533116697 0.9871684530788649 11.236980112618369 1.144356879437771 0.3303181077708311 -0.3031076087943103
Ni 6.269795453718119 6.591635555316079 0.07117001399807713 -1.0463543973493528 1.6537505226199518 -2.08178032071166
Ni 6.6772428860712925 4.7982554378000035 1.2071876724540644 0.7518982935824534 -1.6119533840785076 0.9275545188996089
Ni 2.632298809902357 3.0066708919196454 2.197196811941231 -2.5168238311170397 -1.0982516004392764 0.9506512528180723
Ni 3.9971358303604947 8.152521374215569 3.334097523319605 -0.22343632091491197 0.5880812269920711 0.3166254407750869
Ni 1.155289206540056 2.502667745863216 0.24853565936829639 1.419785277149258 -0.8918398391068187 0.7559680927764529
Ni 7.733223169066659 8.007862756794422 12.166524528280204 0.8541191846275935 0.4792513152708456 -0.2971542194243527
Ni 4.376646009673836 2.495853781707159 4.075018519858254 1.1564372076410727 1.242452435460628 -1.248690960171172
Ni 2.205477620002774 6.535208565656194 0.3226955303413351 -0.014260366573756086 -0.238196509943222 -0.42911891739082875
Ni 0.24460750111292648 1.1061181679004042 3.214745416290471 -0.2817646243421599 -0.25919239546859874 -0.718068489517202
Ni 4.1518128167029795 6.220799368212203 5.275758708931142 -0.6409968440441799 -0.7301225924682587 -0.26947912210658753
Ni 4.646672359506756 3.48291173806998 1.7246014366143874 1.7331387320412925 -0.5854268200883596 -2.1212716939380627
Ni 0.9874262787496346 8.301038168638591 12.478299299852507 -0.8789593835997249 -0.3459375594756429 1.492815405563055
Ni 8.132751670103334 2.762620478416775 4.473450340988192 0.7759666473855669 -0.8260046857795644 -0.04448856933067822
Ni 5.541640511106438 8.298404663572873 11.474996484619261 0.8576449383926648 0.8060161584727797 1.3243161030056547
Ni 5.926270371596492 7.221632581841863 2.412680141122818 0.8253961056612882 -0.6863403051759857 0.04461918137127154
P 8.182944803366395 6.041251412700112 6.036422706208982 -0.6995022964792404 0.2893972011867532 0.006900069553942955
Ni 3.940552303686214 8.456175557964594 5.923459150979135 -0.9524685085324694 0.4393051138952112 0.7261695213577817
P 4.415771055213139 6.048452115362323 1.0749774309012587 -0.8243213845398706 -1.3758824051187208 0.9611832626976479
Ni 7.422810269519599 5.049663090979481 4.066420033738084 -1.050229821144359 0.5620578063451159 2.181538866259236
P 5.114091884492897 2.5694169704135597 8.702482866892666 -0.044204205321040003 0.29152273217018826 0.2932343155446563
P 2.3701177269085743 5.494476829474921 11.835652240951601 2.261740315610492 0.39692896292184543 0.02543823756744651
P 2.4689662474697465 6.967103396434139 4.261175099795754 -0.5314837902130009 -0.940658917492051 0.05650436284463172
Ni 2.0376607325107043 0.15246336879773348 10.888587650154998 0.7961788606673836 0.5155365228551251 -1.841798179622925
Ni 4.655990915893145 1.1834566610716468 10.730193370123594 0.37632542773888095 0.31858847803872875 -0.03581752391924154
Ni 0.18066213073220339 3.7532235377526795 8.44938553476368 -0.4823399814984983 0.966858201595238 -1.1357645097830698
Ni 6.583514046686832 2.126454051911858 0.6679793518599978 -0.3703879792085234 -0.09724374954552284 -0.057140196656417716
Ni 5.414670576312027 0.527720345349342 4.637734095984749 0.7671747601255497 -0.5816203018580758 0.044497825302058855
Ni 8.740723017897649 7.337957999657354 4.293021174165648 -1.3323549141497313 1.1468066265298442 -0.2054727944579558
Ni 8.462611991674166 3.9234621449380502 10.52142271644169 -0.8764849539173034 1.1931322490692613 -0.6483741103448575
Ni 1.3940173615534661 8.754360154269433 4.515134306309885 0.7210944208277194 1.097805256930477 0.5283359886126385
Ni 2.8803178971231476 6.96052884182951 9.858156049520975 -1.2304649240814485 1.213030530655085 1.3339860219952508
Ni 8.476018926554191 6.728540986494794 0.509663340335792 1.3825343632175995 1.1831476270527237 -0.08267459348209633
Ni 7.481391945142344 6.594407181276853 8.334117202198346 0.02799597099229372 0.5315377833793877 -2.9118162391378046
Ni 6.1029638286107755 8.922526948028976 6.962085924719766 0.45802685867443055 -0.03325310562617499 -1.6512187573370336
Ni 6.768200099494977 8.819433511959772 9.452729786265444 0.15665474451398828 0.16565746223323083 -0.04664161111793903
Ni 6.038194336889557 4.664232129298107 10.43859345728902 0.5446010443212491 -0.5877770654880909 -1.4141411914896034
Ni 3.965248319722084 4.072356469807557 6.628652875996839 -0.05163906433253041 0.8358540677698185 -0.5788463386573643
Ni 3.137618708491647 4.139823923012188 13.543502375413693 -0.5927930306454436 0.30789988797663104 -0.8371313918203455
Ni 3.279542532190701 6.5801070646088045 7.565299468082412 0.6134844975565241 0.7941651726714646 -0.2094351215398135
Ni 4.477962290226661 1.6195319509399286 -0.14497537467380747 -0.15700107210981348 -1.978432000930296 0.8660902409465407
Ni 1.9421179053711863 8.760805796038676 8.54069173364887 -1.5078550735049967 -2.1402837162641912 1.5920083084151486
Ni 2.388994249232785 1.811354249992592 4.578111909619254 -1.5079329779307837 -1.199850027409069 0.05186969228609776
Ni 2.4705500337330464 5.259229321016902 2.391197737911899 0.17921488920269135 1.5217907097494825 -1.0930582291637951
Ni 6.2245838807367155 7.174422859911995 4.763581568305345 0.38455295785499577 1.1472012908651017 -0.20601709699720006
Ni 8.65948030742618 0.9022996087092129 0.2378478645089249 -0.27065848712666934 -1.6455677296988434 0.9561094477191664
Ni 7.875542939331538 9.304560135691993 5.312590947612529 0.01761179954449225 0.6368817934345418 -0.3480306945592458
Ni 5.0318547035770305 4.92854027407574 3.3472236123796844 -0.9743840776586381 3.368645220849392 1.157283357691452
P 5.1841099702262134 7.545986483729827 8.061802649537345 -0.1617799815556956 -1.4913604182840832 -0.06427937880436027
Ni 3.859079391722986 3.677431998606055 10.696569219431355 -0.7083952280934961 0.008589541441223916 -0.7066173102574669
P 8.828273249243306 1.6416220860890904 6.489651690437153 1.351127309661228 0.25234503352946214 -0.26646141832618625
Ni 8.71312646306562 5.750470096370232 2.5793892990365452 1.789588587498905 -0.11380139679388789 -2.153607429956291
P 0.9210730007651159 3.2306937756395118 3.7650761521603497 0.514838468346836 0.7360011627362228 -0.5660275896261413
P 1.628758426729616 2.132319585921869 10.025498721940023 -0.5836447884872723 0.2913334989775176 -0.4774703121110228
P 6.347198403307053 3.4165952923241423 3.0959190894685142 2.073915573251602 -2.697238139944471 -0.4519436285948281
Ni 1.391521977382802 7.396760668712188 2.397329384846383 -0.7792923693246901 1.0903477722111674 -0.028401691071144635
Ni 1.7208298153734132 0.8011573604841571 6.8831783781806966 -0.3342038159784825 1.2811534515752518 -2.724344766353276
Ni 4.619821657508024 1.1457772809005877 2.173719943005715 1.4601120017927627 -0.9936084731058887 0.22348517187497643
Ni 8.402906932771637 2.9727023597957363 12.639631871724719 -2.2526985171231977 0.5838155097371817 -0.057861648203474544
Ni 4.053553611960709 0.07405305748086269 8.709611746689449 1.323146765287902 0.42566952538964753 -0.3631341258595875
Ni 1.7960412467608056 4.979092521665943 9.77670155367709 -0.5394758072795419 -0.33848547407297186 -1.7579984713974497
Ni 7.059644396121122 1.6283440640444504 7.529005900891741 -2.692996076838665 1.3830105315230696 -0.05255180595478692
Ni 5.940699401099926 5.743076024454943 6.574745211462761 0.31683010058672534 0.04891960851883833 0.7361952810248998
Ni 5.038153016391547 6.757620038933749 9.98959649728534 1.7082766786922903 0.2913838925994788 -0.34945842814470784
Ni 4.266499199897148 8.170283721319667 0.761377621902292 -0.9455087893851846 0.7901835623158971 1.6928816842934589
Ni 6.895464692198841 4.183304380775565 7.94268074399997 0.21462463616055297 -1.2521562930119532 1.1054982546993606
Ni 5.368059378260731 3.510296507529591 12.538945422453345 -0.18359939142363219 -1.1026849536202816 0.12676309916087847
Ni 0.4183654287043039 6.126591709724886 11.627757273744347 -0.5166495534136457 -0.05303363068721189 0.9088201757148994
Ni 2.9209254402693765 4.361452711217765 4.374542888845129 -0.7415830276993743 -0.7243916035217525 1.4598412646298793
Ni 6.72951704081985 2.4074195766331488 10.502137356268115 -0.522962383005551 -0.9968141245273802 -0.46312561335357655
Ni 9.166890435560637 8.076508841636857 10.226102747500295 0.7006891176984901 0.4414830953831364 -0.934288752299649
Ni 6.096683931915599 3.3773413339494547 5.323925148260758 -0.7776751454362413 0.20288600756738606 1.6222354827308063
Ni 3.507534089628487 7.982153854194813 12.197548322921536 -1.948806207644063 -0.6019376732591891 -1.6081831184027984
Ni 7.094478485854045 1.0109252470283594 2.9084153704012436 -0.3596004016747162 -0.11952930041660059 -0.36246563903765316
Ni 7.706501379903312 6.29346016707091 10.398688489095639 -1.0361306627388156 -0.38279766572678586 2.284049006410021
Ni 4.018378824019985 1.8352399567774718 6.264924390152506 0.6897534446225927 -1.1574486796247228 1.4097446050838045
Ni 8.396894069806901 3.101338953390481 1.6953437478178275 0.42326554393384525 -0.7291396597296991 2.1787836721116025
Ni 1.1496262498427927 3.2149664097225594 6.127243640349546 -1.6266366971222954 -1.4670033295959573 -2.3361141025363765
Ni 2.270035326351575 2.875133759528742 7.99650737760895 2.0191927277874253 -0.6571300021606167 2.2313689024074863
Ni 0.81493445936293 5.550793322418762 4.837893372262944 0.22180572729002446 -1.6284521530644793 -0.0005831261969796409
P 6.897352344431262 4.854065487461975 12.303921669845318 2.6516110861339754 0.9378754412096427 0.8567039146356342
Ni 0.19578544793478092 4.642114369969933 0.43870879493400095 1.3048621080461011 1.1526337747345825 -0.4958642412371782
P 6.868494285424394 0.8380163025385882 12.060299431117118 -1.3521678351106001 0.3641216865838374 1.1968991723108613
Ni 1.6907194602513793 5.0102710117097375 7.134967245030526 0.04863061652350979 2.4237851207917998 0.8981115310481436
P 0.5400453332181011 6.6897105988649415 8.674423146659217 0.8742730338676492 -0.29921264461527824 -0.545486532249996
P 8.363855551709698 8.34879116608901 2.009180203950322 -0.012745215480810309 0.49885751953754737 0.6474845086510526
P 2.4404488866706826 0.37757464517063477 0.01839678241538579 0.358828299395382 0.4190440496533299 0.5310942680840659
Ni 4.581249095548942 4.876063542014434 8.737886014713215 -0.9262378569707146 -0.8677239198952218 -1.234760466133009
