# total energy = -340860.446579822 ev
CRYSTAL
PRIMVEC
9.38310068334675 0.00000000000000 0.00000000000000

0.00000000000000 9.38310068334675 0.00000000000000

0.00000000000000 0.00000000000000 13.73311630843015

PRIMCOORD
 96 1
Ni 0.2872298389156622 0.852391802582279 0.010674214990181998 -0.24197911691410584 0.8411387132075256 -0.5154267367501382
Ni 0.14751828921514099 8.439958043639114 11.800234889371776 1.030441325663522 0.011527541023625307 1.4507452158658822
Ni 2.4270421269123297 5.256656792448753 13.36304937088483 -0.27682090718363933 1.2538246818533116 -0.3079741928579922
Ni 4.519773770451598 0.15981296564062922 13.030776896913903 -0.5095368536282644 -0.06759301655862553 -2.372207248714508
Ni 2.5772843301672475 1.0073790396984263 1.0527144274854898 -0.056952763235959984 0.06982421988198942 0.44882719445303343
Ni 0.7198611396011549 1.6894741385875702 7.2477478777618005 0.9825074780967207 -1.33212454330648 0.45393340533134724
Ni 6.831253633106648 2.8100696674487393 10.096518142720214 0.611902754891701 -0.8234083858072979 0.5837286064503301
Ni 7.271030164730101 5.958803576846001 2.988051130351578 -0.2977969952146742 0.1557314613687705 0.23608640557875465
Ni 4.707567141419867 0.902625168766736 5.080250752099405 -0.39833664190264945 0.16897521375255414 -0.16131049811844478
Ni 2.0864543493862873 7.46541047216383 5.516043219302296 -1.0186546174412392 1.086218323423826 -0.8243630364110834
Ni 1.6180781278102365 6.280362426805158 11.139864482788159 0.9779070032102318 0.18840606878365615 -0.4897470725958469
Ni 2.2000367794637774 3.0608517912555206 13.493788800003767 -0.0665748597067563 -1.8028112568367662 0.17294576836452796
Ni 1.0429597563323663 -0.18216632567149296 9.767733367159845 -1.8808722628062509 1.4884332173349593 -0.6527393292920887
Ni 4.067395735020291 8.577542444483909 1.2790479449469665 1.4473842698134491 -0.5950697424947623 0.48798355293752094
Ni 5.669194183674439 9.003263091740896 3.1694799443333483 0.11916497509864639 1.0660392773727898 -0.8137844895642888
Ni 4.097956492951922 3.504315881327586 5.746581304043222 0.25021178923654325 0.3096150708955248 -0.32077545838771854
Ni 9.23237963677453 4.86558793488827 3.0420640093683535 0.20157988716145284 -2.6300194760061286 -2.8878556145571492
Ni 4.942163417074341 3.6767772662779596 10.519553346648975 -1.786737234093039 -0.7249809003663192 2.0552797033179697
Ni 1.6512004721451017 3.9031820953023106 7.502511251059031 0.142595952428077 -0.5457752671350085 0.05325166023528893
Ni 5.984278694372675 2.6855934578322183 3.3081424634115923 -0.5992416144842648 0.05618786004547743 -0.3238612964018938
Ni 5.773102637262059 1.155172253754647 1.0382663295232162 1.3117434085469668 -0.5594962162655267 0.7121791206159606
Ni 2.39019469172734 9.030033077119754 7.699650190003935 -0.8433375206310573 0.6294055396621546 -1.9938249384465987
Ni 7.201473241626885 0.9536514069331467 4.639829601479973 0.43136888976727 -0.5794099244703182 -0.2722296882685311
Ni 0.19391772058508644 4.136108179089474 12.468090195127044 0.1677994482768981 1.4285900199250816 -0.37660336399061595
P 7.636539456860507 6.828598215699633 5.949872741906079 -0.9155009301691845 -0.6810222353971819 0.3456472819287338
P 1.088880649583026 7.009673286797146 8.968342945373577 0.22829519166911005 -0.318725003616593 -0.5184686089002555
P 4.728369474958223 7.37311829684436 8.011515358962427 -1.3191345588047152 -0.17169826911067204 0.007771930635935002
P 0.4657414469898662 6.408469896268023 12.889476788319362 -0.44067936853491846 0.6611761472055323 0.9945464115391259
P 2.2175737940705376 4.502405651651645 5.408952018066409 -0.45127282778004857 0.00556849522671299 0.8928747081292365
P 4.308184856924345 1.3491490878721157 2.4787176756249085 -1.6077290615845152 0.07283729567670037 1.036309611518841
P 7.722601253528888 5.063655800770612 1.0850026141967373 0.1983035304030262 -0.2848031540581676 -0.5253751062121017
P 5.3080855656213854 7.1466759354184966 13.118628050824396 -0.14041617116793884 0.7566628048506324 -0.6134847546668403
Ni 5.936528096548276 4.762486427933172 4.6859447249084605 1.0379525464389026 -1.1245892098925405 -0.6361641985422269
Ni 7.574235670349599 6.387160875309247 12.890973392829677 1.1686910853077614 0.3373115083695288 0.6788553096528502
Ni 2.901123273518295 5.960698963122387 7.2149942892717975 0.16403612457972394 0.5159381291689179 0.7642547582652773
Ni 9.01307781473644 8.050906552659933 0.6922344771577715 -3.1886392032039725 -2.310283257516202 -2.0132452519547392
Ni 3.210606073290774 7.521793522336126 12.189033036640748 2.143950623592817 0.13289389464896467 -0.19584684133241753
Ni 7.926308362738497 0.8239947875978496 10.950292075988195 -0.22532376774561194 -0.43659722804574486 -0.8421057051064853
Ni 6.506588976922323 7.387784082735406 1.2124814159342658 -0.2808233434748131 0.9562380028772305 0.024112062556855246
Ni 8.87526821948257 2.216232010716462 9.051606701509193 0.567320597405952 0.09170867865990658 0.9259167261858698
Ni 5.8624672852635475 8.361412110373632 11.047398720111694 0.49519421175334716 -1.5441734483200567 0.6837059528769323
Ni 3.9244442007591958 2.3758010157472595 7.716088443556414 -0.23771648498301 -1.1546844866160244 1.1435786065108497
Ni 3.0031832563314182 2.6256542126166043 3.7360118406551748 -0.28655484664195163 0.15457086540176604 0.4075062242170595
Ni 2.9396315174702172 8.059445174004049 9.625114932962173 1.5481982532087337 -2.5046604562816284 1.4136238855335523
Ni 7.522318975957302 9.053406380161723 12.86591113171964 -1.5189429558880423 -0.07126326632136114 1.3497085749368303
Ni 2.4318368912055637 1.5033791087877466 5.783838780714738 -0.0707521310128975 -0.18290545068040115 -0.13735527285442795
Ni 0.05510694852086751 7.606354022944003 6.9515384117842505 0.3654720299641448 0.24572572844073165 0.776978633589849
Ni 5.621443585850042 5.871249867217495 6.6491351612470835 0.6987276230967451 1.3670419240089553 0.7832757794524705
Ni 8.612691538500455 7.043977901779658 10.231610392104573 -0.15219310919820886 -0.025840100991555495 -0.27426985862701153
Ni 0.5168474415094911 4.976693226465929 9.735364485785345 -0.8702001493498561 -1.8922432236473539 -1.4887103822557457
Ni 8.019623295999185 5.778479153778739 8.018944897841845 1.117999472490165 3.874401781499618 -3.7867405334362076
Ni 7.636849099172986 8.008419874147675 4.147826733151745 1.0271554558233988 -0.10801692890162687 -0.14788085497610015
Ni 5.971592742661417 3.625508005811755 0.9173876005916773 -0.5434553607525802 -0.2773315282714708 -0.7729456011710559
Ni 2.347004280686721 0.36629090439190554 3.626050349013612 1.1438184904357978 0.3275454301217004 0.8707639922731262
Ni 5.152551293753193 6.770404227154354 3.472651670791485 1.2078903812150423 0.1942005639782462 -2.378630892852665
Ni 6.006019337948845 8.490645551881874 6.353392973668365 -0.002595785751634239 -1.2119234136338355 -0.23202123437044558
P 7.847518468863182 4.231346647927684 9.000560758831988 -0.1094822005932437 -4.892607998549528 2.0648763458674697
P 1.2981050218149865 3.8441530108233772 1.6814694156549717 -0.3290760078336139 -0.11871066117004717 -0.17610513992911606
P 4.526942459140504 3.5376915693726607 12.932393212828938 -0.8155626645106341 0.019382518291669842 -0.024768208083615406
P 5.468029894667309 0.9249203535752551 10.879017107205739 0.8738318325651725 1.5320555820106 -0.38211143829303873
P 3.94707623887129 5.500532954377216 10.667774430082439 -1.2168900136104912 1.2610924191593185 -0.29355776032234604
P 7.571599019143339 0.3674834964499683 2.146596269570069 1.1324035637306369 -0.1263164985417631 0.24892366655273904
P 5.7765743844019735 1.1158476800698256 7.060332645738772 -4.398725306518753 1.9469611840155245 0.07723491052376376
P 0.7740598040054176 7.084475363011747 3.5579478064690084 -2.201009830499655 -0.6826124627024373 0.8164733492503616
Ni 6.136632095212675 1.9868996543741289 12.677025567867355 0.5616086346228393 -0.554985987099999 -0.8178524889860754
Ni 2.359943576108188 3.6735494797478765 11.189207392746733 0.9727478276067958 1.2225158444377011 -1.025794056699498
Ni 0.966487488250454 6.225264861384669 1.5053833390285192 0.3319666991178476 -0.708448964149567 -1.0436344273150284
Ni 3.4210690147726504 3.8791613583342497 1.8337421218317207 2.137339546034203 -1.6205377833134091 -2.7841213721912763
Ni 1.864506493041557 8.105891520875884 0.22728308721974552 0.6150734393101988 0.44603831885398665 -0.4125581848186702
Ni 2.4450858289395097 7.745768128362536 2.6194960838384254 1.8949009729851756 -1.1279781809694314 0.2556327031417985
Ni 6.1164865787007905 3.6496507230847315 7.228892537551911 1.0964862810087375 -1.4037498209529502 -0.37223737371243637
Ni 7.957394574291303 2.501525177714074 1.4048978404588488 0.8209606955977539 -0.5247145898099672 -0.16148019092708962
Ni 0.5694819430807164 -0.2975343597509451 2.1909539382977297 0.25314901748799623 1.0555373494002014 2.3628921419611695
Ni 8.430781371469285 3.1144574437158843 6.703531809069325 -0.6214813997190716 1.7272735315097671 2.468395303302007
Ni 6.648330091234639 7.353657746660079 8.977063598865028 -0.9449372331524307 1.0444520381203175 -0.13227425878709476
Ni 0.9389856210421 1.8151420019521165 11.425224269798457 -1.8056302143428 1.3710513022786643 -2.2678639120097266
Ni 4.614965323787917 4.650780617931311 8.479717993181483 -1.539539034871839 1.493674925349873 0.8231355917618857
Ni 7.689976213514064 0.8958815345249604 7.0829506092002985 3.7497130483692644 -1.1849674538702817 0.4637213379560465
Ni -0.11247991578305795 5.5211382428076305 5.013850303963397 0.09780065049025738 1.9265211709936176 2.933488581904916
Ni 0.33873555351139617 1.6414983463540957 3.453425698116659 -0.82058505742589 -0.6690820323161702 -1.0461944747327208
Ni 3.5290778832255203 1.546419390222315 10.43821218778084 -0.9508425428932723 -0.529372657407269 0.7635757299203818
Ni 6.12784013015835 6.006535408469643 11.110859442899228 -1.1871606048668586 -0.06107861247887546 -0.9281289033458403
Ni 3.8736534784122765 6.015346139724724 5.019797312983068 -0.8718464267040275 -1.3761135472929205 1.7067754115564153
Ni 0.4103774015186374 3.1443520015206663 4.967433044702734 1.8426605276232202 1.431656060444915 0.4058979991896752
Ni 2.402045547504941 5.082741026939766 3.3310222153736704 -1.363627756121084 1.4944344292237166 1.051713090558105
Ni 4.102892003750828 6.0985930062796605 1.1467068205934812 0.10510335479925771 1.1786739075520862 -0.5040071820592869
Ni 4.56543193689167 0.08455956229783858 8.708484548571013 1.3032297146490006 0.2234777156758087 -0.230404524702629
Ni 6.673251605839002 4.210272204478362 12.442161873852104 0.9721382190472548 0.05929015311988499 -0.03096739491579183
P 3.9736960946440982 8.1478808950681 4.522287503042905 -0.7979279821480064 1.7753629308178265 0.40545088434992754
P 2.1476509300525732 0.7063541666068098 12.464230925941509 2.8998868346900704 -2.396488489859376 2.795473563979302
P 5.326129267648565 4.858090837686129 2.439248602194264 0.015628707676192437 0.12909508972816477 2.0689669709970753
P 8.150095306757343 9.07126242018134 8.994270328338478 0.2877462958468915 0.1602100659654144 0.32027974969822265
P 1.9679833240117812 2.1163770564922033 9.193840428591361 -1.6261510157351284 0.7869334308097157 -1.5265446794946997
P 0.3891218642320171 9.472052169733583 5.822223167741668 1.0421527005631792 0.5444897155543654 -0.4667009894096607
P 7.579311927654178 3.0178396591220866 4.842241842837399 -0.5536770384805884 1.0687314794929723 -1.1583501083930694
P 8.460094177050621 2.3688106059655385 12.42992537264896 -1.4112183614158533 -0.40743474754917575 0.8743072295396943
