# total energy = -340869.02435183956 ev
CRYSTAL
PRIMVEC
9.32781333150124 0.00000000000000 0.00000000000000

0.00000000000000 9.32781333150124 0.00000000000000

0.00000000000000 0.00000000000000 13.65219768047134

PRIMCOORD
 96 1
Ni 6.219739423370861 2.40433721573808 3.1793507291147822 -0.8481835358694488 0.11700833376695978 -0.15080342793953386
Ni 7.340812020401808 8.21148879100789 9.210359568532546 -2.218805463920179 0.09055168223732792 0.10078930080493612
Ni 5.265457460086859 5.685143774284963 5.249516226762462 -0.2360712360701031 -0.08279697799257353 -1.053708780831895
Ni 7.582131884261056 0.7696584156285831 7.038786746083126 0.03653511881155643 1.0252425550714022 -0.2992751224220975
Ni 3.8664440032741476 4.034419269339524 1.4019713064833759 -1.9752338057079726 0.7629756344425377 -1.5446205631598044
Ni 5.245542578198277 9.172738630999513 7.710625313993972 -1.1744621834635838 0.7258710162807563 -0.34297950528858356
Ni 4.070387318314873 1.767200912506432 5.437178776066265 -0.722958984840284 -0.2925347183744704 -0.8980567665508081
Ni 4.471800445805844 0.6258328587948407 2.5903272880757826 1.128790649568398 0.49437454406552916 1.6234194757365785
Ni 7.820709370942204 5.151415611857445 11.61298326492499 -1.9942085470382624 -1.0714010559053355 -0.005562581689442033
Ni 8.297248708611459 2.4011750869510875 2.1592722347461546 1.7396996730882621 -0.8655377108771803 -0.2308174438703315
Ni 1.2431177092699173 1.3915138947338261 5.410775467085553 0.7808368309936746 -1.2233149433002286 -1.6229636191460823
Ni 2.4879983752971846 3.7892750019325847 5.3124528502185 0.12208034897322846 0.6843343304895505 -0.09533213434510679
Ni 8.817143723572576 5.106073110283488 6.165195966529974 -0.5067850019147402 -1.9645297890269071 0.6910238266945841
Ni 7.812379633459064 6.910165525304835 5.0720368514904 -0.02048037934153892 0.6760705478188614 -1.148423336197661
Ni 7.5609204362916715 4.672208519518337 4.099004117446479 -0.5743026851507399 0.3923991933722919 0.031049413106636847
Ni 4.5169190798550565 3.1946175615208907 9.521411368005129 -0.4434906127314685 2.379511238575089 -1.7478559836468093
Ni 2.6845633898349273 6.590678584056212 0.7662379064067831 -2.0415484697748068 -0.9354395780746406 1.2014050306010147
Ni 9.122676255778895 4.634188351566179 9.800326051519525 0.17353737920193985 -0.08968316358944554 -1.95503393372133
Ni 6.866865814894157 7.696005831846913 7.066842010840169 0.02461831276931244 -0.8321879317721409 -1.262956468951251
Ni 3.8458761744383994 7.88124688075808 9.740638305516319 0.02789389819679067 -0.39524231924804193 -0.07614579122464306
Ni 7.689821491475892 7.344309950475913 11.240387484556543 1.4024233888320428 0.7516936337708151 0.42103871148585553
Ni 2.2822454644314547 1.9785878227448568 10.045956298011426 -0.6820748450314124 0.0388964199548814 -0.04219026021480476
Ni 6.563152206326373 5.256129646555907 7.060111060596234 0.48992704981713686 0.33920486873749967 -0.04667914922409381
Ni 7.214028378889113 4.343319142230516 1.7008997467097813 -0.9670721173782569 0.04182156402147636 -1.3245837548447446
P 5.267388317487765 2.6601711574514892 1.0100371031025586 2.7925286224183647 -1.091968852754358 -0.34310831755696397
P 8.773582834383031 2.623158393360673 8.812671036984485 -0.10957038943167581 -0.16627606965383623 0.39877655765354547
P 5.667850007998578 8.600225419910297 10.83618627360117 1.2365743794132962 -1.078086181234995 -0.7354396338057979
P 6.1100629918739315 3.280797230733352 10.979548238102424 0.5798539539862724 -0.6553996497330713 0.8623935088212438
P 7.274043531147256 6.305583291296207 2.745375137368613 -0.5233971565501243 0.2706949967915596 0.6318447452312665
P 4.057197789982107 5.585867854875046 9.398910125684495 -0.10854297660842598 -0.4932255180627505 1.0414392194359225
P 1.2261131052029928 2.5648502309786947 1.3896847105004064 -0.1524067678709117 0.04949245030317283 1.035498171361139
P 8.548250842915834 4.701255330853721 13.482405820354414 0.43537312583065674 -0.1469118061946115 1.686250037909554
Ni 8.734816441348398 7.89762652131843 2.6159246739674202 -0.6971103992082962 0.72566224270406 0.976099517687848
Ni 1.019931114914839 0.8749442452964928 2.6806634309976367 0.1342699490608849 0.08557865450276875 1.209089543729466
Ni 0.7309759729157269 5.917107841172667 4.24297985207807 -0.40340274357164724 -1.0586980065163702 0.5105400980817981
Ni 0.7378328486423295 8.311408329551444 4.517594413554697 0.8217713644245073 1.0144999718429173 0.8930677979766489
Ni 1.7563153541158116 6.105594969192605 9.513124538464233 0.33283778886889126 3.150976655656193 -1.5404258083521665
Ni 2.55617536439491 6.9698168928352695 11.935939220025773 0.33763392470595405 -0.3328475590609042 -0.3937497938629154
Ni 2.792290308303887 5.281268104021822 2.9651346930324203 -0.5438245711665408 -0.7709884774446851 1.1079510871152274
Ni 0.6541679579578122 0.9961825016650362 7.904253932832172 -0.7100777580022416 -1.6373288867288187 0.9765193788340859
Ni 6.699524840148885 0.8378298080381897 0.8905319544880661 0.1704728813440032 1.1706762340585903 0.13446535290114262
Ni 1.1108120021469001 8.496640050649079 1.1316195557903939 0.45053132162833376 0.21054583810548902 -0.7941888268205484
Ni 3.946728494335048 7.516230881664883 2.7209922327987055 -1.1214354947549074 0.8101633478719337 0.4251457916756936
Ni 6.781796155491879 3.77648656958165 8.81765395497272 0.736453419782293 -0.5508246566334578 0.8281063055035996
Ni 2.682296731146906 8.610569965116122 6.542624487088809 0.2377869332096292 1.3087470449228042 0.41725661873560393
Ni 3.893140205599731 2.6806550359654584 11.693967342000711 0.22746858200275663 0.33305221887254255 1.5259214440884044
Ni 2.3099397428048496 4.112418446085341 8.801626905763838 0.4433810837367977 -1.6420998257549009 -1.9349767579601382
Ni 6.176943414890855 0.23866703369104575 5.242034387529285 -1.0663246698236926 -0.5147050280927652 -0.6737640111728719
Ni 0.541133513589741 6.787514105186352 13.284530248015573 -0.7043915062507418 -0.6831619074480041 -1.0171749475719194
Ni 3.009525757626218 2.58539007637385 3.1272408988241214 1.117622034546088 -1.0988591521162883 0.008745350292797842
Ni 3.8871983883805146 9.105848880169058 12.009142035053975 -0.4043692212499745 0.26527691109978185 1.3971256307682132
Ni 3.307791923091926 1.5727999507078703 0.6775052146309001 -1.0676729563214709 0.49164043296381776 -0.9850778099270584
Ni 9.105410472933103 1.346441899752268 11.022443121405857 -0.8367493258905784 -0.9611943184412414 -2.4288190836712817
Ni 0.8224044028020551 6.87395495317768 6.571854123569398 0.7622793797064614 0.26772511552995826 0.427919754876405
Ni 4.30316290497977 6.609446144880486 7.561911050088658 -0.03269209091638241 0.007715623476702841 -1.5153783784652353
Ni 0.9953896375149053 3.431329485495849 3.486143448929133 -2.7668895816940218 0.5261150697019197 0.2553894767827408
P 8.540098333889784 8.93138145588614 13.36286709161121 0.6446874055218897 -0.45638675196784634 0.6710471264623411
P 3.303211966648229 4.969327363919739 12.768067868433846 1.2282612315619106 0.3669409012001874 0.14551184052329136
P 6.905277751014616 0.1793038955987168 3.104742212587466 -0.7644720164824059 -0.03196549716300301 -1.068076876628109
P 4.161771907477606 8.914544752462772 0.8204698142757356 -0.2866468921351257 -1.8714113745036673 -1.6410202195374772
P 8.367673700770142 3.001345265159574 4.975666545995373 3.309593923213191 -0.4999831485015583 0.6915763567639445
P 2.272488571478079 5.3281870060825085 6.946142902093715 0.5065284058192437 -0.5932727984953395 -0.18199913681604785
P 1.7163923122033389 7.109584850783048 2.8263732061646314 -0.04954335814576629 0.8619127125300834 -0.9257195225733992
P 4.585590443069921 3.764808147040899 4.185613798862718 -0.011972598980843897 0.36117545947131985 0.2096384957998712
Ni 4.329485994764115 3.9038298799062017 6.882250177750755 0.048367849780426374 1.0388004962614947 0.5343387431632927
Ni 5.156387336469441 5.5250225272126485 2.605944846270655 1.3331871802430395 -0.14511306242297586 0.4609939117225545
Ni 1.6074527779753554 9.06694256993146 10.848513911963677 0.5816969207322821 -0.6920977764850532 -0.3096343541692345
Ni 7.068943567228692 2.8944858333489925 13.166903721046214 0.3081294874889339 1.1233774489726265 -0.21804497469601156
Ni 5.533408231576973 5.041328756565154 13.578148363998809 0.6654218098557637 -1.5587184360137671 -0.5515013709855082
Ni 2.721184385757443 1.9397281515749125 7.61993378137659 1.9913703062585189 0.5558812452207588 -0.7385036174431023
Ni 0.12003590120440352 5.267929330672561 1.8967950242360017 0.3768417052536671 0.4544514826183464 0.07887707411287706
Ni 0.2196028483964869 8.181966261182428 9.121579304907655 1.078086438345311 -0.6909343523045713 -0.6305139422349851
Ni 8.324859036663074 0.9067492910929785 4.415707639137466 1.406608630557984 0.15487836933985585 0.5039642446364934
Ni 7.744053399344844 6.825123849343149 0.738898084947564 -0.031636910178990674 -1.1889945727518039 -1.8182021374705397
Ni 6.029899762388934 1.038222957249035 12.031218171337677 0.08705626748955975 1.9786104354896892 -0.9311838881220801
Ni 6.567359050228832 8.338972018535404 12.94303433074067 -1.306327379737718 -0.46739133060846605 0.49511065090060546
Ni 3.0960412281257947 6.908598452631635 4.975748630754445 -1.3000520882519675 -0.9900153564379917 0.019363749238592454
Ni 1.9244958320788685 4.563856637542805 11.03179518725199 1.696077308412621 -0.818621763051932 2.2551199820804966
Ni 6.409569756539256 2.6877721576895746 5.6161319458762184 -0.32582176256237433 1.2706906043707147 -0.04096024446244559
Ni 0.7305021199883547 2.96297996810677 6.824296472282953 -1.3567004328736312 3.106915146560604 0.7787627220734653
Ni 4.546824050035287 6.967904691061425 13.453941064583363 1.005104132450314 1.8214882644209789 -0.5082165921549441
Ni 0.19549324876303636 3.4061443889622796 11.79522635456731 -0.8108719439031842 0.5215978985578567 0.5774664275907022
Ni 7.100117120049132 1.1620683374994791 9.231138205954093 -0.06248217769462144 1.4828233273473495 1.332616395341234
Ni 6.026038047587119 8.09307219823246 1.7066475454075536 0.09981768092028616 -0.8871360058732464 0.5514725746301018
Ni 4.699417751588124 1.0348649443778923 9.800408136278598 -0.6044558116953526 -1.6529995033865403 0.091273648005017
Ni 0.0891002076290026 1.6205770116134042 13.21467238691957 0.649122815585424 -0.8180134400439719 2.4553811504305263
Ni 1.4867228874442489 4.240563948373554 0.12480614504413216 0.12646922206954347 0.558721028662399 -0.21877208267002324
Ni 5.509762224276011 6.284791594935716 11.321085197756863 -0.7719989209870705 0.26887157042957566 -0.7881022543068362
P 0.5382847993373885 6.9409566377705065 11.046702898837156 -0.21030081197421846 0.4277060962037021 0.04853728547875512
P 5.2706623800371295 2.041364007808161 7.26920799261281 0.05408804009365524 -1.2634424074487336 2.226642443466094
P 8.998662974884894 8.622780073028139 6.646504615257604 0.12552922675377734 0.7140855936100541 -0.5026406407290633
P 7.980532127981528 6.1835941459384225 8.472731931787898 0.3230012623944437 -0.548699639870655 -0.41203316555313557
P 2.7995380194174366 0.35071086426212994 4.01483832317535 -0.6755982361681332 0.32650439045169577 0.6276001110222997
P 2.648819208384321 0.0855565712685941 8.651397804941096 -0.14175700146654943 -0.6451247501696243 1.0226997340448905
P 4.9119613107043865 7.866592885700955 5.435759082846855 0.439954574553752 -0.2127420744258594 1.219610754975764
P 2.1496692507160398 1.3653866890336308 12.201993647025047 -0.4630093994906864 0.06435754034046334 -0.12065930025598574
