# total energy = -381170.18853552255 ev
CRYSTAL
PRIMVEC
9.28162698249488 0.00000000000000 0.00000000000000
0.00000000000000 9.28162698249488 0.00000000000000
0.00000000000000 0.00000000000000 13.58459929012014
PRIMCOORD
 96 1
Ni 7.796678012656776 1.9798081537070196 9.409209403693463 0.6073881548507991 -0.6561864073004248 0.0429667333695131
Ni 1.654375749789252 8.827876047785061 11.264187100302461 0.06449175192548248 0.5466728392486133 0.9469792032831238
Ni 7.956192053319909 8.762050749496748 6.829318079488049 -0.24262266403537572 -0.44647360661919244 1.7376931841811945
Ni 3.0224782797383436 5.257159909333273 4.555242440653824 -0.6679579460140561 0.9997716644938072 0.13710253341367354
Ni 2.7000252780696656 2.342135024728008 7.497394736328921 1.50043589822279 -0.1030053346196484 0.7953489085669206
Ni 2.222439163655521 8.925528044865057 1.8870911976732576 0.2609194054620345 0.5893510948434302 0.03833463391414043
Ni 0.9963548075797333 2.013667528799485 6.149422198896425 0.36162283142138363 0.4451782848465365 -0.5667205019281079
Ni 7.055827831597159 6.941273991851763 10.882378094325581 0.5319154784337806 0.8255904810602813 2.0816556222083378
Ni 4.584473996551908 6.736725497255341 3.3339863869144124 0.029887788698367883 -0.39514693132075823 -0.4265773819158976
Ni 0.028016590931087267 7.02352776983132 12.006503778419262 0.4172522478602298 0.8278831337491999 -0.37318302545515725
Ni 3.8030166976113873 5.0961236818512905 11.22492674649116 -1.3759399978295337 -0.10864582073487741 -0.3087210983263457
Ni 2.7537658980766215 1.7552855979266648 12.054240113956011 -0.33745163349181884 -0.13222386516513357 -1.0826758574882063
Ni 5.84805612548229 2.408192363689926 5.614664046994052 1.1829211128642143 0.381422382645814 -0.05559110700174297
Ni 4.125098434202297 6.202753499155141 0.7467635055857712 -0.4751061827542204 1.3983474189904563 0.08532360106916918
Ni 6.608082147808638 4.70861575693067 6.052563780920158 0.6369458139032579 -0.2923089755169095 0.8813970465069402
Ni 3.7938000420557905 4.135735178680357 9.040985915074819 -0.09489504680768818 -0.7828065531255357 -1.0905861134742185
Ni 1.5832506425157977 3.523639726590772 4.354841905138767 -0.5648626227837625 -0.2966790795601471 -0.9924000546200844
Ni 0.6645357161616572 4.36636504499 8.866029103501916 0.30640530570897556 -1.3291304936751627 -0.6439351007368974
Ni 5.921241753937358 4.878840795087417 12.292282287543296 1.1621946789501405 -0.7688459771803856 1.2046281655240028
Ni 4.761428214243205 0.9077366180045331 0.6318411852506898 0.8631810377195457 -0.26908342933006557 0.22124831212465768
Ni 1.8933033905870151 9.20532268909816 7.094379997272615 -0.7181183689185311 0.3687154766021069 0.7927382104169508
Ni 3.581074434121522 3.7346203886595295 2.462100052981877 -2.9030048114937617 1.812060543349176 -0.2106851918968307
Ni 2.2631762243136437 0.304848539843601 4.878216141594072 -0.22062301983583296 0.8890993002472043 -0.2886896335967673
Ni 8.577550569099813 8.18900310196144 3.109093494218984 0.6082466461963524 -0.4342852920831166 0.26098831102675696
P 2.4629539626607437 3.253776423187969 10.515077199425193 -0.050733521799125526 0.6300472870112116 0.3858017426604323
Ni 6.954899420205857 8.406295270352258 9.179942080219229 -0.5994568158188645 1.056400211621129 -0.7061167164719645
P 6.335991253939225 0.8879416922206239 10.474024563450968 -0.5872487037884467 -0.674166131707297 2.122841352418028
Ni 1.4554983292557397 3.975794183177791 13.150068901984886 -0.6747266321964572 -1.2592265695951734 1.3055190249038098
P 1.0679254329465095 7.77411437755541 4.666486452230917 -0.2001611524370553 -0.204501431683622 -0.08237197464001297
P 0.7831920350163928 9.102964907157453 0.11954642687868508 0.1398145330281979 0.06268015263804043 -0.6334619691197154
P 3.0046575560054665 7.111693944174338 11.166174047934334 0.3534827188127525 1.9558062931109799 -0.5582055224785613
Ni 5.814196750389825 6.886363886849837 5.36522403551928 0.3177896362865172 -0.413981547528758 0.0054538240257196394
Ni 0.20564187025045 1.7789259017535588 13.30558534592315 -0.1121934288768197 0.9875195865993315 0.27393355833351535
Ni 8.484725018030803 5.211076631555288 13.01908565438555 0.2300900787860037 -0.7882212963832038 -0.307953881143018
Ni 4.155616423594847 -0.10953897670744164 11.293325839931102 0.7854861568402278 0.5348982152111885 -0.749474000411677
Ni 5.0262423125883595 7.013058094638255 12.013173555541368 -1.486235695463008 0.5855301784354431 -0.37479099337222543
Ni 6.2613112835461395 9.004514690160255 12.744636299109615 -0.18355773955241936 0.2508813044997421 -1.1012032268684326
Ni 4.149611210961946 4.446493330399335 6.367985022015905 -0.09692184742972985 -0.8188282226357835 0.9281299317871048
Ni 5.278906761263549 2.35796019866788 3.0865836925538943 1.7628442295255253 -1.2230547476603066 0.2918423202931361
Ni 5.062988273660474 0.7776518318933959 8.756143922109455 -0.1257770810985253 0.43911125271685025 -0.09334852825617472
Ni 4.209951067726233 9.073690655775426 3.7482356072239864 0.1963183816521974 0.9069944353600702 -0.1020923358870758
Ni 7.552775419816918 4.1544376569729335 8.625487387778554 -0.922251875739773 0.7117924267005031 -1.037287144940762
Ni 8.823485838240451 6.183197111183698 9.810892229283274 0.2783743677136883 -0.4316637952998695 -1.5594730547916047
Ni 3.5795708105565605 2.6204910167847606 5.017444258407946 -0.17656202496087656 -0.9549599074957553 -0.19664182642988715
Ni 4.877782689615777 2.928325456016313 11.178590080297598 0.339097396625358 -0.9224112841357727 -0.14191281031812333
Ni 8.6559895984053 3.328567773104385 4.960022545154919 -0.1858316231882606 -0.7558997014323627 0.8315844938601872
Ni 7.78598557841705 4.292139874317181 10.945533068542046 -0.06344402738725848 -0.33136146143368095 -0.3885736489786147
Ni 8.201440482066676 1.5460220368425854 1.9400846467112047 -0.1526199123229823 -0.3974053883376317 0.14583348552876818
Ni 5.164176570606212 4.580761345774226 4.238965433553822 1.2675746844495526 -0.1698128791625011 -0.9378466448542363
Ni 1.1829340724121722 1.3503189327239917 3.197407246430414 -1.876881396479303 0.906724212417819 -0.6970412365332577
Ni 4.866375570101348 5.907087272847443 7.848964201721575 1.0889763457849375 0.9305326276913265 -1.0242737634002295
Ni 3.318339420211869 7.738138791519666 5.679272523989979 0.6863436476100954 -1.187305615085155 -0.16188411123372765
Ni 0.8220699857975905 7.139232531317798 0.7890951497529082 -1.6539580106450675 -0.38013785950643564 1.4652922604421217
Ni 2.4301062849051975 8.19215885512247 9.036720079331262 -0.12691325158549757 0.4362876672251261 0.5925791148624246
Ni 2.519701829797622 6.3096778415524 7.396828308388445 0.9965269323042645 -0.1863790110512984 -0.8286714339784502
Ni 7.348393994505492 6.579216288012156 7.549790448591661 -0.5676730956493643 -0.689132266098826 0.29519323904324
P 5.508190791666281 2.9564859121650353 13.533996903393128 -1.3654884634789064 -1.3137560681016212 -0.7016841346219077
Ni 0.2505352434541879 5.345335365303234 3.617497394575977 -0.9229967243255974 -0.20914818642701402 -0.24218969026301515
P 4.355561231226943 8.126324275207214 1.676258113472913 0.21159099154055172 0.9589664575519872 0.12903158348008104
Ni 4.7294344461665245 7.538852979400609 9.385694401830314 -0.4020251464978302 0.7782400168007758 0.8407137098549651
P 7.365323682051724 1.5723632941102434 3.9570304461473835 0.013768000318369836 0.08491145323241506 -0.09341152028362622
P 5.129221963534331 2.9135955140558574 7.693040294360461 0.07513200524814803 -0.6502659280509316 -0.1961252918047848
P 3.239167142377788 1.762218973253987 2.965871493331017 -0.8090374617976067 -2.0690872986250235 -0.2361576251363223
Ni 2.2056951086481726 6.258146248758166 12.923722506509996 -0.2227552356874873 -2.346380517459391 -0.9149193466341016
Ni -0.11983322915126106 8.45193303003692 9.687150507025807 1.1124343196975617 1.0277833192153847 -1.0379283780691868
Ni 7.298189674364279 3.4777049548438943 0.6662481763328632 2.0557188477379174 0.5375351386134033 0.969845052137704
Ni 8.969225944518382 0.4453222509933884 5.121271321893924 0.05389983534224911 -0.2608947228716862 -1.687407805663081
Ni 5.375379991721632 4.762393503445402 1.7715405111940534 2.9773935108179823 -0.8990934353454387 0.04847043679656168
Ni 1.9942225203513722 6.663391362769165 2.886754905258601 0.7160257480555604 1.2525671552971267 0.5298845640466809
Ni 8.159403993636365 1.967277957332341 6.968668713777588 -0.7261234986111946 0.48783520028511473 0.4932129196572603
Ni 7.841656776828401 8.5333514615915 0.8505571552147491 1.1125078532479744 -0.15263970981732422 -0.9164203566596605
Ni 7.419723297571718 3.7324206430737528 3.1497655834884966 -0.7342484417111742 0.9175920083702584 -0.9306634968422359
Ni 2.7696281985242703 1.9735616187735685 0.5872049131133064 -1.2187682044698107 0.6399524619400656 2.678882006034786
Ni 8.44240079916522 6.736836876778671 5.164878261603195 -0.49015459244691073 0.6626421902280974 1.0836176525761854
Ni 7.253442950866258 2.1173154568854384 12.240770186165646 -0.5532083263742861 -0.2278953851275301 -0.8335709281625966
Ni 0.43922979106721133 7.121922297066853 7.561242119915423 -0.5995272640454836 -0.03810529151215373 0.06512887128884913
Ni 0.3102532312132124 3.648097062285637 1.9043977192734254 0.3816131585003815 -0.25580548127423686 -0.49853021810511555
Ni 5.757170434444621 5.421853097831273 9.925275287092898 0.2620465770879422 -1.3984098967972753 -0.5387291589215044
Ni 2.8959789861157534 1.2617258035415408 9.670495555637125 -0.9115231764683592 0.2935947842078686 -0.4055028206337855
Ni 1.6963008586962327 4.290599124244443 6.674969264219368 1.373379179080893 -0.1941653398649366 -0.578645535500468
Ni 7.557527612812352 6.026087011899114 1.2938253821653847 1.0205662326416551 -0.47751556352666147 2.4547643427821337
Ni 6.438024178936887 9.248426564627056 5.122494640325169 -0.6901015719906308 0.25617931967388785 -0.23668958638039236
Ni 6.297704542794373 9.04532600383393 2.6032030584384818 -0.08348937607390781 0.25394091726167234 -0.36477191857332664
Ni 0.9229362102883656 4.857752938670179 11.1887376830357 0.10940969548409545 0.9976985840148624 -0.03373570168954835
Ni 2.1709911055037847 6.000516129667826 9.607137313790581 -0.39436274485656597 -0.49940053652521094 -0.5438641661552247
Ni 3.770317525886948 4.161640199481638 13.29625267003075 -0.056212285525509637 -1.218914500239688 0.9166270733538279
Ni 8.568203970766996 -0.0014627844064069417 11.848555548221617 -0.3087084999208554 0.4701259559308097 0.18471062220993995
Ni 0.33636151964457084 2.7183472096575296 10.834764276264497 0.2262133694394169 -1.6793134586907206 0.1630087117564741
P 5.467017494541781 7.995258421128074 7.217497994199431 0.452727300838388 1.1274922424719485 0.4183537084545247
Ni 4.366225820585837 0.7407165256316207 6.473061392488572 -0.20689384317519852 -1.0877373311715137 -0.27833323006310773
P 0.5207920878394258 1.2132385843850062 8.411597863825483 0.05906800980674988 -0.3668884506956972 -0.06902126436471984
Ni 3.2106075762704647 8.214657518835226 13.301237831862483 0.04148963460335436 2.06891554893385 0.5066618460733144
P 6.650851884767541 6.777360460017077 13.269110408357808 0.7265518443978649 1.2343097517488355 -1.0512906583087056
P 7.108491782878586 6.05685560521916 3.392903370268152 -0.5435013834991672 -0.0193452372958312 1.397809287098799
P 1.9884307851381875 5.079611667517547 1.4543539046535188 -0.11178745168765264 -0.8144619752472877 -0.6780045316167808
Ni 8.911011580324319 4.862765017220051 6.723167824777937 -1.1634190382755447 0.45291422003821347 0.038856310745565344
