# total energy = -340856.6525707206 ev
CRYSTAL
PRIMVEC
9.39551585692142 0.00000000000000 0.00000000000000

0.00000000000000 9.39551585692142 0.00000000000000

0.00000000000000 0.00000000000000 13.75128716989492

PRIMCOORD
 96 1
Ni 6.169415209682134 1.5213689175823664 2.234116514527652 -0.3548682863063695 1.2187077835455205 0.08435763761147408
Ni 0.9569614844064644 7.726120662691564 9.433396774953064 1.5341260913863837 -0.4070202857195764 -0.17883333749355654
Ni 6.026885232966219 5.881461437342691 9.532900926001684 -0.4998520222403327 1.6615551062660352 -0.6101942568410266
Ni 1.691315009793142 7.417571919425206 4.948538380452882 0.6561864073004248 -1.3968911461599038 1.236620145049567
Ni 0.18052356404906017 8.660795983303029 6.827308026399455 1.602962750544123 0.6072912242616186 -0.7876029460729146
Ni 0.17402656478082976 5.3518362041537575 13.088489240207123 -2.2002819511946945 0.006961776029813816 -1.4014666813457284
Ni 8.220193263586955 4.6513817002562705 2.751948496116465 -1.4767385546058502 0.3351083300706229 1.6153302709705406
Ni 2.843975695584958 2.5222920210431328 4.605003554503792 -1.2780010219891988 -2.5800017493271046 2.681549268454304
Ni 0.37188015796980456 1.3408340789141855 1.4566460269691215 0.32299097798179854 -0.24871103632130068 2.3845822253400932
Ni 5.45637071443334 8.043125370298352 11.325807770483939 0.19551414058334715 0.3091800402406353 0.5548276071452638
Ni 2.2057101116533673 3.816928348110769 12.649781596054899 1.1838276838388837 1.0382047716590248 1.6210149800601439
Ni 7.8505454802030235 5.317411033772274 7.866726437744234 0.5461347073569562 1.226620610634694 -0.7972327558531948
Ni 0.6395584069240835 8.752900226002179 3.683061976637422 -1.0062264189802155 0.9712105650266628 -1.9465071271972412
Ni 4.83975239921325 3.4550224698562984 -0.07225997349534798 -0.45079897346742365 0.005659512278622512 0.2921878765580129
Ni 5.698295854213042 4.160005612433882 2.479879722566316 -0.21772898611748953 -0.2540010810756464 -0.6930447137793548
Ni 1.3551058676176446 6.7278095126603965 7.332764234400253 -0.3568071552002952 -1.7225493865612205 -0.947429403446665
Ni 2.8083197126161448 0.4125458300345259 3.4733690938202515 -0.0027315399985501343 0.3509393835656085 0.3778202671168525
Ni 7.9041375030894825 7.267534925478176 6.177270800554393 -0.3171041801837184 0.5013548320381043 0.44115810794355
Ni 4.072993739370857 -0.010597202421745567 1.623270804297295 1.5179865055120438 1.3996689660153572 -1.5760903516333116
Ni 3.9712590928395506 7.152327109097784 1.666669631947162 0.5726664350988976 -2.8348800908013825 0.27801415616079217
Ni 4.167869659270482 4.619202058182967 8.819635636128446 2.3234210804497404 2.7218034879886606 -1.6879860467640542
Ni 2.004326623128059 6.257742454975892 0.15133827290386268 1.641083982895877 0.6218953473280385 1.2962728237151935
Ni 3.911043231219755 2.2883718608390375 11.350958627087158 0.37715717961155687 0.07805843486632363 0.7148569245584399
Ni 1.2030206511970438 7.144218778846906 11.643270039716704 0.085499207415085 1.3587835406549051 1.0799144926929856
P 7.03982520130633 0.3792631543905933 10.784667392966526 -0.6115592555093532 -3.1881566071405993 0.44904291000826535
P 9.12459623185968 6.379874766599503 1.3596833629805973 -0.217303982764929 -0.8451144100258219 -0.4961342070691132
P 7.8637179935422274 1.9537223743085526 8.35911912039066 0.539174216878723 -1.0179583627051632 0.42598859929196314
P 7.421292543734996 3.211161853794231 1.080316152653064 -0.40469395157924504 -1.288254324286091 0.21457218565606273
P 3.467978886329024 6.1161050522736895 4.3413634982978655 -1.1389236242373417 0.528656862287167 -2.76338645363677
P 2.2623838637661158 8.308999680193338 1.8939922608625352 -1.6495573104742107 0.48604931202928553 0.577995817731611
P -0.015772252598088735 4.283716370734373 6.3296491570721285 -0.32995686777667044 0.3338556886104444 3.255532108371781
P 7.079267577196468 6.179073800062091 11.969780190793728 -0.04035834921238856 1.7455090806811877 1.4085755244763678
Ni 3.2000375629285984 6.955772915762456 10.241820789755534 0.5335401585213972 0.5469106662910322 -1.4865380571947755
Ni 6.478828340414402 7.706211564427817 0.23398404971244546 0.042088958750250094 1.9940355117955075 -1.1546916857048761
Ni 0.1841878152632465 2.6755892590191954 12.99867938249901 -0.19317032294151892 -1.7087037389273798 1.958705726145962
Ni 4.16907228531001 4.712508926921645 11.654752299739412 0.4814673490855579 0.182099409839338 -1.5867254627496543
Ni 5.183863170289081 1.1328925202670777 4.727954215565237 0.03974334133620897 -1.0642811570311024 -0.7659426874906615
Ni 6.913568258187776 4.197672235812531 5.778428330509331 0.9231576753834939 0.21241503010374385 0.7402159721485188
Ni 1.7562004428320415 4.542233991653187 5.233038361135056 1.1477047128640814 1.1620573820413276 -1.4389361390460962
Ni 5.205557416580252 6.04592054824812 13.40134488797754 -1.2932332655579213 -1.3089429629836942 -0.47137062697118814
Ni 9.247001013445372 3.5561182213041063 8.64162537259168 0.9287778497837489 -0.18208269766878965 0.2549729580706125
Ni 5.824505819751928 6.254463419914992 6.097527298617765 0.32571583311212937 0.8944145418125307 -0.002598613965111654
Ni 1.223361943193745 5.054064117663482 10.772112165024176 1.214504286987134 0.7451889998830779 -1.841196541483184
Ni 6.177326234098402 1.362838377231171 12.511897701968255 -1.4398311400565396 0.3972724623041933 0.005049646608765497
Ni 3.85568485133774 8.01159401882448 5.483669385979028 0.6219290287794514 0.6829886150949334 -0.10092711193438102
Ni 1.027822465579268 5.356580939700332 2.6962838224150074 1.5857245322889657 0.9302181817747012 1.350743701069564
Ni 6.249681102304682 6.7593972372298685 2.301786778489333 0.5788944182864804 -1.4655578553986823 0.41793230464638986
Ni 8.0558938764524 1.2340352492945543 13.76118845048454 -1.6796407601231524 -0.6987237664420031 -0.0219559354458009
Ni 2.2562391963454034 1.6739520963474588 0.2425339692122136 0.8064416760459724 0.7813682780171124 -0.5947249575608339
Ni 5.920123985410323 8.860817122017933 6.140926126267631 1.295887929571949 -0.3166583508955514 0.7064471032281898
Ni 0.33886243587520554 3.8540500315652566 1.1395360895838755 0.2890591011210441 -1.0030788744901693 0.4489580636039429
Ni 3.6794625544831785 5.653281937374153 6.251582754729685 -0.601785463952041 -1.4880375245584374 3.2751295708877337
Ni -0.1814819066743089 3.4097078965075274 4.45713598518588 0.698107987234875 -1.529345896388921 -1.060961605739566
Ni 7.48601825300302 9.11769052764833 1.7294166455595261 1.5645432702256603 -1.0470959035010676 0.060242489730825285
Ni 8.10828327329933 6.762817205029776 10.18527575621108 1.6376505317342958 0.9003329641794946 -0.07042688646299484
Ni 3.9174415775706803 0.6229245855148643 7.0233595596323255 -0.08296821346311518 0.005460508893938983 -0.5378534411847705
P 1.511447252756262 0.6686694734934039 9.481718852952248 0.23487541598978903 -0.5356294369502582 -0.017612313765124506
P 7.250810907115992 7.554361235905562 8.265005176833268 -0.4191340382639749 -0.32909092023194936 -0.11683555563452136
P 6.317751615245143 5.570864471602762 4.064853464365804 0.334050835340386 -0.560812363973789 0.30857120301204277
P 2.085588440439592 0.2803734700840445 5.521540831605034 0.024525238834873894 -0.20369770483540403 1.0337181966425812
P 1.7137796883908845 2.6763784823576358 2.872410285007044 -2.64051986131682 -1.7190899672577102 -1.5855967484618498
P 7.274966778581821 2.563256470514549 4.502459954050584 -2.24081847785616 -0.9264340321419207 0.36153387125200315
P 2.8624003023311615 3.721836331344667 9.887093085674495 -4.068460420583361 -0.8748178506275256 3.921379950021369
P 9.297257628175327 3.7040318286500944 11.378172738989441 -1.103357554207274 1.9159601076483195 -1.8010243401396726
Ni 3.7953186614630035 2.3222896733600957 1.8417785601635666 0.5296724480358749 -0.332621301982711 0.7236799221667084
Ni 0.35962370743414795 8.325874026810462 0.7624818209893212 0.7976734429350391 -0.03688247484864615 1.100170414728544
Ni 8.334123289800349 1.1124009000154356 6.40368582263056 0.27915444041282245 -0.29445147578120906 -1.2921644579737748
Ni 7.296595256261454 5.330630524691145 0.8045699741664215 -0.058553017843544324 1.484949372551417 -1.0322310705740931
Ni 5.859147086999889 8.624040724969959 3.2668791423849175 -0.9387046219791576 1.6812122183753304 1.632652821409388
Ni 8.796720912317474 9.168078679601358 8.97600144960849 -2.4400877146065656 0.9371262217484442 -1.5875232760606013
Ni 1.1148249431263588 2.054893289883831 6.680430744460967 -0.5269650764070408 -1.37630483736812 -0.6637539352350375
Ni 1.4986317690225435 2.2599692161711262 11.127678888678103 0.6689917865952092 -1.5560136354880942 -1.9147316345578569
Ni 4.863231793531843 3.29327866305574 4.7642162093117815 1.5949637914990469 2.8282944671640644 0.5955988755253548
Ni 7.061312746246956 4.074224551958187 12.657262305841401 1.224697425470052 -1.415186344924666 1.4945041061193873
Ni 2.286868578289628 3.772478162227909 7.32536620515397 1.1996769921663146 1.1677060956866727 1.6674619586687733
Ni 3.8639810919072954 2.248065097482988 8.91209972708786 -0.22701941028047998 -1.1930612866220096 -1.7657495760977786
Ni 3.443456589741777 0.12486734631194321 10.441517783170724 -0.11878188072761478 -0.15231343682615703 -0.717744787629196
Ni 8.066106802272452 0.8393775420464116 3.757827734232317 0.3413046886893219 0.3777942989749235 -0.18136587410742314
Ni 3.137181561331402 4.094265187445006 3.0629616832122606 1.772821138232579 4.100982561580782 0.4317244733344758
Ni 5.725993835185917 1.0175437711476785 9.344577204624374 0.20414764788862907 -0.6305473665760818 -0.8824321726396739
Ni 9.158335529577995 0.40068868892605625 11.082698795696576 1.2020385504199558 -0.34476205111030306 0.23422492688998373
Ni 2.6535004010588055 9.116365759901662 12.750688497632439 1.1776560078105331 -1.2549526248101677 -0.133346408805351
Ni 6.423141117474703 3.5370453239584694 8.707534916867365 -0.07085137559492315 0.02807413252839681 0.6835303465310164
Ni 9.255964335646228 6.003377652099823 4.927636176154932 -0.8193676400790212 -0.2811863832411867 -0.6893914332974838
Ni 6.297494882891847 1.8240360678741578 6.953888175266133 -2.860825092801918 0.5908829581069243 -0.8054386887027547
Ni 5.004277278730216 7.885712896343279 8.248145863041637 0.0062441811374989225 0.3741096510344848 0.08754991929652664
Ni 7.79094972263486 2.2797749637596003 11.056021167754112 -0.5315465251301362 2.5828996397001904 -1.1962939346266945
Ni 8.496289894817929 7.975656170377654 12.566270492228812 -1.0856354543371625 -0.5564864829049255 -0.5504598170948714
P 3.398611792189697 6.839071212348587 12.18320027478184 0.24497933719301035 0.055370763460820774 3.5049985348018664
P 0.6222744158122445 0.392167895525683 12.961619709449685 0.3577821175190548 0.6794183812451718 0.8518445296608038
P 6.351349980224452 4.338229154182345 10.823362825339927 -1.9167044420135118 -1.931495227169441 -1.9605659192831526
P 3.213980508574374 6.499009908640228 8.279512792986665 -0.048818564164599794 0.8576986744487357 -2.1625615538257854
P 7.936176212423779 8.188596143501549 4.145173850980768 -0.4879727543042434 -1.0553172629695955 0.3012862393148553
P 4.887340687418003 -0.07150457401426956 13.31805269967271 -0.26312155531967585 -0.6364914999746586 -0.019273246407315196
P 4.825039021260901 3.5908534437114064 7.089778340871623 -0.09273403460062739 -0.91654325539077 -1.5278238033174396
P 3.487700074274094 4.864782053660923 1.1106890370122953 0.7951774159860627 0.1059199371632821 -1.5183642005664366
