# total energy = -340897.2519097329 ev
CRYSTAL
PRIMVEC
9.02357693702736 0.00000000000000 0.00000000000000
0.00000000000000 9.02357693702736 0.00000000000000
0.00000000000000 0.00000000000000 13.20691696448012
PRIMCOORD
 96 1
Ni 6.182052502412411 2.041448909477845 11.334863195893771 0.18224287739573775 -0.07540994149988303 0.08088793389531876
Ni 4.657510169417111 0.3234582335370384 6.034953761975501 0.11444802923895128 -1.0661727176268607 0.0030429005913818565
Ni 2.931444294550004 1.5055928216027048 4.965589520922531 -1.2011085824065184 0.07656745214309395 -0.9836163948901835
Ni 3.430628566092048 4.098986856485688 4.676133027327604 -0.4719722651109291 0.5294125095062688 0.9750196543601078
Ni 5.077368176839016 4.507258591227549 2.5424902331363635 0.3265342152483667 0.4802386188847794 -0.13101981755470338
Ni 7.446021006605835 6.1388656635910035 2.37216029408982 -0.4030528164313962 -0.6913169324549707 0.9090469470137248
Ni 4.97454451859206 4.821955833997412 11.222432135370768 0.04016525936497599 -0.41086279939411824 0.09190562516206108
Ni 5.689536654165188 7.960139297840614 12.475082367116702 -0.7768896734204684 0.518729575871126 -0.6763729095506287
Ni 1.8213367992875866 6.422494731253865 0.3769599230598138 0.08285534203433473 0.7735420971044743 -0.23581592552618738
Ni 2.6193999833751045 1.6384649907722022 0.415501424516979 0.32408883903166763 -0.44361556834510696 0.35974772588585785
Ni 0.5350737437619316 0.009178782375498327 4.727310243452888 -0.3143029632894974 -0.23363151628035894 0.028896628429692168
Ni 8.665972502907321 2.271351600554277 1.4024163415007727 0.16435982646772984 1.5218873832283468 0.15133230385981034
Ni 6.848885808317788 0.6198646860246211 4.712148829623442 -0.18345952341165822 0.25210309272198517 -0.14751215878277177
Ni 0.7368779188738881 7.236258939066675 2.5522365984959543 0.18426247892892783 1.033636178451736 -0.2767851688496975
Ni 7.696019203335271 3.8945216285595996 3.8987212012272723 -0.4469844848173399 -0.1868934887938717 -0.9049336961762996
Ni 7.61676512782996 3.7697526314046494 12.514464865936626 0.7944657346310189 0.18415397837552155 0.1100496430609395
Ni 7.95828044100877 8.760665918409169 6.814861509433544 0.548235812860359 0.08056268934541609 0.6415282910676178
Ni 6.906555487989249 0.9332363653546873 0.43901596343981725 -0.9996711343602009 -0.783784857878405 -0.6700919616379234
Ni 1.7818225562456018 6.386427494569961 9.208205552544914 1.0768597650270615 0.4257502580289119 0.14148395031082087
Ni 0.3265262496672679 4.799622481284712 1.3286422842186631 -1.048342117203343 -0.12543306749554525 0.396566180265788
Ni 6.379019137973143 1.7881480836199868 6.9822064492569105 1.1332965078585515 0.9251834475642712 -1.260087632043888
Ni 3.4768743974668306 4.527110460305504 0.4804820061552395 0.07304786902560968 -1.020015759454824 0.38104623025331796
Ni 5.879239310358759 5.496332850152413 4.729977612770817 0.5632297151660299 0.09347399809044547 0.6936985453132698
Ni 5.1911284102325554 2.920273106405227 9.00838475962538 0.5672630046951391 0.07879017082602559 0.9851744834059227
P 0.13843249722669576 5.634357481705325 12.383068953940379 0.17859165379639566 -0.3973537091640899 0.1160246296974518
P 4.083267785606688 6.2346599554689925 12.5779899446284 -0.4667490690387768 1.2856901631033406 -0.3096448956921958
P 2.2822159870860306 8.416245013483495 1.4653864702160473 -0.1103257795404616 0.3021547579627377 0.17473062817909263
P 6.3234519517085745 7.73853829746951 5.870897013557592 -0.163092529719532 -0.943984125210542 -0.37266006307215177
P 4.58543886108728 1.1066875596348966 12.651513146473977 0.8161751012836524 -0.10518228766630919 0.3565184203152828
P 3.9255898036666 6.123805313822318 8.15453150692501 0.19414734214280754 0.292263981211587 0.4469096657153465
P 4.775556601816118 0.898999110056697 3.8077518158929125 0.8419866630301176 0.31276775759189357 0.5063931657929601
P 0.204937160995532 5.48220192879965 3.563741664763537 0.882628604921196 -1.0167815687882424 0.46359072591545325
Ni 1.433070334430192 1.0719377651716209 2.659951937755255 0.7860158040914527 -0.30484721719323626 -0.471286294787498
Ni 1.7749014727988783 6.4546367120064465 4.905339098270937 0.8932930266135778 0.33137765938359703 -0.8255480578581201
Ni 6.057879061329799 5.646512239727146 9.120710244299195 -0.3257754827054712 -1.206679905846709 0.32346920316979777
Ni 8.501680239133533 2.4764304317064108 10.28448997468692 0.21179513713155781 -0.06019723831518666 -0.03788237686807024
Ni 2.446986500433061 4.977233544494438 6.9454119122786055 -0.2895064730711079 0.7601913868291811 -0.13040866633326573
Ni 0.4771035789812456 8.948536788501457 9.224265714628979 0.6542483097374474 0.2714881821168163 0.0910882714670883
Ni 1.415979679869443 1.1661529311002268 11.35834434758225 0.6852149333222909 -0.10668766856724206 -0.26424487029084165
Ni 3.9672065401154777 6.864704138542177 1.583086397263875 0.5552006742139665 -0.14271165207033487 0.1771361522967917
Ni 5.693913088939192 7.658833043121518 8.07498596988733 -0.8687150801638974 1.3440878863159431 -1.4127286274127926
Ni 5.37934217624528 2.878123978921986 4.720006560347572 0.5115407714321707 -0.28159416020256667 0.8809951830828311
Ni 0.9731025278939635 7.389650722001296 6.999441481047318 -0.6514627765725103 -0.1752314790749111 -0.02194976479821381
Ni 5.137979542564755 4.5577996451846525 7.046642909210898 -0.36356632830099966 0.03330992700603941 -0.12242410546589239
Ni 8.148046262240317 6.98870613166457 9.133203386453026 0.05790715672942931 0.5419744053316795 -0.2136082790808966
Ni 4.377652956879061 0.5165059296702458 10.431047300512612 0.814666892169242 -0.3363270329690724 0.25435615042222
Ni 8.191585020559014 6.903713061280359 4.818081110096469 -0.5298879064807906 1.246073834263299 -0.14629551276685127
Ni 7.334200842235825 5.898612929863473 6.93343311400543 -0.677795243819452 0.3883931575366924 0.05720498845608213
Ni 2.437692216273837 5.140452002622647 2.7606685908068913 -1.0375943917685357 0.13051511000414298 -0.7786488222034202
Ni 2.485472055713734 5.276780201727079 11.431999293649891 -0.5404656819966369 0.08858581676020873 -0.6334118326080703
Ni 1.0554426666832106 3.1797550824078122 3.8423942297916303 0.4838255649050893 0.7380035378782323 -0.4497836448290318
Ni 3.7408140204351024 2.527314381583952 2.8264784391579996 -0.9789372442469592 0.4402492229760354 -1.308296844759263
Ni 0.9774428683605527 3.457202999925948 8.27180913057609 0.012180344116275797 -0.7826528011564908 -0.21884330222759088
Ni 3.669581904752657 2.6844780196433837 6.940432702570781 0.17068576868575766 -0.061496159632268274 0.06458354030834039
Ni 4.021293859776053 6.880323950075788 6.055331705584022 0.45921753654842207 0.1273102299136001 -0.23401332509980988
Ni 0.6157255713218672 7.4489265983527 11.277492196616164 0.7804786763233075 -0.24727378965414187 0.12130773247326206
P 0.24063894281686418 5.509308753667914 7.9236876567827474 -0.0840691598367778 -0.2067614313623923 0.45246633386751756
P 8.45932356938266 1.5724485025111468 8.103500472744756 0.7902828068979229 0.6365447218100972 -0.5894495680945074
P 1.928518845154839 3.175739590707953 10.411871297340992 -0.8576079145071422 0.06264544274536307 -0.4034888755275503
P 4.007839706687311 6.116947395413569 3.882172863635426 -0.25948395856708856 -0.06503708290599121 -0.35726172623921054
P 6.814190155315634 4.017097896539122 10.464844205260146 0.3483222576577356 -0.19138649156821877 -1.2199665956532861
P 6.34627257757137 7.910635955221676 10.125558617921865 0.15733197308667096 -0.5096435544094577 1.278184855865231
P 2.4308162507113806 8.542981150392535 5.722187564652312 -0.3426838284250356 -0.41802177903640264 0.9812129276550133
P 7.074294758121119 4.104942417209075 1.4241938418792899 -0.5069235843751334 -0.3733568320288602 1.2560438009918176
Ni 5.3949529642020355 3.0270039734297987 0.3744531734098792 -0.36870056420377145 -0.10159894119042502 -0.076195670625972
Ni 1.340542577373212 0.9660009729101674 7.15375096174795 -0.24826777813629497 0.8948331174071881 -1.321049516439241
Ni 6.789113635239436 0.805732322055406 9.144905160916794 -0.7569163156223352 -0.49271361142333864 0.8008412991400595
Ni 2.761602531011241 1.5689834489993582 8.94400153877483 -0.2008836324253766 0.5916717725568068 1.3097610880096153
Ni 6.250153436926651 2.1872518642785743 2.54795761835197 1.0447217468419363 -0.30776001996465707 -0.05859981192107973
Ni 4.2556181035107565 7.004813216348276 10.244024646644565 -0.35456643879523453 0.17235467174774835 0.3056123774940349
Ni 7.97040812830003 7.260983539645584 0.22991261701097074 0.017824172665614462 -0.3755692662991467 -0.4687871825147281
Ni 7.4303380300342505 3.6681561796097855 8.245104757235497 0.7661604599284224 0.07584625770635324 0.09679354938198169
Ni 2.9297117677941094 8.450760194948577 12.573262492714788 1.0980281715745606 -0.5288478952520504 -0.6279186707039831
Ni 0.18551661889117937 4.907959544989228 10.228836162084558 -0.12572694458688027 -0.6067248102351873 0.4624118751160036
Ni 8.59422604334422 2.2986028026521974 5.681840445466739 0.1764643230407477 -0.3054431989060224 0.7514902595107573
Ni 3.749684196482207 2.858055543999544 11.623566220821418 -0.7038055518402847 -0.3065217766821818 -0.30017372297696693
Ni 1.2149885290319973 3.444425615101227 12.531779305203345 -0.5045463423922085 0.433528359312434 0.14583399974940045
Ni 2.9083439378047466 8.305850574256356 8.11225604936582 1.471961444932181 -0.22512245036808326 -0.33842273915583654
Ni 5.7416297633411135 7.694006945696914 3.5836973049753094 -0.7287388247468547 0.18962528590273794 0.4913902646262247
Ni 3.154083006259275 8.26623707186898 3.6102952001090283 -0.2066310764321151 -0.27909350526789994 0.3983960343856751
Ni 3.331694069469001 4.262575281264895 9.176588743965214 -0.04304129536119038 0.3175399821695563 0.02655795299418652
Ni 7.211182418990476 6.093152223250583 11.271760420598747 0.10065868876434278 0.3569542223011207 0.6720714539617975
Ni 0.3505749843398402 8.978025837659075 0.44361618291979077 1.358086257477564 0.9000354875437337 -0.22069115406960704
Ni 4.4870548026523025 0.26310584446699764 1.7889827644789462 0.0929482074939625 0.34756378222515627 -1.6981704434962237
Ni 6.026819909799651 5.725242947774947 0.3592502511269068 -0.7070608255527888 -0.325159189277711 -0.26991955207811574
Ni 7.957937545088333 9.089178257341919 11.226631708038441 -0.5627589461771985 0.05562813088726549 0.6398591308953109
Ni 0.18298009143762786 4.874915206551285 5.784682150867402 -0.05274283891967045 -1.3690826085880679 -0.008372283224095257
Ni 7.8403242443783 8.791391197595733 2.5014167160140732 0.13364028589668597 -0.24019502843048957 -0.048357565367781234
P 8.462851787932424 1.6101038887212868 3.4671722476338225 -0.5238514704787236 0.004342593239411876 1.366627462179356
P 1.8841047998813407 3.3035405096857184 1.5753477777542135 0.5173185544562123 -0.7387041634896826 0.6593177538405549
P 4.774609126246488 1.036204400831301 8.100066099394269 -1.318654533844503 -0.7583851868583779 0.9825362744521271
P 8.679255208035844 1.7836182480394713 12.483785606992015 -0.8733857461666894 -1.1270042470919366 -0.5141938927843015
P 6.145967218574799 7.743961467158533 1.449485123084605 0.6535479412363132 0.18459620811926272 -0.5613060157807559
P 1.7416044742090346 3.1266332854705747 5.979246710269702 -0.10021260236585966 -0.3388423431917584 0.10132666136564486
P 6.938183124861173 3.8064966363525743 6.029776033576896 -0.033480134035316536 0.6053628968906541 -0.4482234994307635
P 2.4833876094605483 8.43287546562471 10.316464116910025 -1.5780541602279017 -0.040428283218375535 -0.3940074183996763
