# total energy = -381165.7379983151 ev
CRYSTAL
PRIMVEC
9.32609725484036 0.00000000000000 0.00000000000000
0.00000000000000 9.32609725484036 0.00000000000000
0.00000000000000 0.00000000000000 13.64968602882455
PRIMCOORD
 96 1
Ni 0.7680535499692329 1.691287765170188 11.593715611693867 0.25543755641185684 -1.329789210305084 -0.2460471163358924
Ni 2.624345158772322 2.443241673181807 13.145056891750368 -0.10614645135179138 -0.2803044948568656 0.4860038035033307
Ni 2.4091641132483534 4.076894156362738 9.766814266266335 -2.2698973974999874 -1.0090849714749333 1.478493589623744
Ni 6.2980441458403105 6.6029049440517715 10.555166067246834 -0.7298204878468075 0.2903539086730677 1.258350080527491
Ni 1.5509952818426163 1.609292716747931 8.954290153410764 -0.8782261049781261 -0.3294788996989874 0.6445483088408641
Ni 5.266596424570432 2.912400329452286 12.310993224318358 0.9001853828580367 1.9360242253880462 -0.23777253503192597
Ni 5.5639870187570715 6.058829747292666 0.9098102305900592 0.24495388327171358 0.13852152524838723 0.5702110315798696
Ni 7.661146543178468 2.152789695467661 11.895661071855193 0.8107688426664167 0.4125191040506186 -1.411627423928814
Ni 2.6910920379304306 9.031056991625388 7.8544112597906635 0.717830405364467 1.4080718453670718 0.6584335514633887
Ni 2.2230618394464723 9.039730262216004 3.100703562242754 -0.1938498655070468 0.6455770072156947 0.4019971214733722
Ni 4.303052018537412 7.3051694050668265 5.180069825417014 -0.5929465255041724 -0.3121743469822688 0.15559339312900944
Ni 5.9719011933409085 5.477011834318266 8.406964811704531 -0.25002049916134356 -0.7621883626545519 1.1157495001137236
Ni 3.3022871577440145 4.977049078304985 7.970815877214144 0.8906990406341564 0.5300151760872743 -0.9679064403540945
Ni 6.0375662451995415 0.379103061857395 1.9865753243910376 -0.7775103377236029 -1.095647587157526 1.2261500987561786
Ni 3.1495256821802555 1.3696586438168696 6.001371661154185 -0.6504644172149829 0.6373870152057345 0.8298901368768998
Ni 3.4558973081720166 3.0867796988107217 3.253853003458738 -1.0007875073528312 -1.9601278033044693 0.583392306156834
Ni 0.2828484104963721 8.554707914252363 8.494745770959495 0.7989584802950499 -0.8601664192629381 0.42259114357464
Ni 0.22926345261195882 7.710873294564668 5.804651625451855 1.304471814586218 -0.7321295955959585 0.20557126770903306
Ni 5.659551538909809 8.321350304877738 6.704138798819601 -0.3249262473312985 0.06876441115890738 -0.39107121858948773
Ni 1.6482758039186585 6.286759567975101 9.46792776605525 0.06892484799617161 0.8681077855972017 -0.41972076400538033
Ni 8.917978060538049 1.431285495497292 3.224369479109088 -1.181637103945468 -1.0993872567056162 -0.8673570234741061
Ni 1.2907318814422608 2.0862293382577377 4.411892238352237 2.189609559082513 -0.7029653153271764 -1.1943856618603883
Ni 4.17252395919734 5.824623463053797 10.263294657506997 -1.3006642679146696 0.2853412859498247 -1.1045662298033943
Ni 7.938178266720681 0.47861438643373333 9.745111504985234 0.4699840310363067 0.7215281659310284 0.26683911338057914
P 5.783019742511066 6.042294576586039 6.366268278828048 -0.268896253019924 0.37969460132142996 -0.9858501693167085
Ni 4.886576607337706 2.6161008886625314 1.2146728940210012 -0.6722689146845842 -0.1927455766992745 -0.06598196331776378
P 4.660036375169253 0.6107185562359705 8.277128748792228 0.5429748215717358 0.9627086982032389 -0.8722732298288011
Ni 2.157816461971255 3.9598889382661007 1.474943755299284 -0.45571338004990547 -0.22656586768282916 -1.82190992533943
P 2.1668441242634233 9.278767464912871 10.589344349032308 -1.3007866524251468 0.5825317579287516 -1.4989073773934056
P 8.575635676838754 5.917427458373392 4.025497100930538 0.8997493237618827 1.3092178139116357 -1.0631670980313173
P 0.19816744602024688 6.328531158271198 7.683927401320078 3.8862411973367075 -1.4278361724781925 0.5155059267275057
Ni 3.567306867823095 0.2977095467180357 1.1295582660153451 0.8842890233427545 -0.6594157128709999 -0.63195144601246
Ni 7.697275844541959 6.882678540232309 7.505116270472761 -3.409518047804354 1.6870226544095206 -0.9759827896043255
Ni 1.12480195633662 3.888003379435487 7.617712109714297 0.42290841770474263 0.9880109244134533 2.1172281199963083
Ni 5.178828521851841 3.9853305319985752 6.677781382321537 0.749409979942961 -0.7524176564210332 -0.44147152541891066
Ni 8.244475283933168 6.015621937995542 9.640718901024888 1.4130934669513793 0.32594543262443215 0.23374670170198453
Ni 3.5824617761131505 4.898103663735558 5.179195970089765 -0.48717699787582547 -0.24037911941683762 0.3430368408890802
Ni 3.235419039319585 2.0323897779140516 10.79535970602245 -1.0781931391265043 -0.9997955757532072 0.35430238650057044
Ni 2.3112400904510717 6.970120029541576 7.1169734223965655 -1.2097940259956583 -1.2569074345436935 -1.4749140998026016
Ni 4.21096613271833 0.3544952212333087 4.482980415854359 1.8834335957755242 -0.7533144572036897 -1.9942412000484109
Ni 7.268778972975875 3.46727514701132 0.22699441311228466 0.40222594965472663 -2.101203462433278 1.7928142935250542
Ni 2.3105686114376045 6.930446811162563 3.957535031280002 0.09754045485033523 -0.04843932644831012 1.4674440166778018
Ni 7.8985423527313054 8.723370385898919 0.7458042793799496 0.5406700846979592 0.22521938095726377 0.5641684249302155
Ni 3.0001589060734695 7.406376214152169 11.540482247681783 -0.07920463265562488 -1.2202805273492792 0.6150302447770891
Ni 6.071895609763047 8.41344551679423 8.933678545526547 2.3900985271726323 0.06864176953811404 0.6755766389015785
Ni 7.731819709345877 3.736724753359801 3.9272196190414452 1.6399856076253756 1.367982947765986 1.7166682451900952
Ni 5.415683417754941 2.865368820217364 4.362180408721892 0.5398211064341025 -0.15036145530610878 0.35298135369630174
Ni 1.8054951540440458 1.7532223780651162 1.8510335550837456 0.6569495107186943 0.6574642455715838 1.830247498670848
Ni 7.546314305778189 8.190924832609168 4.98601239052503 -1.4904494764340397 0.43344222735653093 -1.0461512801996111
Ni 4.264283431607097 8.925886591141108 10.203358627286875 -1.9180164759567162 -1.3231174547118632 0.15715096742411644
Ni 7.762045591049303 9.248774735644675 7.171900405698172 0.4704386020752221 0.3839742025333903 0.035731391963338466
Ni 2.3876767848174065 4.682251139198122 12.316248480208477 0.9252847490288258 0.3033752606334001 -0.09094480391068854
Ni 9.291907936162527 3.009233198852684 5.913999184965746 -2.657869922559494 -0.007063848825316866 0.24809448578322435
Ni 0.24989557791047554 3.5847653221732387 12.887432776916834 0.049593237547095236 1.0654880328550103 0.4313843163862377
Ni 1.2366778208581617 4.685533925486184 4.518510049154435 -0.9163391097997637 0.6695407171201436 -1.1611577530451938
Ni 4.8323360248054215 5.215079062481653 12.330184467567141 0.9863067972381531 1.275251998489152 -0.39465662194790097
P 2.3612559508569593 8.61502911229549 5.506351736767813 -0.1237487378145869 -0.1349965428142643 -0.2308866065453701
Ni 7.862347768685948 5.142354154884206 5.8403733763585635 -0.3558509619346129 0.21530623560860987 0.6939196601851405
P 3.937580913263139 4.3349192933848695 0.3023558084473315 -0.5266210628040608 0.014586125344291009 0.55923499218434
Ni 5.541697645948928 5.590911461977619 4.03543405772011 1.1551809666364685 -0.49172810758161767 -0.3604766336320824
P 1.3105591645343582 9.106840859173074 1.0538741877099378 -0.9668916259363349 -0.934198763689004 1.824417522252632
P 2.188023691479864 3.344525052910575 5.904253413173064 1.5503132426692072 -0.05471076127931867 0.41547433002420064
P 8.42662329243352 1.8619366955649168 7.675887372743551 -0.025381930408214348 1.123441983661975 1.002496776734454
Ni 7.2990141807767115 5.223826941851543 12.854428650795187 -0.1487308616812213 1.7562303237534336 0.2740618563812635
Ni 1.2274449844229895 5.930642538402321 2.325988380894083 -0.7662810446666868 -0.3800931223114293 -0.6893690646999805
Ni 3.4163826334489613 5.182465699841454 2.7500982562388496 1.7679280718063357 2.6221950948657033 0.20011075881509408
Ni 8.546650166090759 6.221999147565165 1.204714487207388 -1.1196367509832716 -0.7934097825626787 -0.8942667033807566
Ni 6.303537217214368 8.81546559781541 11.524375144846243 -0.27719371714202584 -0.9627930303869289 0.983381653171558
Ni 1.2702704237263338 6.595966327579277 13.525228724370864 -0.9548483216185556 0.06341420259058757 -0.69136346942219
Ni 6.484892507434933 1.253380861318155 13.592835469710106 0.7400930734174093 -0.9115620001260946 0.4790373994878266
Ni 6.020648704499136 1.3224965692182171 6.201585252946026 -0.5267236498201961 0.49928098022821105 0.21898676978399062
Ni 7.010446074739237 2.498377561065381 2.3263707508878633 -0.5489917171897771 -2.183737416572452 -1.004138168992619
Ni 4.636543935795315 7.87020034270455 2.8070853744581625 -0.3217907870261103 -0.44888144472973657 -0.07273368021930054
Ni 0.104512910616927 1.5817061206113256 0.49248788893975576 -2.0494206734340312 -0.47897415035005897 -1.1309945991982522
Ni 4.466128157835818 0.9824670576764192 12.560537208356504 -1.5792594933899124 -3.336731917080563 0.1713920507241629
Ni 3.5371369427041235 2.631740754017869 7.875636524884409 0.16841959835940026 -0.3654668877578222 0.9683957212856871
Ni 0.7882799900304467 0.7546519479921192 6.489989219669096 -0.28213923407275926 -0.10990154751884944 0.22556159478803087
Ni 7.961568119023117 7.243038944126305 12.563349026725398 0.1418629309167944 -0.40495106189537355 0.2283694965504712
Ni 6.975697035792316 7.2366225891087295 2.700099182808299 -0.19934996938966956 -0.12836155399624988 0.18824126107101777
Ni 5.623571455104864 1.3030423300224907 10.409359995130904 0.49617534471969393 2.3122948886295918 -0.5923965665379733
Ni 8.066029736104293 4.164540819815009 8.244997545388086 0.07142910247526407 -0.8181265685830683 -1.2663474969106705
Ni 0.32912637106062637 7.759406305482482 11.130172198673506 1.1038105825842925 1.2824333467289397 -0.8380806431074921
Ni 9.227576516233416 3.889169141611645 1.8630595576929927 -1.0630290297915563 -0.7330891312957504 -0.06505199530432666
Ni 4.24585506312639 7.108855054601801 8.369919687575448 -0.3033693470961291 0.584905914587883 -0.14016677416129408
Ni 1.9145825154402174 9.07122449316709 12.710955968251055 0.2125458992546533 0.5747001776994748 0.8036823681332804
Ni 3.2420965250646185 6.985610677338365 1.0296058170315485 0.28248273345510705 0.3325958480614143 -0.28343532717636344
Ni 4.553634929826949 3.5966374441752333 9.95623103508747 2.349331886778231 0.6997267537852208 0.1703355844351905
Ni 0.4860025208013529 5.415412960930072 11.308901259863621 -0.7189429217023554 -0.4025290827174422 0.5798434124633111
P 6.547507925440737 0.8195970251307582 4.101075794335221 0.24550769889265459 0.18235960547926014 -0.14743399724666864
Ni -0.05885606814012981 7.897152764217324 2.6936427255718645 0.6212654270535236 0.8778252699952818 0.5267791856484798
P 4.793595416167335 8.116194814068729 13.303940017653568 -0.6253743070155746 -0.014349840963768833 0.1278344778481863
Ni 6.14035849084446 2.6398451326665198 8.533251361942868 0.5794384637154085 -0.7065980269837572 -1.0639757099755418
P 7.120848415870115 4.574935736309711 10.995163882138025 0.12474118363484321 -1.4610170301055354 -2.441052906733312
P 8.269403942308132 -0.05586239087175578 12.213111168959417 0.9777406528356968 2.264226829477771 -0.29054082787289315
P 6.6454132960432 4.5741989746143785 2.274092379250488 -0.3702789644344849 1.3550544126297759 -0.8626061390526822
Ni -0.012151904924272152 3.217671475949754 10.059177161339639 -0.5661260628772186 0.7011940823593665 0.028849063021208383
