# total energy = -340891.16166732373 ev
CRYSTAL
PRIMVEC
9.06143096404944 0.00000000000000 0.00000000000000
0.00000000000000 9.06143096404944 0.00000000000000
0.00000000000000 0.00000000000000 13.26232015936810
PRIMCOORD
 96 1
Ni 6.631898254880284 1.991068237154138 11.40594036997321 -0.16701294781986076 -0.7236554966866763 0.6234403232176554
Ni 4.56286546526415 0.4479944310036383 5.848431524800868 -0.03899977830196509 0.29120391537818885 0.6186997232088763
Ni 2.6881006952008666 1.70859624809117 4.6938402953130725 0.4102184809419 0.11678978999825047 1.2540645657782596
Ni 3.061042011527963 4.270027199118835 5.026790798137085 0.06482702377771417 -0.43580815648554616 0.1683028702758779
Ni 5.350657216367521 4.528658563178605 2.7188814702192476 -0.5190306520513126 -0.23900589321839483 0.3335165601034708
Ni 7.507758054028533 6.008308695218546 2.466883979806319 -1.1360743277140046 0.4528167752284008 0.2148894597861654
Ni 5.352496686863778 4.35968099759152 11.689793321123023 -1.0280643407909134 -0.05209286404049738 -1.3410187604723165
Ni 5.575489442737468 7.755425086558896 12.390216566655955 -0.957154601154229 1.4875796110854123 1.694763474697204
Ni 1.9695020313359661 6.30604919554354 0.31453405042701693 -0.5010313872604145 1.4352034114765413 2.2872466874117126
Ni 2.7313237211473704 1.3927510085961323 0.34958275945395223 0.37550627427169525 0.30745328735751565 0.5434988123960058
Ni 0.6734808926929433 0.303257099527557 4.7805627208520685 -0.39289670183400077 -0.35069230055180894 -0.8091629316318775
Ni 8.595311004573471 2.2701693738791393 0.9949007245490479 1.1149000076292348 0.5310451600136854 1.3639231758743156
Ni 6.760334978101613 0.9072032890327257 4.75804325249101 0.28319724302362836 -0.09578413428086086 0.23785069656802904
Ni 0.45508409463058674 7.361343451671383 2.4461686423605538 0.787066099732838 -0.7997184983895259 0.3445003128084841
Ni 7.579180253296948 3.957951514926469 3.7935807808679374 0.436611626223448 -0.5442547167254239 0.45446459524446897
Ni 7.61968484993864 3.9158883521500183 12.521314632166694 1.6655786256031315 -0.36639017090304 0.050989346563673474
Ni 8.23967702148701 9.04823757247914 6.5950200429312105 -0.9698352819456909 0.3162186922549715 0.9192804518162748
Ni 7.088105060813758 0.6191277110294396 0.3446080338261471 -1.2731349521461495 -0.8603487104770731 -0.6914043499624545
Ni 1.9396989847242156 6.367358837798056 9.368396959280915 0.4686637695629864 1.0357555387875839 -0.47433279492330566
Ni 0.1574206164692303 4.824333057231941 1.2841570070137238 -0.16840314329916806 -0.7456646539679158 0.07074081815898785
Ni 6.422416092651505 1.7418516999200313 7.021735515479885 -0.4107051907703314 0.25782816813122045 0.9796252714529192
Ni 3.7195543263255124 4.387445222224661 0.8124524356135192 -1.0061027489181575 -0.16148327625088318 -0.5186141333391843
Ni 6.23328590448475 5.96671672685493 4.708681107031141 -0.4283398731329591 -0.7459724150163217 0.8006340682252598
Ni 5.260196950534409 2.8791428453120065 9.604294099064546 -0.48830391239141707 -0.7448583560165366 -0.6824677095944569
P 0.16428827503628587 5.538736278536416 12.460400974447579 -0.25242679460999107 -0.02905860792885318 1.5721568209068602
P 4.0829992629478005 6.0981980908976485 12.722424032136653 -0.8206639902929416 -0.6231528738842236 -0.9485524613075149
P 2.313365215532595 8.277961567529772 1.7695379962464353 1.4308106817254842 -0.14063831448107394 -0.44337619864079125
P 6.433326055594817 8.028382573055024 5.977712773392892 -0.5069690929010882 -0.3998937019771242 -1.2212310641880064
P 4.850937418695031 0.9520483111311002 12.535876351809467 -0.2965775209852763 -0.01441668964596227 -0.5080759528120217
P 4.082464638517854 6.349843091644054 8.11351652973691 -1.4909924934217031 -0.5349354962070272 -0.002486513867279589
P 4.696412835578526 1.2031496260165429 3.427089391138057 -0.060762366790037284 -0.7067414945401571 1.9511708512214976
P 0.26649215546618404 5.436432722365341 3.768621069134259 -0.09837400649522413 0.8595521827177067 -1.4641218942831042
Ni 1.4503635869961051 1.1879626676336623 2.576775578310224 -0.4648233127709737 -0.34019114391016897 -0.5616320316616069
Ni 1.7760404791435445 6.940122830890833 4.680034299017036 -0.15957037549888647 -1.5889556376317537 -0.1383456617921553
Ni 5.781519199749136 5.232097452953673 8.98795368421564 0.8289485988992369 0.630867726029978 0.675091985955676
Ni 8.861997980806501 2.346575360206376 10.333416708911473 0.06736933058359366 0.36535067389493203 -0.599198162840839
Ni 2.2264660920887858 5.5726985219845275 7.017624344227909 0.45313019270376154 -0.43609252049518443 -0.20420986858513215
Ni 0.6696325029404318 -0.05457337443719343 9.156981993816414 -0.3730616693859446 0.1541674593157603 0.17656793849814753
Ni 1.7088137224355548 0.9243656393771027 11.410741116125509 -0.5889615727144953 0.4054907364489274 0.14405762457526802
Ni 4.1543308479060554 6.693035729945495 1.5818630739008557 -0.28318104507371233 0.9931096790925992 1.1913327339666773
Ni 5.683211734656134 7.795603471684011 8.100638423976914 -0.8535417148575688 1.268513651324054 0.5638015285091
Ni 5.2822162279033815 2.877992043572969 4.897735179177362 -0.7907890571103801 0.5744520662444107 -0.12402667406632188
Ni 0.7395704398084201 7.465930488458499 6.987399034930811 0.13176877990558597 -0.09585895338285426 0.31321538665227344
Ni 4.720588733529317 4.6067590371058404 6.890411820336845 0.5508477965619094 0.22413951762952367 -0.9225598938984951
Ni 8.161023800267795 7.278676016512063 9.32589159867088 -0.6700515953182912 -0.8642135927491181 -0.23230534126976768
Ni 4.577436246337941 0.2503401546800954 10.236190272538686 -0.13708453569154455 -0.3378095310518698 0.9462731783550348
Ni 8.231132092038886 7.435882783209315 4.611308781618994 -0.3663929991165174 0.17621775424758038 -0.023028342574373247
Ni 7.1468412566597195 6.268661731171364 7.169663376816713 0.7968087809418987 -1.215911451747306 -0.4117349175864264
Ni 2.315249993183931 5.087295785317378 2.8249935458463633 0.22266987506253264 1.5784688791678172 -1.2131133201768785
Ni 2.2726431445465183 5.166782658190068 11.704501835948257 1.2614264054599695 -0.9444762343556121 -2.125308068790966
Ni 1.120300962236903 3.3429703147299685 3.6338096291931468 -1.6100831636389883 -0.725016895810577 0.6835385740611324
Ni 3.4472764471555877 2.758517075626502 2.7228603445783905 0.4056180060554111 0.8726743219219616 -0.5986674871483496
Ni 1.2022978515010352 3.7631398095126576 8.468402944764549 -0.9230232066881586 -0.8316510854320645 1.0030061122707048
Ni 3.2836541872989806 2.7336072017634123 7.165790521200458 0.7471538369189326 -0.25187092210652107 -0.6369671540594966
Ni 4.22076926011565 7.091285623100387 5.962195072777926 -0.11696231102037276 -0.5334900220097523 -0.34791705179951693
Ni 0.737624044426175 7.237546181130265 11.342918117256662 0.7917457645966945 1.4725324869443028 0.30321250980329073
P 0.1607597537986405 5.632159632311773 8.210397725587987 -0.8886966654921469 1.269355430499059 -1.0385112471558502
P 8.426324377555371 1.518405872495538 8.196352507513126 0.24424425879919873 0.3076180950701541 -0.30307264179131677
P 2.158949369588283 3.20341521565196 10.367566523981617 -1.3935952490174515 0.18159084563403566 0.6759800449875842
P 4.045874580075091 5.928187522174734 3.932265076425305 0.46014030547300755 0.578269640218288 0.10159225632220568
P 7.074485729996652 3.98784517584838 10.274306275964548 0.08690534373399228 -0.36458037138781085 1.007325051361033
P 6.160758210632379 7.64752156601991 10.382129149767492 0.6560668510034249 0.03800990358487002 -2.254331938961563
P 2.4603959951988355 8.58264312401305 5.806390109458856 0.1692264105314118 1.0391419387613137 0.5685899510366788
P 6.969880570347503 3.789680740958634 1.4144531358795447 1.0184766971024781 0.6610553053569519 0.818237640239636
Ni 5.380161235755742 2.8059264827024153 0.31886632059578496 0.06603261405004113 -0.8057058263212123 0.40221617946271376
Ni 1.3971004954838309 1.0720216577834498 7.012677709036254 -0.5011499151161497 1.139156309073438 -0.00695766226475576
Ni 6.8869775379817675 0.4852432554812677 9.439682330940988 0.06487304652430118 0.84867358813199 -1.2994345092726265
Ni 2.675940254777343 1.4759711910474298 9.165721744031384 -0.0859640628666455 0.3715987116871729 0.26474160742160213
Ni 6.467252053318864 1.940949462204429 2.538514591988103 0.14192078073792333 0.9058487517914011 -0.7371167643979046
Ni 4.2228624506803545 6.42350346437343 10.429621015865653 0.022116886503697395 1.0012798736082176 0.6043395978324625
Ni 8.070636025882811 7.26308129373346 0.3199881257555705 0.019650170130759707 -0.6129515078711895 -0.3481507650768778
Ni 7.633304180755745 3.6541489172517467 8.169921219382443 0.7449082354178654 0.12802062571706338 -0.1179439582073517
Ni 3.108297374276604 8.218409842892367 12.396091998526755 0.47959892841825136 -0.06820776732448898 0.21199799717098328
Ni 0.1027557215787749 5.134270243704521 10.389993565746312 -0.9715131838687463 -1.9642603374156042 -0.6998486240750657
Ni 8.428852516808844 2.4786457172651373 5.786801107888384 1.0197365376515084 0.7544742818397459 0.5837545745922591
Ni 3.6751351914848915 2.825118593594385 11.7393285399153 0.12261153888635012 -1.0792290365901864 0.24948545259348004
Ni 1.1953205496186856 3.103866334509761 12.40520326741338 -0.9077120302523851 0.4088336847792314 0.6490536529103854
Ni 2.9124164200029 8.43435280543558 7.977882311859539 1.2815468303589284 -0.798341158426025 -0.011313368130290194
Ni 5.751226835862518 8.156411531880632 3.6673496099559113 -0.3801753976125904 -0.7286542354528484 -0.9219947654236443
Ni 3.2693371262936397 8.571696915345676 3.705359594638888 0.37543942558950183 -0.26761867185908106 -0.4580818802820821
Ni 3.4307846427063975 4.387282116466373 9.071122216510146 0.6409654765856122 -0.018765710643277356 0.20024008530410675
Ni 6.948414040270508 6.055400952208899 11.605034507685202 2.2824104423653337 -0.14326829590475326 -2.0916734114556554
Ni 0.7795657840270107 8.805690248472837 0.49284488996062237 -0.8330631352882426 0.6535181164396422 -1.3926639954524338
Ni 4.711010800945364 0.24649267107068548 1.4051298295071426 -0.3818527853150133 -0.5840749340461554 0.13955408027795965
Ni 6.054893512072001 5.435127876299032 0.33932431340069497 -0.4485456586568726 1.3432844165780415 2.1684203265994073
Ni 7.884949181502151 8.58966573305048 11.351670553475056 0.3632904489317937 0.5538076505211816 1.2360334193081615
Ni -0.10692397984615261 5.391252427319373 5.8401819980038665 -0.06400427076610267 -1.3614585163839068 0.6297719218626379
Ni 7.8873232764283525 9.079191420829927 2.578539838929047 0.563671687799455 -0.9079467719710105 -0.2415631124226098
P 8.437723657773548 1.776647595021619 3.6728933934515235 1.0104106322648923 0.6302732869790887 -0.4980193399069682
P 1.789351721306105 3.2790237960497852 1.3448260060954063 0.09860309178689469 -0.5808386864970448 0.14389358819357798
P 4.645895357664112 1.188152957684999 8.22290340653322 0.3129382217314869 -0.28410869909430425 -0.6527665829855983
P 8.80760221041722 1.275432661231482 12.346968168702606 -0.47577749778963224 0.36906977461773216 -0.47373758454146797
P 6.18790625795643 7.610405944578216 1.345011765431235 1.2087946381968666 0.05244587650454193 1.2691201745598015
P 1.3853296965939967 3.483658092684982 6.416350370729369 0.4483993628869955 -0.7027285167260221 -2.701285313430651
P 6.722159169231043 4.026156906184191 6.160453746550239 0.3222983227901482 0.553780139717356 -0.6868624962280429
P 2.4734444558619306 8.38426121477892 10.255234682105092 0.1612881295209416 -0.8436943897498438 -0.2290158718852185
