# total energy = -340889.64642399864 ev
CRYSTAL
PRIMVEC
9.11026929068882 0.00000000000000 0.00000000000000
0.00000000000000 9.11026929068882 0.00000000000000
0.00000000000000 0.00000000000000 13.33379998705431
PRIMCOORD
 96 1
Ni 6.764028772273905 1.7964904462717022 11.250194133351581 -1.5043794562515707 1.718744925213466 0.9555373772657803
Ni 4.611682096493095 0.4497794619851603 5.871738932185854 0.4433139779442882 -0.44173660615483923 0.31606314051371376
Ni 3.061815750706303 1.8786377446379403 4.267735722052657 -0.20169841501718813 -0.29894293589365933 0.8530771165163245
Ni 3.330577805613965 4.234043213064317 4.743752759649968 1.2090990568111628 0.9499796806723445 -1.0264661430658581
Ni 3.924949995922283 2.8221883370513003 2.1551417064050487 -0.29051100307622224 0.2744133261834113 0.46554450720771434
Ni 5.439422945440601 4.658627314246365 2.4619127159000214 0.1534892023018131 -0.17952804956773596 -0.15247001700867935
Ni 5.139594872186608 4.493385249505672 11.485735591221149 0.31720985252364725 0.32881658352464016 -0.5593802595129528
Ni 5.799369685869797 8.064319290319421 12.13007760869358 0.5993920240192 -0.07347415792975089 0.29889691314707234
Ni 1.5810052462876023 6.921873298335061 0.25560500397048536 1.5860778018633264 -0.42262302525383993 1.3175013940766664
Ni 2.724334934395011 1.71087213529844 0.1130821288345088 0.3243099539035383 0.5535924491865821 1.3209533571810088
Ni 8.072308996504095 8.729596706665715 6.704581531946833 0.22994352590581044 2.4422649247635424 0.6091676153487251
Ni 8.644743658314475 2.5855035403833555 1.0953960061340293 1.4002742036995242 -0.5791268460122607 0.7054649418205785
Ni 7.13414257325281 0.8460479351254973 4.920172213806823 -1.340980451035213 -0.4127260778551021 -1.9164293339752545
Ni 0.9918805711017149 7.829055695663801 2.6229321708156332 0.2619545315947682 -0.7700019451616996 0.10031107561693693
Ni 7.80887644914265 4.1258860958186725 3.783532196453582 -0.13110774928281937 -0.21916160479895805 -0.6218434110441807
Ni 7.745250328283184 3.8277343121176775 12.453515855890787 0.7143874411211891 -0.12110872908857852 -1.2041342566067197
Ni 8.827814520094396 7.365324767257651 9.452637785570635 -0.7063794832150481 -1.0393111173493261 -0.10577672671719847
Ni 7.212846189819953 0.781291229844688 0.16999671429346397 -1.590707587325854 -0.5908875860926147 0.5364285358127858
Ni 2.107952333434278 6.908526753796241 9.099105585762452 0.09982385156787324 -0.6383383233754104 0.7363629169510156
Ni 0.09575712968811036 4.970471832719951 1.1811017756926654 2.518793553248901 -0.7783932545491885 -1.179895438664013
Ni 6.376432364489543 2.141541896379417 6.6859938494741 0.030091677179057853 -0.21810899516472762 1.6971440591142384
Ni 3.8246914821682125 4.897398362586248 0.47686247058925835 -0.8196715444726852 -0.5244045147687162 0.051509994953833876
Ni 6.038022300708654 5.701124541633187 4.622802091212606 0.27358748784800624 -0.12614963394659565 0.715381172493026
Ni 5.308836345154291 2.877824751726094 9.367167971987122 0.12710299899880045 0.05219622238758107 -0.329882048674677
P 0.3289116969985181 5.771036748316398 12.210267110185148 -0.8416130817407828 0.10800535893740107 0.5681520921683118
P 4.318559181451096 6.393678104292947 12.342499025108804 -0.2511183602112127 0.35671099594206307 0.14026113364731327
P 2.5367453790374412 8.806159409945062 1.3599272519742318 0.5654321221339874 -0.5726731199671169 -0.14298984543238602
P 6.225593635527604 7.701821674483488 5.772748567919704 0.6313919739645643 0.3965792928919106 0.18543387352920968
P 5.127705970737352 1.171334655965656 12.55626602830108 -0.5666001743001597 -1.5525488168679455 0.11485580620033123
P 3.9798120377057455 6.336338069257225 8.05086888871047 0.43755907773838193 0.3037979499931155 -0.8394903789708252
P 5.1039737191853884 1.0375685716902348 3.797159337287143 0.35509840003930454 0.8739855845342175 -0.3414494417973023
P 9.443614063819302 5.754638263558804 3.60811304986694 -1.0628552232178534 -0.681850130615116 -1.0350032340025916
Ni 0.30278526667194633 0.12248848189685113 4.599160942353741 0.8969334515796423 0.7902576100869423 -0.7016059730858046
Ni 1.9628895152147363 6.462415086235196 4.704830956077817 -0.21552323671542237 0.735977508587139 0.6607627138171975
Ni 6.00745734717436 5.394873728515803 8.941672843874098 0.19972740733374636 0.5591046372540629 0.25139963889705735
Ni 8.866177864157857 2.230285029725932 10.216744314416294 0.4138113404994809 0.5776975697649018 -0.3930784788275037
Ni 2.350476812729789 5.060499514039144 6.755383126698929 -0.17954244774543918 0.32968973015821285 0.8847590210006376
Ni 0.9183971388490726 0.21545331404151558 9.018235547153445 -0.17504841652982756 0.2652774253204141 -0.2863980093491132
Ni 1.7238178279876297 1.4069991024709065 11.297742450933157 -0.5986685155896141 -0.6687560164353192 0.15268110457822093
Ni 4.271768838276094 7.244823235097263 1.308913387947218 0.026331438805677235 -0.3034315677926323 0.229428791052921
Ni 5.6552634459277815 8.048549414144201 8.120204415346372 0.31280143904330643 -0.289166830343502 -0.75443880061612
Ni 5.551114847178439 3.1200485921343826 4.576506435661125 0.005613746642351623 -0.2488280215151392 -0.2010371272841054
Ni 0.8822612556318514 7.368604464209171 7.036352942481689 0.7864472352019166 0.47397798268704827 -0.2629996850298309
Ni 4.9544377587347475 4.698958476480737 6.817185371642578 0.012751386128397393 0.9931068508791219 -0.48126423193581636
Ni 0.955129744706084 7.894503870385223 11.595432343980146 0.6931930664317609 -0.022286836422658392 -0.755710468239692
Ni 4.638038105606274 0.39846951420557847 10.305893765774027 0.5217557642919595 0.02048397888596472 0.11780460441601003
Ni 8.118698487829468 7.35975839270938 4.49127713318739 -0.3430059876511447 -0.830628300594505 0.35982048810532224
Ni 7.676376692301288 6.666056936116589 7.238053393973169 -1.292501015377587 -2.027439026956618 1.0401225575070279
Ni 2.3993260767688005 5.656648206862868 2.519261861205053 -1.3598736883952902 -1.3720108379784564 -1.8206534272245098
Ni 2.407671083456554 5.562684889201852 11.35974421077469 0.4000723936468336 0.34509758007285085 0.23977156773982575
Ni 1.1443135971928644 3.4790114234781235 3.7127836670477343 -0.3305924444781403 0.1876776752580639 -0.508486557986879
Ni 1.5480169611169083 1.3139194809329389 2.359775664614276 -0.37566722532959174 1.0108559473324268 0.9941597176236684
Ni 1.4842724067564153 3.4187287714553447 8.371372718162998 -1.2977404093996554 -0.25883321235696716 -0.6942076237392044
Ni 3.9801126765929684 2.673526962454398 7.036646293153464 -1.4349043921788835 -0.35482046378756954 -0.6235969034001777
Ni 4.078549136485083 6.968472325854559 5.593809213271766 0.7430562698107913 0.06832423829769524 1.316678641065055
Ni 0.4464405482831279 0.08431280938117144 0.570670913672008 1.4419762114240005 0.8278355683407161 -0.009955568550815112
P 0.541804114337056 5.430012037243603 8.111657160679941 -0.3411367956528899 1.2768874772100463 -0.7943922010806062
P 8.74191379077253 1.601758439775269 7.705322750979235 -1.4494992592739229 -0.019116666224792883 1.1961962327065656
P 2.0028927077539564 3.553050582158662 10.538328621808962 0.6735475242866916 -1.0415068394490643 -0.43883974422301847
P 4.124829304578738 6.15418734467759 3.4809081815484184 1.1973619708798928 0.7700613376447254 1.0194318619268958
P 7.118299814923112 3.935135277010611 10.236291308247347 -1.2174402296870066 0.17535977712265927 2.4805818180658696
P 6.7568043287112545 7.668815168774175 9.952654916637618 -0.3852409850609559 0.2558769579421207 0.26453154829332504
P 2.1593069215334775 8.540913918990972 5.5525679351333475 0.8949876407071811 -0.8840164864076582 0.8327425187240304
P 7.088992078553567 4.072882548974404 1.111428258065371 -0.5398401325974962 0.521514851925747 1.7058217893938943
Ni 5.400349000370977 3.0253837837365145 0.14765013470351773 -0.04034755057911116 0.2597953191599203 0.18863952495070094
Ni 1.2735883186985666 1.1247811797927076 6.507908127060487 1.0543929513831132 0.31233478381953306 1.1167833406948768
Ni 7.029183160534897 0.9971371964934549 9.120252342884301 -0.0040482019274446415 -1.1218864662493968 -1.6449023282007025
Ni 2.9259360839510142 1.7786889800404024 9.029875738250542 0.4748177049795242 -0.9349387271788221 0.8149013767775514
Ni 6.558947499841569 2.002455414827087 2.1981968391630438 -0.21326066593349077 0.8323432264030826 1.3104781686812979
Ni 4.502659503663023 7.099040705602249 10.11835431689766 -0.4326734675113065 -0.814213092461275 0.7310893272569022
Ni 8.273135773168766 7.4725161959564605 13.391401682847329 -0.9269461958916488 -1.5797096935534536 -0.6709679364849735
Ni 7.7186119008214025 3.5145505840555544 8.357958757631286 1.0609731757037923 -0.038693302805139815 -2.4887090751586944
Ni 3.4565090582829803 8.697528558695309 12.653576458906509 -0.04489274674763236 -0.7893615806352342 -0.8386087476968201
Ni 0.171613787095949 4.781761714237279 10.167275552064218 -0.27268245953523357 0.31719751122847306 0.5146636333318685
Ni 8.541988930769525 2.811747968422299 5.695679333666734 1.3089763873247908 -0.7570096466670898 0.29270158296963783
Ni 3.8222772608011226 2.4406047070113894 11.336236982874679 0.4298370265037758 1.040340329944789 -0.019269389752573265
Ni 1.2230718753758663 3.557815253007674 12.716992132544918 -0.10090140090276817 0.2962399351401995 -0.67598364453201
Ni 3.263708428880219 8.5418704972685 7.71168354101132 -0.5806340266854064 0.19814797866176842 -0.19603170364971398
Ni 5.930029168310585 7.811800845591089 3.375065072707457 -1.0717435268464188 0.2792032913728869 0.43154732432666326
Ni 3.4241129406174218 8.615891435410418 3.8714153203772543 -0.08845854715372507 -0.7595303562064145 -1.9663858683990396
Ni 3.56282590112805 4.5715513601835385 9.221509342154722 -0.028394749092609167 -0.32038722181036433 0.23730202315341067
Ni 7.241051583603015 5.980053657090558 11.315129399910862 0.8300168922627512 0.2801885381042917 -0.8212322040915856
Ni 8.00575847919619 8.960195843434732 2.5664630775259263 -0.2363566285210058 0.2576142523482015 -0.33269149309901414
Ni 4.6629091408219585 0.5674267467707972 1.70637986150179 -0.22324348817781553 -0.6371232200213867 -0.9459271078695256
Ni 6.290968928094547 5.877563127355593 0.15593045847917192 -1.0276681337937592 0.3036943345357157 0.15485137275666236
Ni 8.027349817460356 -0.11692848453709567 11.335356930859355 0.3087426955929005 -0.8114684398366026 -0.891542105360742
Ni -0.17190804879465468 5.320515710409422 5.867418842479159 0.4464476384772633 -1.0260529667878393 -0.4606056751452003
Ni 7.663540322843815 6.040673389077798 2.1975837180384956 -1.8470897670391675 2.0666969440159764 1.8984861192332725
P 8.501630437727224 1.8359743534602657 3.308689472570301 0.7107400741765888 0.7090865977335659 0.9366166291018772
P 1.9983740141763084 3.5376906681023823 1.4713048494208818 -0.049250252385379695 -0.14569695995090393 -0.05723609880433369
P 4.901543535122196 1.0129708445538432 8.161791883718562 0.1324058992689526 0.6810967973888592 -0.7229792965552582
P 8.972066524345367 1.5546492371744243 12.474196167223974 -0.13073725331727806 1.0561107054051684 -1.0549213130827575
P 6.514061202952309 7.941685955140545 1.2953481969449634 -0.3577780037539967 -0.45507368958337757 -0.9323159448439944
P 1.9089749414394899 3.0382292634632964 5.858764997661804 0.10623515441085575 0.9465665412257376 -0.021170720540344183
P 6.961211441214668 4.219831192941069 6.222618221571032 -0.08752472248554603 0.6499962193293128 -0.704640131926438
P 2.5850024755713177 8.719994482813213 10.35956236227791 0.2461928978851373 -0.2777223359519862 -0.4348056833629608
