# total energy = -381167.73371386144 ev
CRYSTAL
PRIMVEC
9.26043275855748 0.00000000000000 0.00000000000000

0.00000000000000 9.26043275855748 0.00000000000000

0.00000000000000 0.00000000000000 13.55357940103221

PRIMCOORD
 96 1
Ni 0.8094979610119113 3.1094774087944086 1.4560474931948293 1.8783168433742492 -2.489794594913389 1.8694503941225546
Ni 1.5396766103376711 3.310150989040387 4.499693410775087 -0.40880077465876685 -1.7101715817221579 0.8355864159307287
Ni 1.5624294938939411 3.8706109070674795 12.929437669066425 0.17609691239899994 0.023055339157566745 -0.5294189372641721
Ni 7.05560714589908 3.3058726690554474 10.116364491332524 0.19879898198220602 -0.46527762669957284 -0.6622835213370981
Ni 8.502031197257656 1.6900845609770427 3.3839492306507353 -0.1606119293895234 0.5770604504015352 1.1260539673635253
Ni 2.9099706430897774 4.517053944272417 1.3496923477510345 0.8267909291262857 -0.9485126092085149 -1.1366409988507522
Ni 6.918460135126448 1.5645316121549395 12.072349417503425 0.2896856789614495 1.3245809266312671 -0.15032803096501207
Ni 6.290908380971894 0.5833146663449088 3.2723082301259807 -0.8017386141433482 0.20253685175808345 0.059730583091413256
Ni 5.243747892710012 7.160889007173494 6.845086021341447 0.17436270331671264 0.6544036043683891 -0.2721600113728603
Ni 8.058817619770219 8.112685557762413 2.5942500751102546 0.3880895102533445 0.48035920362304374 -0.3137370634836984
Ni 1.0331401928999802 1.776910379545861 8.333445942942012 0.2649390681443889 0.19721981042054423 -0.7489415249469747
Ni 9.07301096702261 0.4432043170545695 9.95961777439512 -1.193315825834977 0.7734870754968227 0.620360398740751
Ni 4.479215815574445 1.4804839234464715 4.899931171409478 -0.20888413413234994 -1.1349566691697937 0.9276110831691573
Ni 8.272585452091315 7.014907543444947 5.162273678295515 -1.7854308565767898 -0.9394754387069111 -1.4701503598653713
Ni 5.6763582745637775 5.4060184578530786 4.965082946851129 1.7467856334007659 0.6000026610200053 -0.17830523290422842
Ni 7.844790495328823 3.628858046619787 1.858005842256063 -1.0040096138345547 -0.25299732240148043 -0.1544757345847985
Ni 5.834767239200959 7.567829469117622 1.7914714841872443 -0.45530483175757713 0.0171140339724673 1.126953596359659
Ni 9.035876631222592 7.131977935760113 0.20131532824371923 0.5949525001906075 1.671151748815535 1.306921047457659
Ni 2.105563142025315 3.527595213210014 9.749631902857248 -0.9378803263056493 2.6954175417959645 0.39559610304303483
Ni 5.575280649811361 7.668657062182606 4.524998469629733 0.5319409323550774 0.9643765728239649 -0.6421391851787392
Ni 3.1905061963879624 4.870608010733479 11.539558746842136 0.8503054673084582 -2.232356977352368 -0.038633910322114114
Ni 4.943469096537603 1.962535756381608 10.730450650053962 -0.6322206405134466 0.5755782094290539 -0.41269136796242467
Ni 0.7739119695873962 5.324137710435684 5.223197140089713 0.3169969651818928 2.139294612878045 1.0198211269455149
Ni 8.029360182817637 8.746154728519516 11.795016121890939 2.184266035382412 -0.44075110231311837 -0.4968644003669185
P 2.076392778491636 1.9648508645985665 6.3559916292103225 0.08274555592934782 0.17328386843023702 -0.8747106356257001
Ni 1.8432613810438967 5.193176668818766 3.1517494327495004 0.7000640825199814 1.0767733759608422 0.24476542140999136
P 4.582460381617934 4.081387619572266 9.870367574501502 -0.8862456328484931 -0.8191722362387633 0.8579809815758449
Ni 7.522379264602289 5.9889627068832745 3.248291297483251 -0.007971448241250786 -1.42782305985207 -0.6900653194360566
P 4.1035107936935225 0.1457045767857982 1.6435879275476446 2.2745374673751604 0.9774519179506844 -0.9605669692698877
P 9.154919495738607 4.319306660812675 3.322835929982747 -0.4249395892021585 0.1041931842801625 0.8998022884870052
P 7.821028224589959 -0.3010085182823939 4.579022908937394 -0.06600947412158953 2.186106431025261 -0.07832454404351671
Ni 0.5040870329441488 0.6118053141060891 1.8846657024392726 -0.07540608484514111 -0.30902860226443557 -1.191257914864684
Ni -0.08147328837120983 2.4943068533841486 11.077923390250715 1.3619722227955318 -0.7658496135562229 -0.6241198657831832
Ni 4.771188003464406 1.0767012691102746 13.141848847972385 -0.3015307512254936 -0.619162778888224 0.09374807768743854
Ni 3.761726737407479 2.9086093594582056 8.293462171948562 0.3477666422645817 -1.390078751223761 -0.546458152134646
Ni 8.478389312146074 3.6486938938226885 5.374536690275589 -0.744125334505254 -0.6985131930930938 0.5175427546518765
Ni 6.09466128763674 3.3976342983428216 7.525800994546954 -1.1369353901627195 0.5417095817060671 -0.9517856235328319
Ni 3.1952938401806334 2.198908305333089 1.1886024877986157 -0.6728988349590992 -1.109289603420993 0.7993821980960297
Ni 1.201670810661704 7.5797846879499975 2.351084998650217 0.33729942418467074 -0.8326689851736175 -0.6979367517643335
Ni 6.831726920886308 1.7524998785062487 5.580483160996512 -0.04199588481581155 -1.325130371376834 1.4319980171653661
Ni 0.4667128519328547 7.3737307962078065 6.7082631257191885 0.2766375875282397 0.739087000750398 0.5108897681117331
Ni 4.38784312446752 7.917753445894493 13.339772079656617 1.10295337679032 1.3464185913316489 -0.34412750285009763
Ni 7.132487259567844 5.472156469395155 0.41788907172376977 0.26581452877080675 1.314265403637872 0.8276802737097745
Ni 5.895950919158742 9.038506594157056 10.99127537199296 -0.811869531929763 -0.07031221526200149 0.09616979975505373
Ni -0.06783822701660999 7.075433732669115 9.370538488589983 -0.7577856056011659 0.0016501340089132871 -0.18030812226687012
Ni 3.1968403324695616 6.965049372884525 11.448627778383006 -0.7372592035130399 2.8936246558304424 -0.1557456024361576
Ni 2.5553423664160473 6.629404983589856 0.13332800825793711 -2.680784622374138 -1.1552421588917072 -0.846060318878859
Ni 8.438041606140919 3.969021527153959 12.57323604484845 -0.580159143931517 2.660257448955064 -0.8923725716818373
Ni 2.326535591117587 8.948671134906192 0.6030217935309478 -0.34508395322609603 -0.18916994353287422 -0.3350301685345198
Ni 5.5822444953279735 4.943978420345333 2.4555426813993924 -0.8101355799577917 0.9463243433079443 -0.32400322129639686
Ni 5.806022855579199 4.3559687145364325 11.788253227767557 0.2602041245625648 0.7392235263282625 -0.14582782910181336
Ni 1.926151515643885 5.926751118877161 9.861191411572765 0.4751768880911558 -0.05826171185537063 -1.228272030195188
Ni 2.5524716322270184 1.5488907410411668 10.083551073508637 0.6834938368661261 -3.2460395955003127 0.5200601217570915
Ni 2.3017454123303933 1.6207424396626964 12.468670015034721 0.02537447420904662 0.23568557059591022 0.4580661965527982
Ni 3.5222334225795375 8.542675237114583 3.3999966347674064 -0.2820258484233465 -0.19824208103747148 1.6033309325168195
Ni 5.350817017527916 6.687412335073972 10.945762196534126 1.5636752657984103 -0.9366716507095288 1.651415446728872
P 4.91213179171285 3.61263376823534 5.556642176578271 0.09041361399756687 -1.442891267039102 1.3985021994007656
Ni 4.007452323555474 5.145763252535453 7.34429188012096 1.7336249276490918 -2.3714749985341737 -1.227312751605712
P 6.56292433603167 3.462485109716268 0.09695395399636912 -1.3194094097326567 -1.425293865672313 -0.5078538094988867
Ni 0.9529078025330602 -0.14224950928280908 4.21159856612689 -1.176224160460013 -0.11133519464158245 -0.00709598761483294
P 0.42194791944974164 0.3355703058317266 13.22989333950661 0.13914861730942488 -0.9278409397917762 -0.8526297445662606
P 7.229351387365395 6.366167918888786 6.978168628128387 -0.3817609969321554 0.12637717657636943 0.11580839992158765
P 3.7441133940928575 9.067047248255724 11.223977085355632 0.49197236238193987 1.2660723888724132 0.3075946980313864
Ni 0.7237945069066747 6.370705530994025 11.961114949981567 0.8879605586570707 -0.9035095621352633 -1.0025888222276282
Ni 1.5937667987186939 8.87029083111284 11.37420445755408 -1.4400591969069458 -0.43748528707765305 2.170581338806468
Ni 4.037085708732544 0.10554670965443297 8.480718311012335 0.5864138665919771 0.19711516652187988 -0.12081768021072094
Ni 8.574447782284125 2.057038473797861 0.08739440914690336 0.16386000401317585 -1.0030333659642143 0.778704358031704
Ni 6.970475986545076 7.771160793596669 13.39051647364249 -2.248315557564154 -1.426219462810376 -0.3049492899887393
Ni 6.856118901060185 0.44668901794273574 0.8918352477696901 -0.07883799334482551 1.1554427049382874 0.3232514307320369
Ni 0.5648039870853939 5.213410714634985 1.2130750337384424 -1.0175205038367958 2.2038889518196623 -0.7979768331080709
Ni 4.1497203537040175 3.3373303595074817 13.060595031860142 0.3717511781046372 0.39286764836827825 0.05989436236278717
Ni 2.7894183280163056 7.002118885654467 7.098267181991335 -0.8828034399361634 0.6898989690615215 -1.0916346093433908
Ni 7.5396962740651405 8.74117261563662 6.843608982299027 -0.4678155626300782 -0.34613373464684905 0.7276301650637081
Ni 4.741026773613869 5.697240550680745 0.19962252111547904 0.8826998244787636 -1.150913449609366 -1.4911369894193673
Ni 5.921769005994266 5.361586900953208 8.992258140328516 2.045038742316252 -0.29020966978571955 -0.6465658534915251
Ni 2.0338873916282743 4.045846078225516 6.879078292269408 -0.49033456966820077 -0.7859008757801432 0.17734132632906233
Ni 3.7038860737149837 6.543486687442085 1.9837023277876178 0.03236890324900877 1.0108513193467366 2.9156492397306497
Ni 6.586186543395671 3.2232881287400974 3.913393180873589 -0.6727566529542801 1.0152839011967933 0.18397040160980574
Ni 7.962351690585984 2.3827093768938723 8.055244944769807 2.1124474107782136 -0.5204655847256262 -0.3843853219288799
Ni 9.247384917923936 4.647774214634772 9.986114650959854 -0.8911494979080137 -0.3088321699829133 0.9351320741365509
Ni 8.401268427222746 4.792098060879976 7.851941401589365 -0.6321352798884919 -0.284998043677793 -0.7703595856114346
Ni 2.081180422284306 9.118776026255448 6.336800308135023 0.996383978968497 0.09695964264620076 0.6790854233857853
Ni 2.115749618179933 8.361300398965172 9.32270742678433 0.5999424972060312 -0.7938437847763038 -1.2406989431046311
Ni 6.413822106426664 1.0080351593952803 8.87851594758605 -0.6810538599660658 -0.6862233199821473 -0.06272000473704037
Ni 5.517875226463655 2.720354019687994 1.9143620585598446 -0.6030424762875937 -1.3662060583712212 -1.1327421780169782
Ni 3.3453313735052914 5.684813049772111 4.959268321053416 0.023945969292636177 0.23854463731126013 0.32690162589011446
Ni 3.7278520739769396 3.359842471809188 3.7917083148603807 0.48732380786633495 1.3298694287237163 -1.499993925589365
Ni 2.277501599082402 1.535213081695375 3.2602863361769576 0.4114145581325301 -0.7148384126156786 -0.38281412078701815
P 0.3496026397563566 8.836017969068983 8.237703253564755 -0.06375050288408377 1.866076592554315 -2.7708909895439313
Ni 6.090836728862324 7.713329390337041 9.116029381866849 1.7339465726545686 1.3240533362625713 -1.5384807688106537
P 8.068216959131071 6.299974344749503 11.013828230199286 -1.5266781197487709 -0.1560219960259958 0.8254917506988879
Ni 4.044151419010703 6.691088726922503 8.894631878905944 -0.9910707942856996 1.2787661822899976 2.682236781439632
P 1.1084089912497406 5.701602214561495 7.7655915692699535 0.5713065786368935 -0.6258988120604768 1.3490663133671412
P 1.8824144912091019 7.224767473095817 4.413018537262015 0.3582999376957378 -0.6726052149780803 0.5678546155325511
P 5.425659835965757 0.15838396146843747 6.807786849836383 -0.10177583308792149 0.7447434277052271 -0.2271731622495249
Ni 9.236985451813359 1.1009265614925303 6.074755061144042 -0.2824544513203329 0.7486209083827623 0.008951295656016841
