# total energy = -340867.58936141623 ev
CRYSTAL
PRIMVEC
9.25345237514477 0.00000000000000 0.00000000000000
0.00000000000000 9.25345237514477 0.00000000000000
0.00000000000000 0.00000000000000 13.54336290432252
PRIMCOORD
 96 1
Ni 1.6204368399153617 1.0233670713680545 9.580601826691764 3.6266058007934183 0.4668038335361122 0.18627436715263404
Ni 3.1694555335030294 2.9444485827250815 9.87210963914354 0.4000754789706271 0.6351897504440996 -0.4423516140310188
Ni 7.400402362638185 0.731255933813847 7.824136459118847 1.0256513604740465 1.0236104187846176 0.5065520599683275
Ni 2.4013912163693716 4.4406763298500005 2.8612387618877504 -0.2558013675091788 -2.916746072339254 3.730527733690065
Ni 4.810601600093874 5.508663549131004 12.786342923448846 0.5045221740224924 -0.8266932272061569 0.11888318219216945
Ni 2.5395545155166634 8.055657840450657 3.2495811786250175 1.0593621224629304 1.2295061597126051 1.3760551832511592
Ni 3.4351961821475894 8.279323040617369 8.803985468765664 -0.9483444590617666 -1.3889790904016788 1.873462343495425
Ni 4.48999723162852 1.9504149557543824 7.9340674747152455 0.9960988436279102 -0.8515123431323657 -0.4201596513150119
Ni 2.7212830689928977 4.2416438202150735 0.4493087884760607 0.04851594532251644 -0.051571187209072465 -1.4715919774079043
Ni 1.5928430445863668 9.04227019852335 5.33498827535793 0.17507181356859525 0.6313405519013385 -1.1832738682179427
Ni 6.3649410288640285 8.565217708787936 1.1457263990054902 1.1554103090384553 0.5231896685250086 -1.0066920457627244
Ni 2.02525687950385 5.338214954241639 9.740048066568997 -0.44139619209628506 0.7513357362107641 -0.70817514166289
Ni 6.312779317170687 3.9011537823459594 11.196338838086803 0.05294981272415397 0.4517150575237897 1.3581847307286414
Ni 0.024789999224137313 5.0687451642430945 3.6445592461437806 0.39901592735786123 -0.9386226037883125 -0.10927111302370213
Ni 7.5885250517858935 8.365463429858687 12.234275470402379 -0.06708676634616834 -0.1763447667437479 -1.1338143280352344
Ni 5.1627602415544915 0.7343308560766991 2.6085464066011435 0.4244063424065077 -0.9055175937042276 -0.40098050728339973
Ni 9.286764920247933 5.477618216022762 13.095388804407344 0.29980142723921266 -0.3496738865896236 0.9468696742884531
Ni 4.775105356337328 8.092431060651 12.611213932289392 1.4960143721163268 1.0395635996797645 1.3376452160143932
Ni 0.34341412885635836 7.19488318280687 6.218001755374008 -1.1411072621522218 -0.21631873603352422 -0.7432028226909846
Ni 1.70150633719146 6.49125065536999 4.695077797811747 1.4868820707977553 -1.646852252838222 -0.734830025246257
Ni 4.016322252052422 8.01424864055218 1.3701411288239964 1.1296661101948158 2.242684327420305 -0.6971204265106252
Ni 3.558313367544061 2.927746100978322 5.507408780973186 -0.16618171016781702 0.3986462027232683 0.5816367569183081
Ni 1.1752902543698787 7.673823376850505 1.5170600447185363 -0.6242743890831765 1.3008421882534307 -1.6829662249519597
Ni 0.22106405467141396 2.759943993501463 9.915313083480074 -0.8853434327491978 1.127919302707038 -0.2245146415807553
P 0.9791818357221956 4.9692520430568585 1.5424811294025789 -2.071817038851361 0.9972460698584761 -1.2764331632814467
P 4.827165280053265 0.6830371182270395 0.2377683871086714 -0.7536021636474377 0.4898211203668919 1.436594635397113
P 0.05883807766579959 7.548494616308618 3.733580235145635 0.25691414095738335 1.3810505795832215 0.8577853206252712
P 0.9278529347530693 7.407527521056469 9.05957508002729 0.6077465666314823 0.2982006584109961 0.6756373169361848
P 0.06956375444844146 1.2286919286970515 6.04984709135723 -1.2252509839806769 -0.31710623706624735 -0.5524537075964485
P 1.5540340648379414 3.7515439624669553 8.21990014475412 -0.512215171791376 0.16444981507837486 0.33425138138696625
P 5.998078651394768 3.6048119663127394 13.569231271473532 0.06504556754642346 0.6455947478275075 -0.7672097271285432
P 3.0863410232263586 4.5885465006606445 11.416526590807294 1.7983367660051803 1.2325104937565676 1.8534894999179239
Ni 7.541138121578052 4.911714075466084 8.989800346862047 -0.5574305919857496 0.1488041381213179 1.1559777515061511
Ni 1.1561726215228953 9.124699953315666 7.580247838532443 -1.560675302629822 -2.8700157581622507 1.4805448157258179
Ni 4.35076053199224 2.7326370551996977 1.5990104706718045 -0.12011165528263185 0.5486528457931197 -0.8918310973560706
Ni 0.5689855402362745 0.8234971242826667 11.798125091368917 -0.3629906583031878 -0.34263112081022923 -0.33781184504471495
Ni 7.008342834035171 2.1200955140869717 1.2333806530743827 0.1821711436175379 0.6888754128930136 2.3128880421289004
Ni 2.290849472908549 8.18284654494329 11.002262477606205 -2.217162529000117 0.6131368844091183 -0.4730485288942434
Ni 6.0193708455772015 6.730063757264928 2.557244340644242 -1.5027277795807603 0.3546047482323377 -2.236235229360852
Ni 3.8982759586211717 0.5016796281957051 4.625654695841173 0.7749410343345299 -2.9526810956729665 2.7545709122276687
Ni 6.514643383267944 1.5459002800981065 12.660335884839347 -0.22109867392067084 -0.9041775347365654 -1.2600207833616943
Ni 5.702467858108359 7.119430531192979 6.08273108547549 1.5406296968328566 -0.007038909124652394 -0.7016864486147528
Ni 2.7292502915878893 0.8455444001883888 1.7239348553398226 0.5322857172890059 0.6843615841830601 0.17163476286258827
Ni 0.779088880431768 4.08451094346066 6.035369139589374 1.6928374613190844 0.7604109590391549 -0.17339005499079818
Ni 7.235607627220991 6.1233518912217075 4.211335987270386 0.7586901196933062 -0.15644211428254992 2.225912250168289
Ni 0.13758588371183578 5.70334693609503 7.931358989171048 0.5406991381636816 -1.3041056894960508 0.6806494254387955
Ni 3.9235841511848206 4.128400068626798 7.661751322730383 -1.1436585678191658 1.4912696583424898 -0.3469950542058798
Ni 6.258803928789054 0.6940792630848831 5.441898964061174 -0.747100615083494 0.6947760946481647 0.16748860190469864
Ni 7.847131288559677 9.580932174945701 2.9269512294093216 -0.2505534888466782 -0.7637479938321879 0.06243229829329248
Ni 2.172978995074633 6.686489249483492 7.271309297622845 2.1748262301257513 -1.2141605304944703 1.196814583016855
Ni 8.368998248710357 6.766300277220777 2.062775927974991 -0.14616644338815474 1.0953735075605329 -0.7603029727063809
Ni 5.599810056170106 2.744416700221096 3.659890366231332 0.7430210456974816 0.9767466643535436 1.1869628870337559
Ni 5.510967658801333 8.825045401290566 7.893694661495794 -0.2570601796169444 0.025618471899052652 0.03930393980594521
Ni 8.47520012295277 0.46357946290811164 0.22660317133269378 1.470515970734906 0.30736741251192873 1.8777619993120434
Ni 1.0524506725481455 2.5360104432125032 4.200284588960052 1.32553840544853 1.2432687607143362 0.8372931142091903
Ni 3.550235103519174 7.740198391570453 5.787702334350781 -0.020962461184280023 0.6326582422714976 0.8933459913387002
P 0.7185814799365418 7.6255851290134675 12.873521550059685 -0.7718235717514706 1.2841541860747883 -0.5206445335056518
P 7.620116338591121 3.822231086047838 2.9318268735269766 -0.5230408016519702 -1.174485066281719 1.2376758400075911
P 1.2910324381308003 2.006555652018974 0.09974203905825071 -0.35909517990352346 -0.7902200719807875 1.6101798371178526
P 5.338751654486133 4.411490940692506 9.259556993887822 -0.07473451269941322 0.3596572230545806 0.14896508917921442
P 3.2829121144986053 2.002049220655721 3.640997592279887 -1.9420714600233908 3.2573516780790226 -3.828411687922749
P 7.637707151777042 1.244478318647174 10.824194589935521 0.2832774614422605 0.48610870451231114 -0.15243325023347298
P 6.785565965307621 6.765374931971649 13.548645115716184 -0.5412280140839583 0.22649464812526152 -0.7919033732204813
P 5.815683849339162 8.169345757758514 10.143125681053377 -0.011563536467883311 0.6921545978649176 -1.1599166815492412
Ni 8.639402637410521 2.7756193420216904 7.450894751502099 0.012772212064003809 0.3591409455397944 0.8472805644392053
Ni 2.934316052247131 6.31830362830798 1.845743602554027 0.06193196161810625 -2.160449649689105 -0.4689818150240375
Ni 8.581004098738058 2.776646475248222 12.729501740830665 0.11111382265939573 1.2307310332586416 -0.4588089882560937
Ni 5.20050507426642 1.5007156715831897 10.431477140860377 -0.05057385629280967 -1.6145134314962002 0.19562829756370825
Ni 8.027286755112394 2.173423160794214 4.497737744637475 -0.38517233660654954 -0.7351789239452435 -0.7359546257690035
Ni 2.7453975661851717 6.882431105986333 12.973079445413362 -0.3651681255704808 -0.9759879318106482 0.29354644746843633
Ni 4.181635180809128 7.033031045281905 10.857714296239932 0.03551259108431304 -3.1536274630154786 -1.8288002247013604
Ni 4.371553039740144 6.400085641425907 4.0873332464705 -1.1901772802059956 -0.7001568993441037 -0.4166673218910372
Ni 4.3822407773675724 2.623696159019866 12.502244350406837 -1.4230505781640912 0.6508814501477436 0.04379539991839554
Ni 1.025671181038383 0.6394450288858717 3.1169505187222617 -1.578657083919223 -1.5581656488340905 -0.5104948466661594
Ni 9.003859117232048 -0.0031369203945436916 9.685170466569465 -1.842614761986949 -1.0844540324345517 -0.09093657638057243
Ni -0.04253534506666368 6.595231701014497 10.983802765231353 0.6287198264490398 0.9741292813353546 -1.0066439661336084
Ni 7.29483897661767 5.035238412772172 1.1798670119720651 -0.4990652646729792 -1.7273280388967864 -1.284703116599723
Ni 2.5788724351521095 0.3367618218603776 13.02871490317193 0.5526467974438611 -1.2117619483553066 0.7850117883069706
Ni 5.166443115646021 6.49963428332709 8.379278834428167 0.14185984559300086 -0.8244694800819607 0.7813477091918221
Ni 6.80075088084581 6.432778089077597 11.038978326401104 -0.7262386840328203 -0.6738948803237813 0.33798128074304373
Ni 1.8357369190299577 1.8798573805083776 7.100568293634755 1.3945365298847985 2.6962631776257115 -0.10980795936377861
Ni 6.685841507809104 2.712927201393273 9.294038133906078 1.7149774877512338 -1.187813407959509 -2.1663493030029914
Ni 7.722006103972598 4.150654621868324 5.563870572039225 0.303562951164174 2.259874980266979 0.4454248536397038
Ni 9.448515269795495 2.7668008017975008 1.7510483964845203 -0.35112964519954365 0.26884611650827894 0.778316378564666
Ni 5.308381823409754 4.651719820818608 5.444553779580923 -0.18931366819959008 1.199555893207418 -0.03491815203342374
Ni 7.649162925961247 7.552834485527029 8.858131120673136 -0.7798865512652633 -0.6937435396185924 -0.49981088458975215
Ni 7.926146519382711 8.52829643334773 6.11679211875064 -1.1287122309219788 1.0018763695416357 -0.4361382861314553
Ni 1.8259930335566408 2.9807776372058443 11.925987447202916 -0.46061750221974224 -0.1890976955340421 -1.1211079362121597
P 8.705213191528498 4.49629883277508 11.049406967358776 -1.1251407115206364 -0.4204563566198243 0.44383205523128727
P 4.4269442063529425 4.787347673983289 2.4237605124217905 1.6120410586963076 0.5481702497297463 -0.10666684263163566
P 5.645753447789307 8.389624194313418 4.05278363090381 0.2861406419226685 -1.08062745959961 -0.1690207222785089
P 3.1362171321543544 5.185199863845844 5.682713587729975 0.3188952106458702 0.006311544040324614 0.5757928965430212
P 7.6268898658147375 6.424496249097902 6.857641106762196 -0.9189076418578883 -1.0766360790520297 -0.15011025852725116
P 6.157802494846741 2.8506926020834396 6.01505410999002 -0.7196065234282832 -2.1685784494438263 0.700970910604967
P 3.311477522339185 0.23337022113956635 7.219737030853198 0.6635148226410379 0.9385225878753386 -2.2246963754833167
P 3.284614749757001 0.9440464766128082 11.192234931906922 -0.7080427298500838 0.5652138354755943 -2.4328896541962295
