# total energy = -381171.8682433633 ev
CRYSTAL
PRIMVEC
9.19661233569593 0.00000000000000 0.00000000000000
0.00000000000000 9.19661233569593 0.00000000000000
0.00000000000000 0.00000000000000 13.46017176111409
PRIMCOORD
 96 1
Ni 4.947639580641268 0.7475006647295412 6.404242293891624 -0.3649130721368812 0.0657456789372416 0.014458855737807357
Ni 1.8995511171164126 8.900867843912016 2.5267030712309966 1.0161310796884373 1.4470397419898369 -2.4030820839164937
Ni 1.6240665894100468 9.282049039184038 4.922721359048198 0.9765139795174473 -0.1964497650237391 -0.0050491323881332395
Ni 7.114278718243352 0.14251254676158853 0.6863459505286058 -1.910572875194477 2.6338661034457282 3.039714480344391
Ni 0.23738939971043588 2.097324269121934 10.084293459534507 0.8298400003652547 0.04984314877437222 2.0795478318367153
Ni 8.889077786675509 4.817443137351699 8.591399074001231 -0.27554384024342865 -0.440322499416132 0.5586894040935152
Ni 3.73154391874189 7.941734732125926 11.198163255429117 0.49323323137223446 0.21737185988838695 -0.7773157052142935
Ni 6.127693718117969 8.172882390926521 11.48049006284216 0.578781289747384 0.35065013445996385 -0.6165528520692026
Ni 2.6808401362039302 5.729397626966743 11.347247701489618 0.4413077461475368 1.0804567383497004 0.1480171234436483
Ni 7.608670213500864 4.276535176023787 1.808535921760084 -1.032034638292571 0.33644170417006575 1.7265227693866718
Ni 9.067482872737127 0.9728452610369717 6.395439296398032 0.011793650200818398 0.19342203394100882 -0.6484242468565026
Ni 3.948758709591386 8.989109340935636 3.9867278439959426 -0.06550888033608719 -0.4206499606878691 1.7603291764131557
Ni 2.3955796094005235 6.088120694491848 1.3855230148297344 -0.34497828088616717 1.3345452369328306 -1.816887532424174
Ni 5.926683358509289 7.55771178358863 5.025018958630538 0.46005083108299477 0.17920923277573653 -0.7830037567380063
Ni 0.4807731514542221 0.3736077848708815 8.470365215754356 -0.6915123362952285 -0.4284198344412751 1.6543218217423896
Ni 5.985118634391321 5.889271538822776 6.743182528248671 1.8474828887125279 -1.6009081820079398 -2.7067131693144417
Ni 4.4160937708474926 5.031429917210545 7.936157906300484 -3.160672285677402 -2.163971803909751 -0.27777118691205066
Ni 7.978190104111506 5.297920157883132 13.037321137860337 1.2515703386014962 -0.17153937493530458 -0.2273521110295504
Ni 7.75064751741443 0.11953205142416017 10.136371117189084 0.6644908134010621 0.2925953964090767 0.3184702072933096
Ni 2.8627583282439777 0.9352495091002792 11.67143656938227 -2.0705610549570728 -0.18924759084834505 0.3642132178563792
Ni 5.792707107478532 5.196049281121209 0.8610254888628385 -1.2651869009436663 -0.18678910200552346 -0.3540182796012483
Ni 0.4608992718223257 1.1522987609246136 12.375820755685979 0.04977038655490783 0.7357913607182619 -0.9882240688655238
Ni 8.408416833893895 8.469022510328045 12.732474585396563 1.3396799870562348 -1.5781392637425402 -2.07243076117596
Ni 6.941115701311848 6.3326034414304555 2.898822844197926 -1.0509003648488224 0.20893092820988535 0.14843209949387984
P 0.7273315738361067 6.836200745809454 12.89539625463807 -0.01800003612184642 -0.4033911736074214 0.41401188654606114
Ni 1.1541288868138997 6.631778442959943 9.229747903845494 -0.7672760615901044 1.535698063859194 0.6798948066609581
P 4.147074461734936 4.617481191569041 12.483044060928126 0.8202621268688325 -0.12797743118395377 0.4225245520027627
Ni 4.767330795790291 1.2365213382818125 10.767720405252764 1.8063002438266311 1.2032842499015985 -0.3066068801968203
P 5.577975402006459 5.2885488097364854 4.23886401186452 -1.5486176001343395 1.2312637658336603 0.339919378306021
P 6.912541826246461 6.072109392113721 8.550211125218533 1.9816250539462972 -0.6006824606958493 1.3861650179916516
P 8.241902967806382 8.143867078460703 5.952465142016951 0.14810299828923526 -0.49744238435757554 -1.3096191631151124
Ni 1.539393378039908 3.039728742754196 8.306097162441535 0.06562612264024181 0.3292251318169685 0.6212592564059365
Ni 7.34007394856372 4.828092814637093 10.526742487341327 0.6588773238690265 0.5600438612388807 -0.9213285925945552
Ni 8.43594229513326 2.626046718875453 0.5982773498201531 0.15442765495568242 -0.5032571912671397 -0.4263827494065882
Ni 7.550428066481521 0.33815024534252586 4.477391952203568 -0.5479943862735144 0.3977797409579149 -0.855233757848011
Ni 3.3032668708114024 3.7079638042688763 1.550127664160384 0.6199155978938485 0.11340904645147565 0.36869593621808117
Ni 8.773136092774854 6.895610862617437 1.562241442157207 -0.8500439861169553 3.5421576603506675 -0.769854620950558
Ni 5.017975273109913 6.529401752510027 9.374309455874082 0.18934426432720938 1.075297048525632 2.4346102364317614
Ni 0.7467584981000669 4.404037011848226 11.045120587344751 -0.7911322993824117 0.45157827483560936 -0.9115095496216042
Ni 6.912523433021443 2.6701352792434827 10.184706673213759 -0.5581163051988647 -1.7830677556612518 0.24695574419309083
Ni 2.207324951341792 4.44134766879714 3.808609692244604 -0.3366340226865299 0.4722347747436964 -0.4983224729696837
Ni 5.872478524381386 8.40425076842733 2.6589761096250912 0.1897499844060603 0.4241322628095147 -0.5873091247127369
Ni 0.5194403087482102 1.3318902099998902 3.230441655336577 -0.9307054058237648 0.042642517260874944 0.6371196204769608
Ni 1.9723147152874279 5.731522044456317 7.240280586567575 0.3856148234606069 -0.7595830638212209 0.00653831533915003
Ni 7.340405026614044 4.620286158384279 5.0684812296867054 -1.6227180787941795 -0.37390267723000126 -0.42987302194803384
Ni 2.2946375905020067 8.455898944277738 13.422941537990441 -0.4555930524219573 -0.7801526604424565 0.34530506809796657
Ni 2.344354477725529 1.0698879162316828 6.92512371181999 0.3494815680731594 0.42269733013520105 0.6110476059802573
Ni 8.782562620596552 6.744197834269661 11.011901503301079 -0.815612543911963 -0.0973278246188969 0.17119304733947938
Ni 8.937764653298025 5.575161238578712 3.8083402314980908 1.6662044321125884 3.0009301604873415 0.1452698997158143
Ni 4.192321795279097 6.946955550255048 13.393961172652157 0.18071049991161134 -1.2638573834989655 0.1814491778498488
Ni 5.108276811335545 7.75882330593491 7.244520224934213 -0.9093269401479889 0.9593559796809221 0.2651498986036143
Ni 0.15552851244554178 8.109839612177492 3.6017668409827306 -2.23618689262142 -1.2098649884429098 0.5786270235577067
Ni 4.804227605176302 -0.027145641142743437 13.047968056161977 -0.3681500910169402 1.3680824494583277 1.126213632869841
Ni 7.031711531137767 2.1195892680061643 6.323763657486828 -1.5034551446650881 -0.17571381802796834 -1.6005106894592047
Ni 9.059371460504211 3.4622211214165377 3.676389994203061 0.1957015740038049 -0.9263317022361015 0.4498294104653027
Ni 4.791260381538645 4.097780618686827 10.141310617767655 0.7935180260057688 0.24958546850645402 0.18421697040297305
P 3.214556346549823 8.259036256910605 6.3890320164630285 0.585069950969573 0.4167022888940307 -1.4021446812493594
Ni 6.887140782496671 1.2270764172350945 12.177484770994909 0.09065786879788902 0.7280885927573654 -0.20355860815437843
P 7.436592396845421 2.2534827495243404 2.894757941468958 -1.0371123099257944 -0.6894976198580448 -0.07939258029671488
Ni 4.284563818744123 1.1500180010223875 2.125387732193073 -0.29242364671790283 0.8999699244131211 -1.0180514366396016
P 6.065129163219408 1.4926745864943116 8.274573014083268 0.7312284239379278 0.31443820331578104 -0.05955009164949099
P 1.4148252616058328 2.9874368040281607 2.0640362104844456 -0.54336305814909 0.16698492279540272 -0.437071339468686
P 1.1375841809102525 2.341034500609789 5.2104732481802865 0.5867465673410476 0.15339767102927132 0.24783608991551512
Ni 6.58512402770191 3.7090398079324265 7.961476180537694 -1.5274314529750277 2.098148991877671 0.18054106421328261
Ni 6.007779087613436 2.5033455147806998 1.0254940283283556 0.7381845435407867 -1.7450676222683945 1.2550819512991804
Ni 1.194069774940381 7.967880701488944 7.019977573237566 -0.8721588157381237 -0.756798044876916 -0.716844901522746
Ni 0.06850004861185427 0.5466466475335129 1.1504447238428042 0.5302748575065642 -1.6574639669157971 0.5567039982323703
Ni 2.9288635789584943 3.223808138733853 11.181647978685499 -0.727154253868554 0.013183074349177296 -0.2619388478654844
Ni 4.034075683837153 2.2887701517212804 8.162745884619127 0.15320869494691677 0.7238766115585469 0.7547316492661905
Ni 6.2204875383335345 3.5491383062388664 12.581922359979629 0.40930702487122417 1.0455496420598702 -2.1517392663993005
Ni 2.4368999894033507 7.0645526344073195 3.563930137798303 -0.7552589825245702 -0.9437478408300198 0.7547115946615325
Ni 1.3863433526655349 8.257555602296659 11.175200233655454 -0.33681888500382634 0.31080137789414214 -0.8279427833425418
Ni 5.410311959355323 3.472788029189351 2.983433518603004 -0.3161834681416619 1.4417167871150267 0.20127649698842107
Ni 3.5919393408556393 5.997368522253276 5.318355950539327 1.7712000576893885 0.21960871963870562 0.9134016244379948
Ni -0.361043372861119 3.7671348091516252 6.32179834139366 2.3258608002394845 -2.1103640458866235 1.0843650722651712
Ni 0.4861669646907363 5.0741021992521915 1.570762103646773 1.3729428628744227 -3.8442093170766376 -0.324891280328305
Ni 4.86807048921361 3.8468142599293906 5.80004232561569 1.1692963229919282 -0.8733073275202703 -0.5395521690434321
Ni 7.481499455726748 8.613510489456562 7.862813082218901 -0.46564529445163677 -0.2779884451291793 0.0191698880602315
Ni 5.478964671734827 1.7024217279865193 4.301870923824764 1.2648061205654797 -1.1629793796349648 0.3886181290633049
Ni 3.0992860053623223 8.05464154389862 8.647245503461987 -0.028540273531537947 0.029017984498904865 0.40553418809235314
Ni 8.28636858928728 2.3411080735098606 8.241098264211848 0.623691519996513 -0.9602391536168237 -0.22892254084046382
Ni 8.643178761410518 6.061588467403452 6.638987667505729 0.14804103470304825 1.5571199811783958 -0.5737537546258055
Ni 2.1183109388674164 1.5092376856229768 0.5414487221434399 0.926132955961734 -0.20690849846321785 1.5116963016279579
Ni 4.095766560547362 2.502343084017222 13.237191117517904 0.2553321411822441 -0.4284123782421074 -1.5899899924335392
Ni 5.936928384844288 5.969567162638643 11.791433969399382 -1.5467962306548846 -0.4692360971266887 0.6332097438995934
Ni 6.633213114511343 7.321294465820393 0.23452833355889355 -0.7934311227189174 -1.8807051411007676 0.6255558268987613
Ni 5.482330631913112 8.879853584329005 9.246047979856401 -0.14992539620995468 -0.07700942477651898 0.319294760077134
Ni 4.11292743948911 5.616279293106342 2.636242083502904 1.934978043511719 0.5925870852822246 1.0655885629886162
P 8.519217621402035 3.113752276838941 11.99701136678002 -0.581858900231443 -0.2744038131017145 -0.9964012053596776
Ni 1.4271671155928778 3.5329706614480876 13.220688716031797 -0.21706358461934877 0.9158290029325646 -0.30895918247908083
P 2.2985829372683573 4.935785147117198 9.311423939198958 1.0085951763227081 -2.041965245597251 0.06549499637901623
Ni 2.6558713332420614 3.5630251911274198 6.257189379534354 -0.5078949471494673 -0.03739798103248398 -0.2045407695619897
P 1.4321700727977609 5.988530577632151 5.202531053617535 -1.3582749764496027 -0.255977745186043 -0.34451573942745184
P 3.793860165102709 8.22945075446923 1.8473814933367463 0.7094010436501912 -1.1147441987776607 -1.1036329193558478
P 2.2459415272669805 0.678281441019485 9.444208309248552 1.3373405402897807 1.4208751677793272 1.3937708553633674
Ni 3.245686879892706 2.387109529279757 4.143243152963698 -0.2891223502588117 -0.8657896789869863 -0.13852718167534206
