# total energy = -340869.5432629977 ev
CRYSTAL
PRIMVEC
9.23229550477858 0.00000000000000 0.00000000000000
0.00000000000000 9.23229550477858 0.00000000000000
0.00000000000000 0.00000000000000 13.51239768597685
PRIMCOORD
 96 1
Ni 8.167313247129359 3.599099596487651 2.999941162669462 -1.6409194322935545 1.8021733661424513 1.8586772147664505
Ni 0.7773851279329628 4.734256484441466 13.196504642250115 0.7081694852359353 -0.1364499874313392 -0.894715360882401
Ni 3.6506065728439956 1.6418067980601903 4.395244748789873 0.8107665286735715 0.8884174436888311 -0.006387391583582549
Ni 0.5956464686262276 7.209693400819655 6.095036824928803 2.82237013125983 0.33416319254853416 -0.09960479357853169
Ni 8.391251805741922 8.916754063172128 5.346964235072806 0.17445654858209955 0.10671466515043557 -0.6539940276347962
Ni 3.8993246124639844 8.637366338042948 3.3765052600936722 -0.43281153575106746 1.0936953485271617 -0.5372237780205715
Ni 1.2298987039367517 6.379414605752659 10.876898717666352 -0.45114118729819075 0.32641003096567656 0.30946054759553154
Ni 3.7989603285475444 0.668707161957213 9.72148063410192 -0.05665142994545727 -0.2001848065861391 -1.1604013344951436
Ni 2.348751358112953 1.8028087985402568 11.208844977604464 -1.4180189292774545 -0.060028059727174045 1.6614936569004803
Ni 1.7513295190702842 8.673067624576374 9.987026378651953 -0.14730441364733987 1.115360492205421 0.5744644075395848
Ni 7.142519219072253 7.969520549251903 8.756614359087775 -1.3584858069088281 -0.4108026355801441 -1.6965257088039492
Ni 8.411479765088892 1.2652399309473426 3.396733219440643 -2.317192840151842 1.054567015067132 -0.7206763594536943
Ni 2.888425189070134 4.59410100710401 1.233645169433329 -0.8134715863095604 -0.2942743267733964 -0.560688179691099
Ni 3.7120474991124075 2.304325552372367 7.209526296271878 0.26738830101582983 0.1974111004957439 -1.624718654163976
Ni 6.074951966161421 0.20217065238331275 10.160106991278822 0.056808781458927975 0.05514167816915019 1.8481282356060105
Ni 0.15500654781008794 3.0155631298127794 1.3953580566636083 1.9876581475142543 -0.8539361220825099 0.1741739843446742
Ni 6.473953311235537 8.207067511368543 2.296067264085801 0.3884360949594859 1.3567770517478375 0.3857333513163421
Ni 2.2233306243253677 2.1268808336828275 0.5349801319466838 1.0393728238251971 -0.03623095730757631 -1.581466014122928
Ni 2.927413172786363 6.211322202361377 12.75867595540073 -0.4400250227803712 0.16932745488565032 0.2617431869149105
Ni 6.401959871259416 6.812123061541423 0.5489772150895147 -0.0826969620795995 -0.48036794537379207 -0.1348942129084451
Ni 0.8698207165106634 -0.0337920478328539 3.7990785019293978 3.4852090108797653 -1.3893943235622266 0.1358843447358563
Ni 7.861234955833089 4.582708354509687 0.6253541489487666 0.3673075405109868 0.7183497682030467 1.2720895416007705
Ni 0.37825176103380714 3.0216933739964347 9.915140956532683 0.5695487154055223 0.5418363370919184 -0.15180178729706115
Ni 6.960698392335948 1.1176709203576654 12.386368869411886 0.2335422990006623 -0.21151308711476474 0.37300716199892536
P 2.703059160878221 0.1298974738548361 1.5004031143769059 0.80446938281095 -0.17883796547924682 0.11385513284995875
P 2.7135470485177273 7.547447697829964 5.21029948864776 -0.14823592432267374 1.368088877216231 0.009698715345002652
P 4.484227458866538 6.061463582498287 1.632973337766634 0.7377176312066973 0.4087375255209993 -0.5223136936779585
P 0.779761520783675 4.80527130109911 2.4096660435402986 0.6881061388271569 1.1041386553476726 -0.12695901722176844
P 1.893322223203745 3.131686942074852 4.818831696666811 1.53909731934873 -0.19109287158719993 -0.7935411659342204
P 0.686447940907984 6.92984406091761 12.99988629235483 0.5276883277263106 0.32677744160742433 0.44529552715069115
P 6.5520308339180255 4.850278741453508 4.079041399065568 -0.5908330787055954 -0.8676023067156929 1.7440098704278415
P 5.962465678309529 8.547905395061592 12.473213379860637 -0.7711082908520009 -1.8091361706135296 0.023824613223423486
Ni 4.47828186059203 9.091456790110845 5.867704474506132 -0.4933368468296342 0.8619103985372383 0.3044394402318564
Ni 8.292863233053344 7.794070006381142 10.547386090810788 1.0971470545211879 -0.34589487916316564 2.8374257400413714
Ni -0.004331793028570857 6.928237641508037 1.758327599026927 0.6939682540348887 -0.7828320070468324 -2.068069655993787
Ni 3.2690450338887422 2.9820683618936514 9.464394441879424 -0.5419780048761053 2.4920139711622116 -0.7042984323163032
Ni 4.004092701313563 6.399568706735972 3.743447459192272 0.7729851961597397 -1.557290188207673 0.11605034072906466
Ni 2.1602094202837243 0.7317028067806366 5.968452821913596 -1.3272425326238302 0.2709263960760754 -0.7484581575526529
Ni 7.230262955098547 6.035363883240466 2.517643278290838 0.139264831172315 -0.6241476336973251 0.8255362307835782
Ni 8.281184379299846 5.318171475230087 10.087328806188829 0.2898162910020428 -0.5233079392704278 0.12847493964566262
Ni 9.178129579864093 2.0280306462213864 13.021383692327184 0.09387380463202542 -1.2683640131200673 -3.1323814091525084
Ni 5.464632610364887 5.917892155841626 12.216099490751768 -0.8503514900550451 0.31221111375747523 -0.9188863017016498
Ni 0.5241118737343359 0.15395683581659156 1.3351016339023691 -0.002808158872756454 0.7111532504546075 0.7712103636475042
Ni 3.890110781597587 3.7840871005658143 12.288255419127937 -0.429525408800628 -0.2631385246005404 -0.6215351357751425
Ni 8.147842336009887 6.261989039831107 4.906770234127254 -0.9125073947584993 -0.862951695317559 -0.6827908972618306
Ni 3.8904616088249653 5.548840377231031 10.42251744829155 -0.6264551987845791 0.2730082183057685 -0.8067898034140105
Ni 4.089214465429981 6.977547331545542 6.666084765538568 0.8344967824109758 -1.299561521768794 1.2375413713122558
Ni 3.2088043060297804 5.069767333655646 5.550271383026915 -0.0974394104960967 -1.1702149781514557 -0.07421360719893672
Ni 1.1982226982227138 2.882193389636449 6.877202435449562 -0.33397498779712803 0.11940948700928466 0.9096778957295042
Ni 5.988666932817381 4.000455176903381 10.6380130727084 0.40654437452442244 0.21709418074696807 0.643944356708278
Ni 0.40755691327440735 6.9829205275016974 8.475367249653491 -0.3110528317833159 -1.0493355914648639 0.942918402950189
Ni 2.6506289549761455 8.556879186246102 7.701229120032866 -0.29645102270974105 0.45161349894891895 -0.618582995125354
Ni 5.190710404146436 1.067465697660802 1.339368800862739 1.1511019114710885 -0.1593410330968998 2.010431693765344
Ni 9.223026232673002 9.024125659340669 7.4171578514181915 0.4794199796382259 0.9050571091280414 0.5056845697617097
Ni 7.978706683231928 3.355440854778269 5.390649610717715 -0.0972054401084197 0.9621664525465236 0.21644703408127236
Ni 4.479814421637943 7.734641720522424 9.184457395170535 2.2677839507014106 -0.7440317463501831 -0.19872236310799968
P 0.3912554491854313 0.23241749876055878 11.454283705878018 -3.2186066961003403 1.3131480022039772 -1.106173169279198
P 8.728562952570277 1.6374768514907108 6.310992217659429 0.22727549215534404 -1.1462450975994194 -0.3160263737385074
P 4.774693938544493 2.2370590476703907 10.731762416929676 0.9464670395333958 -0.28898145380557333 2.1743060959562235
P 8.458222876989263 7.9735919915485765 3.3953686861720525 -1.1523684368883378 -0.3864378335825345 -0.006091200499402413
P 6.257179013897848 6.162806489733202 10.11217845264173 -0.661113669398713 1.107512199805596 -0.08959086098595538
P 7.594578566139541 1.5751126956765675 1.040755743673252 -0.032516484570466575 -0.418548340963834 0.5095790197201094
P 8.097138569358327 3.738553419370351 11.842008725280571 0.3861555264554253 0.410372490021261 -0.43643884809100963
P 5.526498222224336 0.24555320873722253 8.031999185529717 -0.513909014554031 -0.22470438899405817 -1.0781874826995497
Ni 6.033268152171655 2.7523503863248107 3.8419126599331435 -0.5274327600720787 -1.748737357810498 -0.14778443860755194
Ni 0.8243027302174774 4.951603184097508 5.5884570802679026 -0.1476319721900877 -1.045557098259038 -0.011737857262218494
Ni 6.400445774804417 3.240443382561989 13.137022809077747 -1.3577556136110231 -0.4477182776595709 -0.5914478294714588
Ni 5.556457020983313 3.572372101138732 6.018070870619375 -0.3752206247104764 -1.3827724473703347 0.15352005553974848
Ni 1.7987558208344967 1.825852608001708 2.7567855810625033 0.30507630248490686 0.9133376039692787 1.7786485435476338
Ni 3.716423607159174 8.259820847611625 11.546762686244367 0.9934544640265277 -0.8665360702347076 -0.20711932892244325
Ni 3.7421632468941604 3.810934615755678 3.2909985092566845 -0.17396083989260364 0.06212453724488656 0.8974343024754609
Ni 6.101180917555644 5.713784567871369 6.265914611859556 0.7344734132377867 1.5445603993458303 -1.2786461117723655
Ni 7.4642185542822945 2.0347148281324805 10.344727049997783 -0.18238891605529878 1.5882773806178065 0.991717683841079
Ni 8.964337313959115 0.579426248737276 9.447801237253998 -0.17105986419572475 0.783198903467948 0.5453492353411834
Ni 4.419795268869956 1.0827082174608242 12.705896768730366 -0.5916077520880908 0.7217670214147117 -1.507949690101332
Ni 1.8156693861122926 9.14553957689978 12.730637474096872 2.204972414691828 -1.1058029304239732 2.5054125039563044
Ni 1.3113737113475314 6.6733985899998505 3.836818279299798 -0.21891966399148105 -1.0750214262667421 -0.4694890936777592
Ni 5.801925292602329 4.051712881282379 1.7643405930582743 -0.4887769953730937 1.090131285324987 0.9141086778073483
Ni 7.788927617811419 6.074388796138525 12.45394465601168 1.8174045812699087 -0.09533290567605517 -1.8847872815899414
Ni 6.357303258132398 7.916019397076779 5.042286482997411 -0.8559086724278485 -0.7128938872947981 -0.33664482131980733
Ni 4.424069821666692 8.067687546849502 0.5092515709662463 -0.8540153120598776 0.716872926547204 -0.20143693382568534
Ni 1.8703615044014095 4.775275573158304 8.654244820598006 -0.11826740298504146 1.2301952153598297 -0.3668411423975295
Ni 8.328342944495796 8.469726317129075 13.250649285418614 -0.4105748358400542 -0.30865502097510067 -0.7427024860157984
Ni 5.57824523826257 2.4259610450224542 8.708023864866396 0.25538793412084404 -0.5453646619601511 -0.5981229274987893
Ni 2.55615487556147 7.092886398693742 1.718857689487826 -1.0709331151299815 0.22133778651467043 -0.08373028844012032
Ni 7.851144056898247 2.476554024128525 8.12207222969989 0.5130217268530713 0.19361255268526012 -1.272636415243176
Ni 6.641519473785752 0.9409463207137962 6.206460475573556 -1.168728109193284 1.3245287332370932 0.25977115079020424
Ni 6.523595363909504 4.809305814213956 8.302868271640435 0.036447958414388845 -0.553334567539505 0.5364555323959793
P 1.9693594085901678 4.386642095882748 10.83218671076659 0.856893404938621 -1.6817470078328778 1.0911977789162883
P 5.899012111631423 0.3897653566986211 3.759621517603937 -1.039116999060649 1.98649420911314 1.3142980566480202
P 7.891073734751121 7.155813724530782 6.997976554933483 -0.9139922068341421 -0.4323788190890231 -1.5651122553552528
P 4.277931816872898 4.657517644600286 7.47447748099446 0.17204048294143917 -0.4769136682766045 0.24218531938764096
P 2.5393151686473328 7.003674727689735 9.090033170151328 0.10658251044794546 -3.0464006341153147 -0.0810285732382411
P 4.304326949585354 2.9128446105547248 0.7276369038612365 -0.6516111292249166 0.36304336591799413 -0.030767620200159912
P 2.155971796668818 1.4230013957218923 8.385699503253894 -1.3202442469291262 -0.7788020599518329 0.08731286358505609
P 8.936825073496324 4.3604316090794395 8.174014047172275 0.21571838344536395 0.4239831388261601 -0.39148490908813866
