# total energy = -381164.5965266131 ev
CRYSTAL
PRIMVEC
9.27009916601050 0.00000000000000 0.00000000000000
0.00000000000000 9.27009916601050 0.00000000000000
0.00000000000000 0.00000000000000 13.56772716544151
PRIMCOORD
 96 1
Ni 8.014946436392785 8.451521765182122 3.9408147148154504 -0.11946990793357487 1.0524581962542454 0.611558998399037
Ni 1.807446890456094 4.551776371507672 0.2076530064227579 1.8552399069501273 -1.411217590084905 0.4025208551873261
Ni 2.6217509573743008 1.3062589692118962 1.391166590169114 1.5871422385720988 -1.8460045043947888 1.1898795464599186
Ni 8.584445719731656 2.9938712853976908 5.772240571254757 -0.11257369503437387 -0.4906693272998001 1.2741348541655735
Ni 4.635355587228336 4.04005761740426 5.611191135283694 -2.1591910946916557 0.44216880859625135 0.09337038263304565
Ni 3.5608583718132807 8.86183490251886 6.215579364528321 1.156848841257195 -1.0578210032280557 -1.089119556231021
Ni 1.1715644256869133 0.8239051088128262 9.136291025872387 1.2457264782262094 0.2959152048109291 0.7009973929675282
Ni 2.158598253754535 2.146769606986615 4.295583270879442 -0.309557478184712 -0.14036706309755825 -0.13970423270257876
Ni 5.266009715965302 1.1932471880616509 10.400355283882448 0.3315000438940742 0.18261157358906613 0.08312376520437298
Ni 5.188400444224684 1.3005856684109816 1.5981428793394754 0.6498859190036936 -2.1936451626044673 -1.8287686001324763
Ni 4.231077284567082 6.025740708022422 6.63003252823383 0.5007812189228215 0.8125863554911297 -0.15363935472643217
Ni 7.197740828378687 0.8511675439850644 13.279562856426097 -0.6483872229709801 0.3925344333985756 -0.18501349816233942
Ni 5.954694666620119 2.9627515618867917 12.128056144698235 0.6050679913580547 0.37382143037010457 0.4112237822779628
Ni 4.403825585915193 2.4351531276004272 3.345232152941394 -0.06330055983085872 1.5105308205649468 1.9014806830852218
Ni 9.23466902819204 0.35833012823345456 6.215403232640711 -2.676479567240881 1.7307915719653546 1.069900560100409
Ni 7.811467755706387 7.6821591399025335 9.991030339136199 0.80997565734116 1.2628777931945154 0.30851669562502354
Ni 5.971510626837209 7.6317297994499596 2.9999330033612823 -0.763624066659814 0.47610017123637355 -0.6153364631635984
Ni 1.2656095835713561 3.263102780758742 10.220732276857936 -0.11647020187530265 0.22942082063312103 -0.37412867719787823
Ni 8.07226346066085 7.892386452914204 12.371420354838907 -1.256510970436223 -0.555378080332095 0.876988118805967
Ni 0.02698433219180127 7.511626392298571 5.744561908621797 1.6004484687627016 -2.834423462879938 -0.36724274871132234
Ni 1.6214423470404864 1.6768960813396223 6.877534910723405 0.5355803288798776 0.2766609845670074 0.11606499601708399
Ni 5.21763833756796 8.535842588850619 11.948161523762828 -0.21477607413675268 0.9245244738240337 1.7139498178176678
Ni 7.059013791637367 7.618056402911807 5.955404756230168 -1.6991711168465964 0.7087019607006376 -0.16292103713867426
Ni 5.623993142483145 0.20054284022291882 7.050279504031776 0.6962585927309621 0.2956917759462133 -0.2262791896803458
P 9.087895545216742 1.8172639256655196 12.691184088755294 -0.0989062248496103 -0.19579490504855956 -1.1792020121414144
Ni 5.094049373061761 4.950251591977141 13.386381284202011 0.23808980916202865 0.33269149309901414 -0.029338601063117215
P 2.815978078911495 4.439654519894826 11.72989703461653 -0.43374150376450465 -0.10101452944186474 0.4403536097643836
Ni 2.5148018211975813 3.8290052655506277 7.479901331300254 0.1914281434394316 -0.3097947910064987 0.6411102296935927
P 2.958413155391974 0.9430193963637938 10.637247110658418 -0.006558112833491931 -0.33033019195568913 0.8320861160869542
P 8.510868941207377 0.16261700977079152 8.712068104464127 0.17052378918659664 0.044955738775083874 -0.23614862627525784
P 6.647940506154104 3.9634587864925654 3.4872046514644133 0.11863018564109892 0.8361803407609857 0.7416118240547809
Ni 6.342212629660371 5.683618421488836 1.815891023952096 -0.10554455610173435 -3.526133259897953 0.7383835469254703
Ni 6.182600059088233 0.6455493243691705 3.5430087955189 -0.487160028594961 1.048416422084704 1.4144535805236993
Ni 0.28961644382708274 9.149004040118097 0.248942955928238 -0.012001652446566428 -0.295293254956214 -0.6149770229416506
Ni 4.0001591098109 7.609490831114349 8.582700160024448 -0.7162640893186116 1.2538617057388342 -1.8273609211516721
Ni 2.553050251107016 9.169861763650871 12.70704522873955 1.2319967873449427 -2.104846201392188 0.12072049251122435
Ni 1.3222684307857189 7.388195019481286 9.600130643853833 -0.49693459148322155 0.14703264804319194 -1.0470930752875902
Ni 3.8803245355406 5.4375343641994895 9.105735851411776 -0.2665640053423216 -0.761658715403327 -0.5718089721946087
Ni 2.428821649745812 6.718439611694881 5.169724902078406 -0.5301141635589838 0.8142771129299912 0.40956644918019786
Ni 5.619339552610499 7.277408062174537 10.215250867113522 0.7454815914228322 -0.8128383236009356 -0.501786006038252
Ni 3.525446592304304 3.212413877524426 9.953705211121815 0.5461974422740916 -0.6796538942947455 1.1538699611345289
Ni 3.486614146135952 6.927443271592627 0.18177459708316107 0.19424941493831063 0.2900212079239973 -0.3825109877243025
Ni 7.858819423175459 5.341672266842859 9.242240845339403 2.3530980386888833 0.36405998010796653 -0.17902668445128525
Ni 1.8131109211576608 8.419595543027956 7.386623737641817 -1.454151927554586 1.1615069088544965 0.6187891975988891
Ni 3.735562664123799 1.8770746066581687 5.9993366840497995 0.28699964748885415 -0.39740333145510265 -0.07479879027844538
Ni 9.17159527222893 6.217112638960464 10.96060764312179 1.0241981729672878 -0.7925741740352609 0.1551377936488296
Ni 4.426008933654717 5.992822585238031 11.358046466484163 -1.6166595313049255 -2.1530299601862666 2.4179006369865648
Ni 3.78900478686444 0.7168076510465408 8.562565504240808 -1.4910238608802706 0.038550606579688444 -0.39590206431922786
Ni 3.1887287736905425 7.791184778333182 10.690134881458055 0.021669000333001395 1.251789653701154 1.2447232337726757
Ni 7.849187789952991 0.8926048880701761 10.90322943619803 -0.029634277926665092 0.13448360773358775 -0.4092692296547532
Ni 7.341464448668524 2.4489099550327103 2.131015073144859 -1.183927956862174 0.31401371418385277 -0.4171553172710493
Ni 2.044474060682542 2.0055118331233195 12.969797851666355 -1.9243349619755763 3.0664277279695193 -1.898893124863704
Ni 0.3307348964946267 4.001299332030691 4.053670758296652 0.7465282875197917 0.5247277024360898 -0.7095360265661586
Ni 0.6236941381465622 8.909650074955326 11.408287623919977 0.3198382912854298 0.22839752157492924 -0.8824095469318545
Ni 8.176811641106463 6.007042917637708 3.599762197746611 -1.4959436667793913 -1.4999679574474358 0.35822100482868624
Ni 7.799008742182809 3.3963975392821917 10.738204981626588 1.3823510435622 -2.327552586119611 -1.0824902238399614
P 4.098950558561467 8.628673363720488 1.4874977545527486 -0.05888571859261471 -0.05944930440556858 -0.277735962798741
Ni 5.181596191303326 5.513734580839225 4.012411400119019 -0.21443026076155974 0.6735783775246271 -0.34894703572592806
P 1.9606630924781805 3.0688478489235034 2.3221163171819423 0.20645726985841217 2.032549094489674 0.5471145547717222
Ni 8.008874521319912 7.127269533135953 1.4883932461497558 1.54023297561507 1.9748162585545797 0.4897205902332856
P 1.313100302530646 4.740997639397001 5.9675615645150035 0.5207278372480774 -0.1967225590691515 -1.698573078251281
P 0.468843617609441 7.30016615607363 3.6741946064407025 3.4759365844389043 0.05610584185463241 -1.188807139331346
P 6.444526716163139 4.4427136526796325 7.950348676096882 -0.4508272556021978 -1.082637033830471 -2.9742979026117937
Ni 8.772610196295325 5.21128831951465 7.042532482006736 0.692797116544923 -1.573611808185832 -0.6295073553473416
Ni -0.0398113686594901 2.8226247401439393 8.341736905614882 2.0931749357018465 1.6563131411408054 -0.04788268261389173
Ni 1.3195615617761323 6.476638340304264 1.113464078023952 -0.9322400973007364 1.3209908952871636 3.8443031623420243
Ni 6.900374581496759 5.325801856759254 5.722189450855576 -0.7380673012366321 -1.439974093392307 0.18341041534127767
Ni 9.134691006724939 1.5339233390969653 3.607020685536017 -0.06897447028718443 -0.17013426705766183 0.5759286507899372
Ni 5.965438711764335 2.4691743922072193 6.005184262718455 2.8582820146650905 -1.4660412227930042 -0.6025483102599946
Ni 8.594318375537169 5.571922994445992 13.646013591688313 0.8250459214107211 1.5888972735899927 -2.5394983898964196
Ni 6.149570695111667 6.733410822141738 8.002137013113858 0.36838740383872687 -0.6108216060123803 -0.5990438966511618
Ni 2.7430780176396117 4.809207030398848 3.9565803727764233 -0.5953168255085619 -1.849282146704796 0.385728980440968
Ni 5.835879803278089 7.330470110841915 0.48201086672319776 -0.322414022432406 1.876355348772504 -1.0856485669632852
Ni 3.819178960241854 9.325163738026236 3.8168456762359875 0.201118374144002 0.19958676799082403 -0.2704527988737665
Ni 3.844634653051187 5.357283114144722 2.1147747860972737 0.34848629403942566 -0.3544718221988992 -2.0930931746213175
Ni 7.641862018037214 0.10946689515960853 1.8671639434453293 0.5196649432012018 0.22826330998991012 -0.922663766466211
Ni 2.9086698022911444 7.290247149771377 2.824732760735652 -0.5443950989580302 0.46353904674191143 0.22366694886847932
Ni 0.2634627125368533 2.063978349710523 1.3391520627280489 0.07634376616806207 -0.222348744277688 -0.7888856694400801
Ni 4.229742390260984 3.279992901770615 1.1503099419020488 -1.2256837006427215 0.17549064627356875 -0.48563999240600886
Ni 0.3325713031754457 4.146626679507715 12.112507407062004 -0.2517318254254955 -1.0310177669922824 0.01607736517783683
Ni 7.283405816452628 5.274677258855588 11.732963583480815 -1.962742615219497 1.348064611575504 1.1572265363115877
Ni 1.939453105170186 6.219541404989614 7.548974695561324 0.37899834658535375 -0.5010766386760532 -0.5899499047696937
Ni 1.551582878354714 9.045827834375974 4.769056376103224 1.1522920751244476 0.3490982165918116 -0.6395341434557243
Ni 8.662119882167708 7.245333518430804 7.842417836399219 0.1580004599086053 2.0641327828332257 1.443109039476863
Ni 8.731840299363261 4.318392350324949 1.8028387240702533 0.5294009395420431 -0.4096165856918429 1.5518412492779596
Ni 4.285984083004692 1.5939565024739635 12.886668235764066 0.9676205336825594 -0.5663415213221342 -0.30836422920755924
Ni 1.027043576853157 -0.2538505465230161 2.4038489291125047 -0.22682657754338356 -0.5638444659318934 0.30508890089039714
Ni 7.374577243539221 1.9500951792215748 7.982748600327725 -2.4773561120397205 -1.2954361867465107 -0.055947719010213316
P 0.846124609939807 5.143319951095849 8.963614104289256 -0.5841289272125424 -0.8085165562971303 1.5295140465356691
Ni 1.3347089041106004 6.7914694543576335 12.600131318940354 0.752777096642981 0.7408687752411693 -1.81616325266364
P 4.985570670492639 7.572568025411663 4.903648021525445 -0.5983036760510276 0.4612327672062379 1.2622301323081875
Ni 4.720640501229014 2.7775071666177116 8.015338561595202 1.309454869623106 1.2677909142254167 -0.1084964396412067
P 6.23708043295584 -0.41850975918014993 8.989799353917268 -1.3853319805673947 1.763064058845815 -0.158847638400249
P 7.553453080556294 1.2254515131962544 5.063164183064364 -0.16823602159368445 -0.4638624915196011 0.8966570579898041
P 7.134296268441662 4.052071666159138 0.212136953477337 -1.399808576917015 -0.550557004794368 -0.20554889911152985
Ni 5.9598303016588545 4.588689907111009 9.93095267928233 -3.4262577291565384 -1.026352243195813 1.5656820118157937
