# total energy = -381179.622271008 ev
CRYSTAL
PRIMVEC
9.08231921905286 0.00000000000000 0.00000000000000

0.00000000000000 9.08231921905286 0.00000000000000

0.00000000000000 0.00000000000000 13.29289223199121

PRIMCOORD
 96 1
Ni 5.456112453019007 2.4861759008298376 5.933800665742507 0.1519902491587834 -1.0386647420145787 -0.4774505146166809
Ni 6.798788033768768 7.898084706166247 6.592636643700069 0.9908224257203194 -0.22855487308839995 -0.6892446233069742
Ni 2.642273721401196 7.250551674487912 6.142512361601576 -0.3839101820646743 0.9532868906687065 0.22983579668335255
Ni 4.295137750744289 5.888312778121073 2.3917633759911 0.23158800348776892 -0.5362863538079667 0.5426104962537815
Ni 7.629529608913993 1.3604860087558381 6.460119248540324 0.5848403514572702 -0.9053101056791117 0.126874170817446
Ni 5.783684460614699 6.872436560388489 4.32064181136839 -0.03957827651325442 -1.470712145906112 0.8690125567996583
Ni 5.465730629081441 5.776400440593857 0.06670600180185005 1.1837688055764903 -0.12433057845998588 0.19767283879756278
Ni 3.723278602873515 3.332130360681936 2.4730628483284747 -1.0602262702354386 0.10384917067718245 -0.42336787383966445
Ni 6.568896369470041 2.3695316749848416 3.600180480985114 -0.4660708120248296 1.1269643949929364 -0.6566358361330176
Ni 5.728809087839221 3.9091664305126606 1.585190760543463 1.2697657785636003 -0.4287468787633906 -0.15636061031233717
Ni 4.5873977011815805 8.460489159720689 5.986853217048929 -0.15725355444025174 1.3234380712760756 -1.3201902537627392
Ni 3.2446676265164514 4.290968966218645 9.754683320431475 0.9996443948873237 0.21592252903637008 1.3073473363618
Ni 0.2124990229771377 3.8835270433320623 4.5107565503762395 -0.7412577831494718 0.11461026584842841 -1.061826781953339
Ni 3.458311021716315 6.408275553923148 12.675836011351374 -1.269893048170084 0.0883274208924995 -0.24983692239562777
Ni 3.318588622713012 1.9836057663493527 11.410512727002505 0.41662978378488247 0.6077352537775728 -0.30565711468904133
Ni 1.7315441608151172 6.352746254163254 11.112950518599916 0.13202691866297908 0.839075917141226 -0.3450901238736831
Ni 4.865589139134726 4.175187560700307 4.496028661516141 -0.3949990928889842 0.6113592236834052 -1.3669763608783425
Ni 1.231253688460856 3.2385643079952464 2.066938769961873 -0.06769483224381244 -0.2710575223373009 0.8900853183095574
Ni 5.282067969653153 5.232941704948988 9.05622118368222 0.48281692113491687 -0.2676253567273004 0.37310357836747354
Ni 7.241660083963716 1.9852769130873016 0.3528753489648558 -1.0071386463818397 0.5451404617644869 -0.12894956528923598
Ni 1.0361563891245353 4.528217309092039 9.876751507319423 -1.4138645407894488 -1.1009612860609554 -0.6837748584416546
Ni 7.81342840864221 2.3878507128676847 11.238861434753224 -1.2269435411917513 -1.893688697844629 -0.6939566840706629
Ni 0.5102083649512197 5.912117536817618 2.4586537488732785 -0.6989842191922414 0.6697484622555756 -0.4454605919736457
Ni 0.21049273865967608 0.28768881916984745 10.424112915536554 2.1021203178205927 -0.08489782638566024 1.1254944953156292
P 7.941025911476155 3.2987437551998675 2.068639888353274 0.5272075314351501 -0.16432563079568477 0.03698789007825888
Ni -0.18309955563615404 4.329214612487685 7.588075179261707 0.04827760405946525 0.4573876824285349 0.23974868492169032
P 6.248472147106772 6.8723275725577535 1.8204219203163214 0.2602712303550743 0.7888062223523964 1.4238329648560704
Ni 4.274648038565958 2.453752021185936 8.686360081297188 0.052646936771754485 0.6266431464256692 -1.2367777536733537
P 7.663606470657389 3.457348295878149 5.881532826817383 -0.05587778500422635 0.2469305473821102 -0.217028103395723
P 4.830576798510847 5.082375016787473 11.344048314892117 -0.3630220257617554 0.6483376006799674 0.008130599526934386
P 0.7123144900357755 8.502422227596291 2.605819108483914 2.0760768425689795 -0.3871870530437332 1.3631711281996393
Ni 0.9871391122511067 6.362691393717896 0.03226221436164416 -0.15700261477171026 -1.5956448767264713 0.6494552592241782
Ni 8.418837643741156 8.802592878081157 8.285712641425059 -1.3494074987566438 -0.3162346330945715 -0.06137917443842977
Ni 0.045801227634799664 4.006301834655948 0.2417540814423964 0.6932874259177801 -1.0554640729601048 -1.7758182731876901
Ni 2.407395863846306 8.804363930330615 11.336709800955907 1.294590293806448 -0.6149381992839151 -1.1750067431131443
Ni 5.478509452235215 0.5933097694234262 7.76868527119747 1.3851118941367888 0.9568900346389329 -0.9367035323887287
Ni 6.701570888752429 6.608604269134787 11.05024800311376 -0.6491310431155402 -2.5570628811427447 0.5052189429792009
Ni 3.6730624598619928 7.007654129054712 9.864363223892452 -0.3765483423829644 -0.11283106246081857 0.5215395345160952
Ni 4.058470676301487 3.3291876892520693 -0.08196338987294008 1.9928376348326646 0.14622943541560623 0.5567271381608219
Ni 1.0176738694955882 6.96410440835653 4.601653309441825 -0.9404468014812449 0.4998000859564747 -0.5244852474079806
Ni 8.646604045340535 1.5434402472843443 4.1911288474092645 1.105053710962774 -1.0542412562965973 0.23624709952633507
Ni 7.137331482991866 4.778807578911341 3.53011402106891 0.19698789691539623 0.5533407381870923 0.25297649646587395
Ni 5.708501022045449 1.319588325272227 11.933441788264439 -0.38055514954951236 0.8895407586599969 1.2322158453342844
Ni 2.6429185660663825 0.9488662190243827 2.315541828334092 -0.2999256115219028 -0.5673527361954681 0.8727859077991613
Ni 1.300896912301036 8.68509491422873 -0.01751525263116682 -0.07055621295200752 -0.28802860297400074 1.858950008811863
Ni 7.8674863726871695 7.619811527340051 3.609192866355042 0.491021054212264 0.16783390105925935 1.3396545331349379
Ni 8.86685936893837 6.767572102582188 9.823022323230514 -0.5037007065624616 0.4536600970653025 -1.4567837087504782
Ni 6.907694123631523 4.063602186665298 12.36387832697243 -0.5945028142476988 1.8111601430220938 0.2093479611426459
Ni 6.310567963668497 0.3126715546702626 4.58239243505504 -0.43665919163193184 -0.5675103448192549 0.3926017963014013
Ni 3.959873018762494 4.261869215412185 6.956754995637245 -1.0162244107331917 -0.6935219105260895 0.3664755315279946
Ni 4.762150605447218 0.6496065251580839 9.970055080980424 -0.6868085030616559 0.5711551406606937 0.16669438813817744
Ni 1.7686999287767993 4.99125210797311 6.061212889264201 -0.3028774950613752 -0.22074129058125208 -0.47463027155906645
Ni 8.271912965590062 7.7815131388750745 1.3899581346506455 1.336039304979854 -1.1432675030283341 -1.210870289778973
Ni 1.3185983524763767 0.5584236730368175 7.390209589024697 -1.085802576042646 -0.4492835652641617 -0.8062326453589598
Ni 8.914596038800653 1.1418564202998112 1.6653331454111924 1.109889956009153 0.480179740622386 0.43515921004763763
Ni 3.319351537528163 8.750087990624182 8.000978300700076 0.8400650205273726 -1.507407187334301 0.3908321059954882
P 4.482415173225316 1.6859236713329544 3.7542847324859294 -0.5148256128310295 -1.1069434717863196 0.03273322856696298
Ni 4.571985005451693 7.999443388750547 0.8900482114720366 0.2614097148348917 0.2515935000754183 0.5810723997744057
P 3.7407893143450686 5.937175655567627 4.91446200713243 0.016978536835867534 0.062042261943725405 -0.3438199989120078
Ni 6.608504363623279 0.33250461516841084 2.129016421885142 0.001227444649197886 -0.44857008413690486 1.590453048112887
P 8.97804512092735 8.658592706721473 5.706838049394806 -0.40063520812883907 0.004044859493334969 0.5316051462822136
P 7.103772313444465 1.2842853504330536 9.408536153550708 -1.6054186682837834 1.4472536577728559 -2.06891554893385
P 1.4848774529023046 8.086524665508456 9.199811742444721 0.7833536838782573 -0.7452959577745875 -0.3193973470932693
Ni 4.663162408181423 6.572783602099619 7.2842924904198725 0.6726221842589448 0.6456286863892365 0.011859984662379574
Ni 1.9660859725585718 1.8666799886082888 0.17722783625526248 -0.35226453013493525 1.0702432881518085 -0.07238555285126243
Ni 2.5514505291213574 7.453932048960154 1.7261619784406141 -1.6674799563909024 -0.16879677919316088 0.5976971528152802
Ni 6.585662330764899 3.112973997710686 7.883190610864276 0.08655438815247675 -0.2946705337705506 1.5752107772418353
Ni 2.2958740660458927 4.169502028863589 12.325263030310811 -1.2989071760142468 1.525878763775927 -0.5742260662765337
Ni 4.858586671009951 1.554311783400241 1.2584425193017486 0.015749292414456748 -0.3285831273575954 -0.05274515291251562
Ni 4.953288013600138 8.208472965782594 11.661070300472586 -0.7327227490952671 -1.04620115960094 0.6137570344916203
Ni 0.8853281301692535 2.539080410332844 11.411390079039927 1.6970766962114128 -0.42301768958909725 -0.10077181730343934
Ni 2.3796857078817273 1.2742493876861316 9.360761337947668 -1.0013395232015592 0.9545924968540076 0.6642982377742818
Ni 7.213205177822442 6.086870441083256 8.108198712114117 0.3189157794711604 0.42010694370020546 0.17898271858722725
Ni 2.052558733928206 4.802957465738549 3.5875524243305255 2.9630986914618647 1.1553311190610875 0.6994105080963825
Ni 6.065962942220437 4.926940205519756 6.3532049112842675 0.30352695571991595 0.07785711748879494 -0.084809380436912
Ni 5.686721620536744 7.840975082860685 9.250443855676886 0.8305825349582342 -1.5337815635627714 -1.6870974735115138
Ni 8.560076790055533 7.659265122066412 12.131226545860319 0.42017276394113445 -0.23824150424854454 0.286683401800016
Ni -0.023764796491942495 2.043549073254046 9.064277200837441 0.3203838793762547 2.3135115346455124 -1.7493770482770257
Ni 3.32197632778505 1.779943839981043 6.541923697826776 0.16936833542591476 -1.293846730772204 2.3355343187735063
Ni 1.9777476704473032 0.40052119563485894 5.1333295523522295 -0.35141760875360767 -0.5323014010182897 -1.1591273528787263
Ni 2.534938872764883 6.000642902332777 8.072866673853413 -0.8037250484457577 -0.6129101131102929 1.4097947415954493
Ni 8.053101730749475 5.73192432333442 5.582482934525251 0.7919591661590812 0.8870370184015369 -0.2615639810245689
Ni 0.3461117458357762 6.807143767458514 7.319159513936102 0.2798064721745246 0.5478246934648695 -0.4853057489950416
Ni 2.754685586485952 2.7919230953206857 4.737254151979469 -0.42200030406817646 0.6101474627634911 -1.7225164764407561
Ni 7.684768274458591 4.210917404543196 9.735156334091307 0.2722302024891634 1.474498609531738 0.3722368594918041
Ni 7.658856417701153 5.385215869125364 1.1562973078723056 -0.7117327771071613 0.85881479033105 -0.12971523981066693
Ni 6.677866035567392 8.440017612180814 13.376902957255213 -0.5896639980981587 0.7798991496707536 -2.7864646756124722
Ni 0.919557574875679 2.6429730599817507 6.347622009654827 0.23739689686006213 -0.9590240502628001 0.3204954652534545
P 8.780668159464804 5.3182065178613 11.446682155096028 -0.4466229877128631 -0.5365473207788373 1.445222229165124
Ni 5.609585483333477 3.3220943979350137 10.418928727721221 -0.5359724221119737 -1.2064035122568708 0.411226353381124
P 8.79802447150948 0.8720443300664044 12.56747213594653 0.14388073267777154 0.052214734330342336 0.28280566401216456
Ni 4.283812098666994 8.245810380128836 3.4000688332030236 -0.7256635282556406 1.7422419798941415 -0.1807459811352371
P 2.020552640968791 3.3636005968069 8.152942757790779 0.09202749545190603 -0.2684776774252666 -0.4009712513120191
P 3.5605506892657295 0.4748281903986087 13.121839645216129 0.1583583574686563 0.30343413889579357 -0.6728047325833961
P 2.4593921414265134 5.17297115108661 1.2954348055173266 -0.30477136964997836 -0.3742824291669231 -0.23214516154281958
Ni 7.2423685048634985 8.763048460162516 10.641079531341937 -2.1300309281879315 0.08222413620823903 1.3035315621601355
