# total energy = -340870.64967895416 ev
CRYSTAL
PRIMVEC
9.20838587035753 0.00000000000000 0.00000000000000

0.00000000000000 9.20838587035753 0.00000000000000

0.00000000000000 0.00000000000000 13.47740351917756

PRIMCOORD
 96 1
Ni 1.0140366354486456 1.068808113256226 3.867287156439074 -0.41188481290072937 0.7823242141724785 0.41575483737909685
Ni 0.716857168091434 3.6050001039622392 9.044362195070699 -1.0253235448209825 -0.3569832757668433 -1.675407438768095
Ni 5.38962207521649 6.418171126439303 6.553454282443759 -1.4436721110691846 0.00897726379794583 -1.2554413915211282
Ni 0.689668488640415 2.5186684328264195 6.138458124970696 -0.5755751241052603 -1.6415128429031793 0.4965239863083642
Ni 1.8834279492090817 4.556042173223653 6.017067660386599 -0.4902774911780201 -0.05934208940374296 -2.161269831597555
Ni 2.5770588061918978 -0.3788909982034363 2.6245897303679886 -0.37911738866172123 0.921510112477742 0.6739195629141297
Ni 8.444550054378189 7.5265476728056795 13.665682614121172 0.7331235840781115 0.7299801533531235 0.5635318197874811
Ni 3.974946997190137 8.026977390602072 1.108013735972022 0.2673209381130041 -0.03772579668554793 -0.49148745232572133
Ni 7.70498776980556 1.1786089036694047 3.2436473970554265 -0.024928902031195778 1.312603699664733 1.5577216193181367
Ni 2.3397494997730766 2.0263513027819555 9.933977886219967 1.0548932880582995 0.5306414968173636 1.6191429598484115
Ni 1.348466785249537 3.725574705578321 11.242768500247326 0.43651212453110627 0.9346083404225968 -0.9518013072621155
Ni 6.620737193825173 7.28480913289233 8.259882326167604 -0.26515709769246587 1.0666573705727629 0.22654427041627437
Ni 8.143638428319665 3.738733488662893 7.253228053489359 1.0702561436676148 -2.115525535482905 -0.1205240602297021
Ni 5.308523822854123 6.2822737711124255 10.611352259187736 -2.246796806926782 -0.5390932271291424 -0.3765948793501837
Ni 4.309542897932611 1.4735903293735113 4.595606002140982 1.1642546468029624 -0.7105981492820859 -0.6246621114398984
Ni 2.7441449636933344 8.882841585852198 9.664147324223974 0.7418645634955353 -1.4867283188287106 0.09635311941045342
Ni 1.3466435248921225 8.186669214431772 11.839265622108172 -0.14309268955883742 -1.399750212875254 -0.13885319755619313
Ni 3.2672641437153294 3.2368120123922517 2.6060044456236984 0.38680164467985645 -1.0082321365563345 1.2974323912409333
Ni 1.734675687523868 5.575999800641075 8.034580754627918 -0.9859581556494825 1.5025704280672898 0.6819434616598707
Ni 2.741999409838397 6.210365487622279 11.085406397985434 -1.3469297266401126 -0.586305366038571 -0.1398916661230365
Ni 4.833371123649156 5.107385055242998 12.674406345467583 -0.40128441167706375 0.8616640868543869 0.07703847824224151
Ni 6.362930020963904 7.989600553275077 11.834036179901224 -1.3647029914631335 0.3594929295625744 1.149988880912568
Ni 8.828373984770852 3.8536541414938617 4.525820251541663 -0.3434813846256665 -0.017785091897562916 0.7491078753215099
Ni 4.640068692220655 2.7558580302318756 9.019294206833377 0.5516612936021403 1.6159162253809976 -0.06389705576427704
P 3.4988274174926026 1.2115472991162295 8.292821642452994 0.24711181015498088 -2.2176338122095807 -1.449207181954801
P 2.606774266663495 2.464983544524773 5.149621157674072 -1.0651938986533591 0.2006136665934416 0.06103284684260457
P 1.3323152768308253 8.256781862721436 7.548019786449209 1.8053134544333296 -2.3644684853093536 -1.2253929088751798
P 3.9240706665097607 4.6252616081058955 7.181514987774855 -0.8391998443135998 3.3621673264345326 1.1258829890032998
P 8.054952466187046 1.4753675478027082 7.560000817009976 0.2512451155970641 -0.023990963597958683 0.6008048452063266
P 5.959041018254039 6.899631569810071 0.2939758699918356 -1.7626182295576482 -0.7799670267942116 0.2679524010494159
P 5.487498006221327 4.235516685744458 10.341251891492387 0.316941429353609 -0.9079102623061202 0.6370548286772963
P 8.754099146170324 5.381398986836838 1.260485264618648 -0.6137593484844656 -0.21438089558086304 -1.7235580303313929
Ni 3.4737161498427587 3.0376162141519054 12.226538092924327 -1.1353834722945673 -0.18857858980577843 -0.5018523404998131
Ni 4.0163294822720585 7.6470670241079 12.318184551041332 0.13759001457305337 0.8255812250889007 -0.2986017505041567
Ni 2.2761195549764426 0.2670947506213096 5.7444874744374514 -0.08217759924101976 0.6750714171303858 0.6110311509200251
Ni 8.216495175531092 3.1817182410871485 2.305498909372052 1.0662974161301828 1.0397672310501382 -1.1315484148191932
Ni 7.462494142269443 6.621013445394477 10.42446162668281 2.5430783939381945 1.2253214322072963 -0.8160676291715108
Ni 8.411399866061563 5.730452053039619 8.576453732851478 0.8214903428489788 0.1882147787084565 -1.6622184508816469
Ni 3.8967585946911187 5.318026876838223 4.954643720897017 0.7133795686819651 -0.11578885953756188 -1.3118295405028697
Ni 7.043825680601749 2.6243346580856635 9.485921782609585 -0.20075970525300263 0.47661722008210816 -0.32433103694946075
Ni -0.012494858479674789 1.674167385460383 10.292894975124074 -0.7646990448915476 -1.119947340245155 -2.69819587587205
Ni 5.851054279812631 1.2592191115926659 7.869186177569192 -0.15442791206599857 -0.8265140213158153 -0.3657995885068926
Ni 6.15798819008201 9.26446471207606 6.008523199347989 0.7610578485945345 0.10526661984999935 -1.9763920876821315
Ni 7.10670974616126 0.8710138313108221 12.07545703050987 0.09721855273454225 3.0451009414672847 1.02061174116761
Ni 5.9035328695949785 3.008683466460006 3.068413659936615 0.02176953046660767 -2.4593848722732807 -0.7968056956181051
Ni 5.041158345694894 3.188283820050969 6.337236783341391 0.7706809735065954 -1.4169969157708435 -0.4874618761060959
Ni 7.1024278468370285 7.2343287627946244 5.016518547389998 0.5898977113755196 0.21777989396008302 -0.2548927396519804
Ni 1.1599711311269463 0.9939071044319392 8.19620173524993 -1.1111649660668348 1.225952895143708 -0.9369747837722443
Ni 5.762911612432981 9.182316703750335 3.0552198849865984 -1.813436083540464 0.29138157860663366 3.6926741531774017
Ni 5.805933190159446 2.894250858068143 12.044027889470017 0.9070931657214637 0.407789045564801 -0.9656839787814789
Ni 8.518373682082185 0.7620565290225887 0.7461794304960536 0.6276649028219642 0.6620680628921823 0.5799130893589819
Ni 3.2834893192191887 4.5795880153141 9.448239226879227 -0.05143851828595012 -0.9929276449887803 1.4787365588724855
Ni 4.6189078220118756 0.8813612942584311 13.07171963998942 0.49258479915495806 -0.046271372262713856 0.6530851426672817
Ni 1.3166610212368632 6.822502131660057 2.201492956044332 -0.6592509051583614 0.3197624437421719 -0.8462487807405813
Ni 2.515169246281887 3.0806285834927274 7.643978531563068 0.6553376861468843 -1.209289061334782 -0.3138041692762079
Ni 8.141723084105815 4.358540717941713 10.618751197052296 -0.5780940338723721 -0.23232076788873537 0.9994543903637044
P 8.643405142349724 -0.1633788614413604 4.85520788936417 -0.9229306469743523 0.013024951504758214 -0.5127705300742136
P 6.530264804877715 1.8163540681817762 0.6844887717159422 0.36699720835941957 0.5993390592940775 0.13430954404956869
P 4.798968594885014 7.759980248868584 4.707710730642166 0.4875384949803023 0.08161478475901428 0.8724385517620716
P 8.309674829857741 8.720810832069045 11.188293532457468 3.1021411222107282 -2.1330522315127585 0.3890459606293428
P 4.921946585154051 4.7592067856763505 2.6745231223584702 -0.1686327428114709 1.2324891536003288 0.43560735332864986
P 2.9709935440211317 0.7066165224172898 11.696404885557675 1.0427096015079138 -0.6028645559488327 -0.4758636297455353
P 6.634715523232017 2.417983944200313 5.023391686434311 0.6198765171257969 -0.25379667837432424 -0.31504395522058
P 1.7599250809583644 5.7442554231192355 4.092871425418018 -0.244844611387359 -0.3387904069079004 0.2880561137778265
Ni 2.641139961885064 7.030427479490447 6.191626422837742 -1.0153489501067738 -0.7376338132436393 -0.45981351826120814
Ni 2.42666745186214 1.4725405734101513 0.6466469109139498 0.8955077748767094 -1.002698865442931 -0.18135713235667475
Ni 1.0061910908803777 1.1788022797679183 12.20772444021608 -0.43631106426389377 -0.04097412841951653 1.5108912892281592
Ni 3.865974961484874 6.54587301854346 8.524605917485712 1.0663449815386667 1.5288561012366961 -0.309187496439803
Ni 7.2427820608153635 3.9390342931804594 0.18981981997812675 0.8106726834081844 -0.8767436068953288 0.4663492624971969
Ni 0.047359648203121385 6.272153755290211 6.033132609980261 0.6537847398374675 -0.7576724770620693 -0.22400093516913033
Ni 6.198707671397598 8.792166612420582 1.0850728848183526 2.3275042493801785 0.5034554233208749 -2.8882783039168647
Ni 1.3257220727100743 4.364093374484748 2.121558643627304 -0.860000583109035 0.3278177099464806 0.12207392121532526
Ni 4.098293322884915 8.537757333861768 6.922385490735178 1.081491350261802 1.6415812342472695 1.1082179676233688
Ni 6.493606221630913 4.811040788463652 4.528757726561942 -0.3288710909116594 0.008859250162842806 0.3265013051279022
Ni 8.504782104872369 8.351665068392133 6.882922954059929 -1.1443039147126486 1.1358802094253277 0.6852211039698779
Ni 7.3274807919643425 0.21587955134925182 9.442483985852034 -1.2294390539200954 0.2004542581974419 -0.7131962490265653
Ni 0.847563756431067 3.2117007447424073 -0.189303229543526 -0.6412506119261988 0.4145122232212475 4.111819504295286
Ni 4.8185640395343965 3.3039135185764876 0.7537201774995216 0.305044677916023 -0.404420129092568 1.0695580891593257
Ni 6.021289705204147 6.72307919186711 2.908774323905083 -0.5976904679470609 -0.21116650240862342 -0.8654857745933223
Ni 1.1632032744878171 7.869145660672361 4.37264888558613 -0.3821392062071806 -0.6981182716475202 0.06335429588692959
Ni 8.416676271035293 5.877298178896626 3.248162268536438 0.249611436648383 0.19890645409434776 0.7484522440153819
Ni 0.6182049701768494 5.7173853538114825 12.62602180394234 -0.6650528565521191 0.7099733712138934 -0.3530111784929727
Ni 3.4124803853134367 5.772847460542326 1.5376503057796973 -0.06178977961328714 -0.8418624787474275 -0.6204311040776863
Ni 7.316817481389162 5.883937424945595 12.545953049094917 -0.04053112734482697 -1.0125734442441658 -0.1236518072254064
Ni 5.0474292563181224 1.0135117574669659 10.568265301923203 -0.3974976909411219 -0.3257934804276002 0.23033973290296458
Ni 0.04039258362524391 8.187626886538697 9.275634483861637 1.052632774158897 -1.3052554868297779 0.38209704011533546
Ni 6.194711232028316 4.767945543652038 8.142062873536059 -2.0076052800601425 -1.088241524501442 1.7953841111347595
Ni 8.379115265995427 8.338902245890232 2.769862143118521 0.031975781575648156 -1.6078761286853405 -0.3745027727078453
P 4.132005222725795 1.1682310530491722 2.078849230174154 0.25494081928109646 -0.03569848184287401 0.41999432938174125
P 2.4110408214251082 4.797246626769678 13.188326348231715 2.190001138093977 -0.07229427868903679 0.03954408084120931
P 8.528014861850938 2.652889861966179 11.936518145404943 -2.0053519652495915 1.1635789608921767 1.0980381988768895
P 5.369750378997802 8.268854056300075 9.778853421669448 -0.8016131443090776 -0.15763227793590917 -0.7267053392565935
P 1.3957794706858762 8.408434765884355 0.5558043448636235 -0.1183134257316285 0.3517271695742265 0.3802072792917904
P 0.7003041740586656 5.515721708218677 10.065639384150833 1.5811124874382512 1.3904032244427151 0.971642510357759
P 1.004109995724945 2.1206820053140425 2.0155452622293 -1.3813403429094984 1.0416323092833353 0.21144469577067454
P 7.323392268738625 5.458068005704678 6.532726206360224 0.37831571869603237 2.1416052632890925 -1.9638281349741924
