# total energy = -381167.4767917302 ev
CRYSTAL
PRIMVEC
9.29467704834624 0.00000000000000 0.00000000000000

0.00000000000000 9.29467704834624 0.00000000000000

0.00000000000000 0.00000000000000 13.60369938061664

PRIMCOORD
 96 1
Ni 9.201720918831292 2.134290202299836 5.701881869766749 -1.639364429101609 -0.8717417828053632 1.4731801478306308
Ni 3.1126014281814656 2.5531548205541292 5.112243362894424 0.18397502959549605 -0.7337049105028783 1.4059182893591788
Ni 7.579455882189783 4.6484259688778975 9.385994396299928 1.8218729014539077 0.9085090722323836 -0.767075258433208
Ni 1.6681156782003332 4.146959556272646 6.710093142036091 1.2664626823322962 -0.6680718458841011 0.7311983420309408
Ni 2.1027533632953577 5.795175331051644 2.749552274679837 -0.5710024171329134 0.05741221937088176 -0.49994612461603577
Ni 5.579408699560351 0.8806474074791669 0.6796639597298778 0.5852848951938565 -1.1624888131517916 0.5939338291181061
Ni 4.843865141806623 4.1283702023059625 1.9014297303684782 -1.3435081025530733 0.5542511658165035 -1.630077604483044
Ni 9.01917346287846 6.212766578559219 11.303109823545494 0.32455292315227974 -2.133240693374481 -1.0031891748157884
Ni 8.07763197914293 5.600228776003036 4.345620264243798 -0.03676291855164636 -0.05789764364773255 -0.9368588270196704
Ni 5.302232137240119 4.443822244443596 3.996317938000532 0.51159527881919 -0.11733306409623018 -0.056043878268445424
Ni 4.691869289098036 0.37342387195043414 7.90672889451483 0.5540737596983748 0.03365394060901946 0.08252778349158689
Ni 3.62923675362353 3.4616444329368963 10.686100351892623 0.6127342496540608 -0.3936040123136705 1.2805335586030657
Ni 1.1589253890219255 6.185124209210763 0.49376670219225066 -0.43279739468368045 -0.7438024039481964 0.9796903203628999
Ni 0.6364520769666241 6.2212526186450114 6.834484733571851 -0.122191420629796 -1.3107041686491752 2.3275523290092948
Ni 4.091711996283663 7.568311564486756 10.170968905186465 -1.1225451828793183 0.7316652543650302 -0.3998805893510017
Ni 7.8820533860594555 3.2519751095466742 4.131103766806763 -2.041684995352671 -0.6292170778004325 0.13338189002897674
Ni 5.457908682034107 3.6093182608482293 8.560046162867728 -1.4546952016525656 0.051183207742034435 -1.2717938647372227
Ni 6.9662674522447645 8.52752222916762 8.390530773513241 0.5773196176001929 2.3088956331400556 -3.221667594413852
Ni 1.3601365563573065 0.692002643425264 9.188238060399256 1.0487622354598969 -1.8690724419578457 0.8500149326512328
Ni 1.4752790148269432 9.262591758395196 0.20494390961189096 0.5463190554536204 0.8296062870878937 -0.07338468353973814
Ni 3.555613617238481 0.26204296925595566 5.691039629065681 -0.07853177495831637 0.04811099657461392 0.7242933873809912
Ni 4.671606893274351 6.3821713612576065 12.140131735135649 -0.12083413527095319 0.48727238580310916 0.7138783626952545
Ni 8.897719918737135 8.028491021932004 0.7480132963945793 -1.383008988861173 0.039590360698112455 1.1846550648361855
Ni 8.519194198590544 3.7341085940265746 11.53556969489887 1.0099619747632476 1.5168724465122585 1.1397672031845596
P 6.922117736573891 0.5554210830258511 2.5480408892778947 -1.188266693446844 -1.1597539307191316 1.297655562995333
Ni 3.7437936474432165 2.141753827917459 0.7953222727720902 -0.6084731603848618 0.006701580389891685 1.2671555946342627
P 5.449106622930883 5.925068441893845 0.6867660224128492 -1.1421768410673168 -2.4940081187741048 0.8309170354795173
Ni 6.878553585552969 2.7805676823055503 13.39988856847596 -1.1305644536393689 -0.30410082594551496 -1.363642925629735
P 8.092754418594827 2.002575334768901 10.508666827216029 0.6237730239667257 -1.1103586681154556 0.0512315444814666
P 3.361819602135806 -0.06485732652206 1.2834340934876758 0.43782750090842015 3.399482517945223 0.7504132243964946
P 7.251595446279388 7.167896880044395 12.16860411913872 -0.9187001538327726 2.9882978164353116 -1.2244266883071686
Ni 3.5414113508079343 7.327282000954739 0.9792527766600423 -0.19463508041250352 -3.150584819534413 -1.6509670463375439
Ni 8.789883076376405 8.73772134914589 3.4000402433590056 0.48734386247099293 -0.013057090294274286 -0.06371090789539995
Ni 3.0787688039621015 0.9056612421767362 3.2186899418016295 0.8494220362622403 0.010784235099697555 0.12716496258498744
Ni 2.2660794272466376 2.7327930426111737 8.821414338574693 -0.4970824299149955 -0.17314502885952762 -0.6991279438589573
Ni 5.3929110058896 2.1157380270410857 4.008316436518328 -1.2593384125826892 -1.0659791135588157 -0.20035809893920975
Ni 5.692208899430185 6.456333588907689 5.1418450501509705 -0.0813954696593566 1.3100994451856405 0.6173015573097691
Ni 2.6306538372412325 8.637654856743234 7.779874213578484 0.621398095976646 -1.5920126792905227 0.41480327209910495
Ni 0.8116074763146032 1.4401637251838784 3.657531609296219 -0.9103294132705742 -0.43630257962346153 -0.06254851215618261
Ni 7.1540478113392165 4.693393616123304 1.9550423566760915 0.5152354466749385 3.2690836218039703 -0.1843190431984761
Ni 5.8404218186065515 1.8478654363811784 6.411559270943536 -0.73503571349916 1.4326323083152552 0.45441240185029486
Ni 8.401188979610039 1.3495963926581969 1.3187008863655691 1.295756289090091 -0.15025064075985736 -0.7514496360808091
Ni 1.3579058338813044 7.481759532417878 9.678719094277895 0.5888078207454506 0.2573540567082793 0.537674492404745
Ni 7.002916363590081 2.0369377555763153 8.678438969878439 -0.24817341865027584 -1.4782087113934737 -0.41369358397469397
Ni 0.697551565584319 3.8488142026779943 4.658396368877927 1.377700432164066 1.9725233487553446 -0.08177290760343336
Ni 4.956786172477241 1.9580910107266274 12.175840954637948 -0.11215769054287782 -0.23620210522101256 -0.051614124631865946
Ni 1.6572502008068069 4.678429186180124 12.136322776507875 0.3462898006087391 0.09601553356537658 -0.34783914737373
Ni 8.958014488328073 8.26487324697235 11.99717030845487 1.924169382931989 2.188425308966425 0.9438810239737744
Ni 4.65474634922657 6.510753922645155 2.9000368129109333 -0.4424220622576381 -0.694562693085778 -0.06691013155898799
Ni 9.242710444327829 2.1348292935648696 8.287686102160263 -0.18995361577643416 1.387185488836366 -0.4469058090606045
Ni 5.357767832215584 5.418406304854906 10.084748693085892 -0.8121711223305819 -0.7153068676116648 -0.22758762407912417
Ni 6.548490311197522 2.7073535117077676 2.102220778304212 -0.24616204464720184 -2.974791811529077 0.09078565262500493
Ni 6.986418311944649 5.286449775722404 12.629225073740676 -1.0556291377830593 -2.70989310970432 0.9156410552914748
Ni 4.73254279557714 8.666143041697177 4.036924522805355 1.4307116942537748 -0.5462457790135238 -0.40880103176908306
Ni 4.634799972420318 4.587768906884609 6.377808439881625 -2.1739569401469208 -0.6460480333148423 1.6305126351379338
Ni 6.596543791201399 7.265946427541667 9.94514729213459 0.7574709025742244 -1.2893151614504377 3.1542298724861677
P 2.0984778118830203 -0.04447967670378166 11.29653941638597 -0.4913792088826312 0.3063695673750337 0.31665423713049334
Ni 6.808044165957338 7.5999692342920175 3.001724296979484 -0.07217600794361764 -0.41742194066887467 -0.6312477350772161
P 9.078975414589282 -0.0992708680528826 5.569245899746765 1.0864047284030194 0.9285389943000654 -0.6787259831638375
Ni 1.0599928472112365 4.869109484493379 9.483872921740707 -0.6615764679677446 -0.5410809469831326 0.46861671837513486
P 1.0268852077965733 2.3961770209824715 0.9470327788972883 1.291773650293259 0.2059980708338065 -0.21211035437913148
P 8.731512504921017 6.248439548821286 2.0227336302103724 0.6243075563139571 0.08983100202121949 0.7052212012408886
P 3.0337360939778115 7.243769328259414 4.5112727858440085 -0.018949030298677044 0.16370599493381485 -1.317346099445725
Ni 6.414916508269918 3.3330432821953804 10.679801349301012 -2.202667163597419 -1.2812048736384771 2.1000829756755897
Ni 4.557486849272882 8.75632929246654 12.19124037546395 -0.6370957092175608 1.109489635246941 0.30769162862056687
Ni 2.5012626389561325 2.0274664797302897 12.468946734372231 -0.47512778002077527 -0.1667344973474935 0.2729981910034395
Ni 8.560183724087082 4.249414780660021 6.8349476084856216 -0.35364726941507485 -0.7387812965845212 -0.24744965311037384
Ni 6.94625601269963 0.2611051363483365 12.382168841652659 0.04050747319574314 0.4028949506972932 -0.6337645879617988
Ni 1.5240388902815538 0.9627984099964324 6.673321540954594 0.1802135056705348 0.4052364543462763 0.2080994334475255
Ni 1.0794651954913375 2.5791613267535194 10.767980879309675 -0.22259736995338436 0.16638379887629412 -1.157682907122716
Ni 8.685420201760627 9.329903809108556 10.004160125769525 -1.310804184562149 -0.13867450588648375 -0.44518754081791717
Ni 4.28921458750269 4.245715499220651 12.970936437291645 2.3014785147403782 -0.884839753639902 -1.6849279766640208
Ni 0.002137775706168589 1.4342801946534232 12.508125656792416 -0.829027017545656 0.05755311582412023 0.37781023981452355
Ni 6.084109659755805 7.813449375245409 0.2855445600083351 0.6138357102483557 0.8787223278882544 0.3655789878556543
Ni 1.7801908932654675 8.209263194581014 2.65961883912442 0.15655832814544005 -0.06947429274173841 -0.07169418321119266
Ni 0.18429113735490574 8.340912999373067 7.560895341721748 -0.35355188148779104 0.8367652667301784 1.1419451846724848
Ni 8.740286679993293 3.7903785684837255 0.34007085306341084 1.2995350394062328 0.7005579914372645 -1.0103044457043309
Ni 5.4777899961014755 0.5679558844055858 10.156752696740444 2.88963610349634 -0.7261767204466332 0.14448828435478342
Ni 3.446875191210366 1.1661380583609986 10.231396388658263 -0.8762589539494264 -0.1481420790572868 -0.19037656224646568
Ni 2.2692489120979573 3.0790662336255687 3.1219128355833776 0.8687716444334457 1.1793084558122915 -3.0533978913687543
Ni 2.8087026695341257 4.320732837153202 0.8124876822249256 -3.688349557660118 0.24317005189841348 1.8162059329761173
Ni 6.739914183669445 5.617712063408701 7.457561770359447 -0.5907448898671633 1.015305241353032 -0.32943956182061973
Ni 1.9237007058882634 7.389537747389162 12.30243724355416 0.9672857760509598 -0.8294821028052037 -1.0539052131134172
Ni 3.2675436934937716 6.578400581729915 6.50969618840445 -1.612027688959869 -0.32653190125552156 -0.5984327454297242
Ni 0.1691064235672204 4.040368200627683 2.4494002003244826 0.43414825228462 0.7134513024601649 0.11146837778533707
Ni 0.809456688060658 6.942324364335676 4.8468347911028 1.0335911841464136 0.748122628590105 -2.5185050754742044
Ni 3.0543052141419467 4.7712272411818075 4.5271889907102825 -0.22067649878158768 1.5390386981966526 0.8195324477916595
Ni 7.942152767433742 7.429746520019099 5.79950200318739 -0.8061562835950696 0.019783096164198186 0.5883205966963868
P 6.48000713118426 4.296845517306014 5.668212831862292 3.9218198657722656 -0.7109838147562787 0.47092865433776315
Ni 3.268696233439706 4.733407200536591 8.803157734044014 1.490026529964008 1.3947072511347076 -4.142972275749007
P 3.116709675408103 5.551664088765076 10.594370255276326 -0.8677496309268347 2.1254062849317266 2.8964623823895534
Ni 7.013791135660591 0.6428895702452865 4.855922196789414 0.7849248850201191 -1.1933063127532804 -0.2837641712706919
P 6.038993297678664 8.348283678220858 6.367878006992623 -1.1996168283523403 0.458661664044952 0.2892935857293534
P 8.937547609610753 6.4160783428928365 8.940174285326247 -1.2680775922279002 0.23735190255473965 -0.7220323592609564
P 3.5674643303922413 2.7284803124909036 7.24013325062353 1.6228666885569016 -0.35734323020942327 -0.876014184928472
Ni 4.793934137052111 7.029406192992605 8.054451054746476 1.14530201695986 0.3492224008745018 -0.14082909033564134
