# total energy = -381167.32991828583 ev
CRYSTAL
PRIMVEC
9.30894821622967 0.00000000000000 0.00000000000000

0.00000000000000 9.30894821622967 0.00000000000000

0.00000000000000 0.00000000000000 13.62458667735376

PRIMCOORD
 96 1
Ni 6.0612796942185 6.771347657487553 2.896573303673337 1.1950191816793292 1.1828776612207885 -1.250868427438465
Ni 5.477133875462157 8.410281106360747 8.73240609374072 0.9014429094142218 0.9285217679088847 1.1765653458495156
Ni 1.3367463670981077 2.216572312723468 6.38952252246295 -0.44494482867949176 0.026038333045290643 -0.09267721322076297
Ni 4.726199628877454 8.344224808773536 0.6038025941206543 0.7475639278731577 0.18449362110312742 -0.2214866533877089
Ni 1.5295812324474667 6.559327049561074 12.274594994898926 0.47536869238698776 -0.4480160114056478 -0.708809175702463
Ni 1.9677720498129045 5.2066623807614265 1.6797615655005529 -1.979789800509771 1.6045771462190945 -1.197057038044964
Ni 0.6846377781297153 4.837143675473334 -0.08890976581953806 -2.010446606163679 -0.9343450594588812 -0.6283637286612017
Ni 2.658226058880118 7.461745812864586 0.3956908136119982 -1.9824359798833664 0.4137223803301004 1.4949105975291868
Ni 3.5122662175386568 3.6693361032755494 0.38774469528893696 -0.29235756936665774 0.22671550588681602 0.5011781972509239
Ni 3.696983679915067 6.66380137704434 10.446148113452463 1.1292470203795262 -2.3612818600512555 -1.428770511367004
Ni 3.3167969198024343 3.4999318609570538 7.337712453974825 0.30223163394726016 -0.6352519711406027 -0.26726900182914615
Ni 5.441536456920233 3.7976041027758547 12.6924746178301 1.3656121335409641 -0.6874931878335063 0.044189035812388415
Ni 8.498176196808666 7.882063449372154 3.134472788050273 0.2574782409909695 -0.9536291044994737 -1.1455943513892979
Ni 3.508012028136549 0.17683371400738424 10.01254567673538 1.1111040309219122 1.84460042495841 0.3130968587965382
Ni 3.0695326333718436 9.24871015861374 2.0857201491574626 2.164405034792427 -0.2514760006609476 -0.3163431336479777
Ni 1.1796578634644876 8.818860158981975 12.50410060053652 0.3327907376810397 0.5244752201056516 0.4581050202105336
Ni 3.3995069260118984 1.0636497489588774 5.120937206177033 -0.5895454702424233 -1.0114501292730003 0.5709029154405716
Ni 3.161374717925876 4.079050847597121 3.043977708324435 1.3684336621501594 -1.9064660521149552 1.443715048491978
Ni 9.142662618857047 3.1044598076315975 2.38001138093065 2.692664661641176 0.07051121864668503 1.4978275140656654
Ni 0.1360409713838058 5.247333176161444 3.1474839051779004 0.1927617746491906 1.0011708588341788 0.7403998060245507
Ni 1.4557147271833024 1.3427971835343655 3.40415767661429 -0.2786692732462878 1.5236840701174534 0.5566242940343704
Ni 6.640128721356027 2.9697593248121312 3.768846899491412 1.5199796246826727 0.2771476943954388 0.6129517649815057
Ni 7.842751760433204 2.9378947945639613 0.8195896025549946 -2.306100844003738 0.5231912111869054 -3.5991387057214013
Ni 7.617652080056045 5.419362541918439 1.5425895568905852 -0.35392237745333244 -0.1555910791361643 -0.48683915492043245
P 1.4971581652974877 1.2289208182039908 8.968561081194341 -0.19307673478644813 -2.2071156862870764 -0.21092841825588837
Ni 1.2964665475293566 5.32533285449899 10.321973258547576 0.35400748096797097 0.3512209193617693 -0.3590674119893816
P 6.746045935835632 0.7580174253944699 7.71484029365522 -0.403442338560331 -0.2228097430745066 -0.39450904062644315
Ni 6.2054659954203455 4.506154707461661 5.809006262673524 0.10247080227241706 -1.4903042091054268 0.03752910729370956
P 1.3272605487157279 3.7214662141110026 11.782597525097774 -0.2372760550114817 -0.5067559484490175 -0.006184017323524834
P 5.772180993842459 0.37647807508462466 2.1183647692784926 -1.6959875769122918 0.3278187383877451 0.6186310747544701
P 4.923921692117638 1.6597389484655574 11.766601959124817 -0.8148751515253063 0.8446649811932292 -1.6536859879306036
Ni 9.272736554339867 0.6841751233960506 10.939903112704638 -0.9864425514850689 -0.6496213524883974 -1.1871302658495555
Ni 1.1294919407337274 6.996661443677072 7.174339479301024 0.19292863924435805 -0.3733750868613053 2.2393267238019825
Ni 5.930191083364063 6.70530997779707 11.779667999047788 -0.07899920151303814 -0.5179186499340565 0.3984040048054751
Ni 2.3563740992461177 6.17122768333949 3.9584059459116645 0.48603182852778876 0.45921522255557684 -0.16954779842657253
Ni 5.814378456774085 1.1879521364563428 4.863595983142981 -0.09103582096259806 -0.9339578513227915 0.058240885919764215
Ni 9.172050968840534 9.19222345994418 8.145691005236058 1.6949493654557648 -0.5765752832350005 0.0924085329404086
Ni 8.556617774634555 4.7797260819674285 9.094207680835492 -0.005436597634539024 1.5532301592056863 -2.328927612090266
Ni 6.838344158859474 1.6380118629852096 9.710447029969746 -0.8600039255431446 -0.3182015270129552 0.3615246152806225
Ni 8.623912162354106 4.336834245678437 5.627172712500119 -0.20485881502304074 0.23736784339433958 -0.894933133320162
Ni 7.086725519093681 8.196249765587757 1.2779072971770988 -0.3842246279812996 -0.05022675736603608 -0.8013282660788071
Ni 3.1973165675572486 8.265722447224363 8.242697694342146 -0.8590132794951012 -1.3331871802430395 -2.445697604594175
Ni 3.4000933897587977 4.063113927998853 11.520187579679812 0.08993256059609027 -0.2093307347514653 -1.3869350633884567
Ni 7.8426028172593885 2.041787498250885 6.172714322393136 -0.7710198449032528 -0.20517917447693695 -1.0191865786853094
Ni 1.7503894876290649 7.863352463161572 10.154118956131597 -1.3583587944126607 0.529304780283811 -0.20831154945833155
Ni 3.597266225045536 8.208053512112642 11.906050005609654 -0.09782353330839282 1.0665100463616213 2.2490328953461525
Ni 8.527760034707786 0.07756867402831795 4.670535841243226 0.9145323956083282 1.6961768101049628 1.2446041916963082
Ni 6.923809613784527 6.445981294287418 9.438677867867149 -0.774243494046873 -0.31984523326396525 -0.3320163214088605
Ni 4.458967648207213 2.69786356101179 9.503039936852208 -0.07763805949945339 0.2463188819400403 1.6998295763662017
Ni 4.163157196061106 1.8154590366897467 2.884379512212023 0.47065046097571206 -0.03625126902255047 0.0667995741230527
Ni 4.34370424957068 1.255274451020985 7.786274370712008 0.4522457332162792 -0.8228494279800344 -1.0857141300938977
Ni 5.347395062120423 4.792339706999936 3.490319440876931 -0.49719298735093087 -0.2071689512134561 1.4436772532755073
Ni 4.4773528212250735 8.003182176529311 3.915284104407545 -0.5552790928603856 1.4893698702166156 -0.015768061467534133
Ni 6.583474461615925 4.139670719340062 10.284423753533833 -0.7499463120624053 -0.23527522253136898 -0.7089297604407275
Ni 1.357877679883193 9.078784615186889 6.30036327682727 0.7054528576357206 0.3966158025568008 -1.056567590436929
Ni 5.614710823325937 3.3964815177937697 1.7399960467812465 -0.07395212600743394 -0.1991918465452505 -1.5113052368371263
P 7.738100562931033 8.66194852536726 12.41902891412724 1.3054305789550615 -0.7966084920056344 -0.2547744689065612
Ni 8.447442428227733 0.6614826999704105 0.38866721207175714 -2.097384345797504 -0.8775794725330629 -0.27289483265635583
P 7.593867716987369 3.9527563451498726 12.09658928429258 1.0558381684700722 0.47482927494374993 1.526744454210332
Ni 8.602892556949383 2.113140587456911 8.291610632623183 1.0275827731688045 0.8696900424826569 -0.11677359204833436
P 9.090001897964875 2.637215762423758 4.473374176694525 0.7309157777935154 -1.6666528325039167 -0.05436983300013217
P 9.263083174886942 6.900313828115119 9.323004875502622 -0.7266672869298066 0.16114286219232893 -0.4874014551818057
P 3.441657844201708 7.525484182309291 5.94507516090242 -1.754413582259669 -0.26682728630603725 -0.31145803764153457
Ni 2.770585065627247 5.5687897810489195 8.336258210764075 0.791752963685546 0.582574438241229 0.35314487585735954
Ni 2.0069906492682197 1.6443791836658255 11.14825040960689 1.4869077818293683 0.6399599181392334 -0.12897990430653916
Ni 2.185480425189466 8.449136656829886 3.947370187626766 -1.8240601389132134 0.1693181989142697 1.6658863866515372
Ni 7.463319025138013 1.7303659396992328 12.051165339858175 0.12277248994424662 0.8327188645749465 -0.600705857734617
Ni 8.978843745556635 3.1088908670526108 10.30229972707621 0.08467825417568642 -1.4827778188213947 3.419959811962968
Ni 0.955991761135303 4.58051458698909 7.262122862368582 -0.04690514919197083 -0.19617671386801053 -0.0685594942369529
Ni 4.227007272886173 3.1767531006223346 5.0653348576020045 0.544546794044546 -0.091013709475411 -0.11515971059399523
Ni 5.872652473529431 1.3447241358456046 0.022913045501854357 0.12945812949453833 -0.4417684878340391 2.0368094124279246
Ni 7.680375774129131 1.1612819993949903 2.5899793657429826 0.3569925317382239 -0.5098459002282509 0.4805296677626369
Ni 5.156003083767403 8.608999227075822 6.3723689233135765 0.5016271118628844 0.8373370800732483 0.024313637044700062
Ni 7.65930962398259 8.276148469391453 6.550974130194529 -0.4742150383985188 0.2550068966323415 -0.08656261568259285
Ni 0.09298336162339418 6.791287424882114 5.2537628667960945 -0.10164342127511526 0.24682076127712332 -1.0948173779467467
Ni 7.713348069232555 8.567071723646736 9.771771589103803 -0.2862771675005328 -0.28243902470136517 0.8990831509327937
Ni 1.7318553714373888 3.2357625242983947 9.117355311836107 0.6946912482438422 1.1355783619141928 -0.18229044280422155
Ni 1.7249202049066006 4.199089736744115 4.85107544759411 -0.5519096621675205 -1.2978591943657067 1.1886338469782756
Ni 3.4676298101357994 1.3417359634209296 13.336958247193973 -1.1529127394275822 -0.6671791588665025 0.11248833440941916
Ni 3.9902341712612177 6.003350108552603 1.9800477600198174 1.4713960593470143 1.2111492544719722 -0.7588297305949642
Ni 5.786907750153475 6.563907052155904 5.200777263606039 0.734457986618819 1.029874654526775 0.7982539980288574
Ni 5.937647551003206 9.037741461852333 11.391912133020817 -0.9273048647826483 0.6725602206727579 -0.32198696219731643
Ni -0.3577298530805884 7.2047443664458015 0.16907005107224712 0.771924101885077 0.26006631343311987 -0.051493025672969386
Ni 5.167834757137377 6.286937911497468 7.770196885993453 0.13091980164172937 -0.4161453879492962 -0.8002571445018154
Ni 3.7614481473321226 5.335647169285719 5.925891280114974 -0.5324710938269345 0.7224010554542849 -0.26129761473705965
Ni 8.348963063490544 6.14344047247452 11.409283561561894 0.26946446681856817 -0.24181456631178355 0.6107141339002385
Ni 6.23291808414423 3.2120805596617177 7.737375395853517 -0.13367088202430524 -0.13768720227255 0.5598456291851455
Ni 7.756550898587437 5.925564536027417 7.038038788257877 -0.3899602449134961 0.6787846043159149 0.8351213033688519
P 1.9931389341033705 2.889488263073897 1.6701286657340302 -0.8916516343554127 -1.2402543993680446 0.02135558285764064
Ni 1.0740292263841507 0.2760698962465237 1.2958372626199859 -0.10929065340772792 -0.00124312837848173 -0.439356793068753
P 5.8124701223595725 6.388545082884784 0.5247658989354165 0.14984954866669678 -0.4738748814502807 0.12141211926161026
Ni 0.6411463713755656 1.8931142839378448 12.987501256524004 0.9147074877336118 1.776486502899308 0.4819689713123247
P 1.101034485586588 7.575584942401506 2.1809423128622725 1.1092168412015284 -1.052425543244097 -0.39090435399432033
P 4.715503647207823 4.837590504994782 9.317800242472606 -0.5122424254848856 0.44861070756685323 0.047981412975285104
P 7.733371617162387 6.0368902495061985 4.12417597478906 -1.281541945262922 -0.46972075007259106 0.5743211970935012
Ni 3.969465907462308 5.80032194474524 12.984735567965215 0.19842591491350345 0.8355846161585158 0.23972014567660005
