# total energy = -340891.13559174305 ev
CRYSTAL
PRIMVEC
9.05383240325085 0.00000000000000 0.00000000000000
0.00000000000000 9.05383240325085 0.00000000000000
0.00000000000000 0.00000000000000 13.25119889756203
PRIMCOORD
 96 1
Ni 6.631443443610725 1.6373494032368598 11.500993868665555 -0.034002582197689826 1.343835918206137 0.7279402401049592
Ni 4.637400198987698 0.21675146764822775 6.102031449234341 -0.16154935360212822 0.5847447064196704 -0.1054514821672958
Ni 2.5284819268370016 1.301361676916566 5.038728529513892 -0.17660573371461843 0.6523549493694765 -0.6399054107522142
Ni 3.420248218716378 4.435879993856006 5.172354044274367 1.007424810163691 0.12999471872429869 -0.2872770695199569
Ni 5.16618928968392 4.242571614856691 2.916748293128156 0.13433988306687183 1.7078768721507103 -0.14698328286249523
Ni 7.290426646526989 6.007978425829315 2.727931520462106 -0.9366143151090321 -0.09637111713258241 -0.6064458455421878
Ni 5.067076984644085 4.72837310855564 11.378155090017664 0.2399248054882384 0.26395356430266803 0.1423738091149419
Ni 5.631619660121736 8.026095811230721 12.708880156694457 -0.6529211062855917 0.09620219565488593 -0.4246763082384428
Ni 1.9479682907226223 6.516794761897065 0.3643235060849025 -0.18115067277282348 -0.7583507340760165 -0.372572645564668
Ni 2.5648783337302263 1.6680962186123305 0.1613755115584187 0.2144433733876823 0.5066911566493532 1.301254336090185
Ni 0.6035257623334114 -0.07809926505016133 4.4011476813874015 0.5837700012112269 1.3933790192415874 -0.09201618259799636
Ni 8.697881133387538 2.608662667992822 1.2681359221860293 -0.34797644428254265 -0.30840433841687537 0.12621391152562778
Ni 6.660958937757966 0.7582630038584688 4.7445387265924195 0.4613052723153862 -0.2102910417822056 -1.0614308320665011
Ni 0.6499311811222732 7.204188891388191 2.427844956393978 0.5207602331479096 0.54994122558724 -0.2635923243085073
Ni 7.52499334050452 3.6713834262796308 3.870847506036833 0.014063934292233841 1.09028915105909 0.047515014861827846
Ni 7.72665840695718 4.006293746525224 12.535104516061171 0.1571928764056454 -0.5381496322689505 -0.3600431456390896
Ni 7.797540862073364 9.030917310293109 6.785713507375659 0.7765729135109981 -1.2267159985619775 -0.3507709763085443
Ni 7.140422748664563 0.538708469649509 0.6724082258369798 -0.6881156519088537 1.5957176389459358 -1.300060830002716
Ni 1.8359633281166303 6.486292400000728 9.198625072344344 0.3992812652041059 1.2597310200354177 1.1088951961960516
Ni 9.069042999205388 5.006986697940022 1.505124516373495 0.45233212228249847 -0.666066128307982 -1.344863588139703
Ni 6.651588221057845 2.0124225247208485 6.9417200962256995 -1.281620363909341 1.257732244437834 0.3471045832005506
Ni 3.518618109486251 4.408157158555744 0.23701485030189118 -0.04932121483263119 0.030109674901186854 1.1235602544073942
Ni 6.012613988100294 5.704403420075625 4.886816989130968 -0.21866538188882986 -0.006254979770776324 -0.7612491386697341
Ni 5.278963828057554 2.527902481553129 9.802614390904852 -0.3340251243087731 0.7078285569567487 -1.2634444643312628
P 0.31579043664432216 5.576726273307402 12.341808812427441 -0.04192697925108908 0.38646123062130217 0.22825276846694884
P 4.007887221055873 6.433915978638214 12.666264672215423 0.13117254108248377 -0.7366729919922668 -0.2614752779655045
P 2.20421891368256 8.36416591903993 1.4129755139559441 1.081743318371608 1.1054799998669154 0.9196877145570226
P 6.238860209954721 7.7761647633980155 5.551311259926812 1.4890199430763646 -0.22779074122886578 2.119696893251775
P 4.706915525387247 1.323253844047864 12.710391241348805 0.1955107981492375 -0.6792674574896044 0.13647646979390043
P 4.186908652274714 6.195727751636482 7.9918641757027125 -0.30606052077504714 -1.3522701650164195 1.2430340189957108
P 4.498369546188603 0.939742550617486 3.9226462928819865 0.6542382824351184 -2.1476136742667014 -0.16556670229163742
P 0.31723814447074666 5.473222859475722 3.6428738129298606 -1.2340030191416942 -0.5188876987155452 -0.09160352054060998
Ni 1.405553182022843 1.359686466271331 2.3805911934941966 0.07525104732451555 -0.5710165582003005 0.9149170326412567
Ni 1.723496620050053 6.539320697307599 4.827040870416754 1.0093050579055391 -1.3576355430933909 -0.5886113884639282
Ni 5.965289605306541 5.769536691515889 9.326326664460481 -0.49600745168326194 0.18181041784400945 -0.413281693248256
Ni 8.693897447060916 2.5079659422548994 10.058680315680554 -0.301767549826648 -0.5456125163048989 1.2310513927125377
Ni 2.2633947632980123 5.436482406945199 7.123168859954012 0.012684280335887832 -0.6142105770892712 -0.7977441482719745
Ni 0.34449742354391133 9.088508739210472 9.347899231302392 1.0102098291079957 0.35948444492214215 0.5785923136650294
Ni 1.6156473665893323 1.3076631443786766 11.188742575169133 -0.9860473729291791 -0.872753254789013 0.8658251602106122
Ni 4.419112295953953 6.59398773830792 1.6257496329603425 -0.49129333403704417 0.44467152041344704 0.3136095367668986
Ni 5.880600055535588 7.763444128650508 7.944279042531217 -0.9106533722688961 0.6279636650093056 -0.4779318251284736
Ni 5.15019116754951 2.6894409620976365 4.999863142481417 0.8865983882022214 0.7584594917397389 0.42748241022867023
Ni 0.5659152364938227 7.426822634050978 6.667035870172576 -0.890376624297731 1.1290611296209652 0.8782343325082423
Ni 5.210716038216477 4.060336073078871 7.601153274620222 1.1485932861166217 0.6757640723220362 -0.626025053225696
Ni 8.171943999947876 7.138765897305991 9.132289451940045 -0.2481343378822243 0.5250827717826635 -0.3246475397486151
Ni 4.712474578579396 0.2972916459567009 10.733709626043801 -0.3724080949623457 0.2913494398171176 -0.6565461046326887
Ni 8.274704999509593 7.2900282778943275 4.5132259800371335 -1.782684404179904 -1.430427844464769 1.614339624922497
Ni 7.3050576399447635 6.187135664536563 6.918371167435417 0.3825413267416057 -0.3054442273472869 -0.265157354802782
Ni 2.338360496898983 5.308135276567497 2.511102189853858 0.6912760519147063 0.047825861234027316 0.6516751496936326
Ni 2.4910443291993185 5.1888419787503 11.414291651916404 -1.003052392127608 0.20895252547644017 -0.6995328926068597
Ni 1.330406371770662 3.4952320599824698 3.924435330195942 -0.623565793051926 -0.47832263280898907 -0.8745836231295325
Ni 3.657051209336353 2.5498399178472297 3.096274928203872 -2.493976237094905 1.4493637621373234 -1.4572809601018708
Ni 1.1086961200290464 3.253186900309963 8.220526865467539 0.23873155651108566 0.5506295099035162 -0.871229876165951
Ni 3.653004146181808 2.4888170863894343 6.830025680076533 -0.40477442710819317 -0.2518457252955405 1.1102823063515652
Ni 4.018217644007408 6.93653949323458 5.955645462863092 -0.0354187458189261 0.06713613152686503 -0.6154375075178368
Ni 0.6627043280986319 7.6494111075509625 11.574233036397239 1.854103222242523 -1.8000303516575191 -1.0025628540856992
P 0.24031587765345086 5.798056264081477 7.903280572547487 -0.08637158271770931 -1.9181735703598706 0.9593035291764318
P 8.508311987235711 1.7530211680298555 7.987345407871765 0.5349676349965432 -0.2296751027357722 0.17102798251652482
P 1.9115990453270786 3.2226935922461863 10.354725248893676 -0.5295266664866299 1.059788925587704 -0.997464099406553
P 4.0821829710473665 5.997620841380099 3.8685288195180876 -0.6985448176619776 0.4339500202308849 -1.2439737572011609
P 6.887232321110076 3.969969770292484 10.377570784593594 -0.03362308737108403 -0.06247909237082788 0.39624582081189175
P 6.400471121159713 7.92596042311155 10.373250295695723 -1.3180282131144139 -1.4721247099829229 -0.1854693547528354
P 2.220325681807696 8.371544792576742 5.772990728637721 1.2820088575970112 1.1623548586770884 1.0454946204522189
P 6.903891373021404 4.047497738508077 1.5653379352003813 1.0367009334199888 0.7578529685039916 0.4766691563659662
Ni 5.566984349472299 3.1761840543828783 0.23539693042332918 -0.6573241204492938 -0.7507284416440683 -0.7875911189983726
Ni 1.3532944604836155 0.8970410547291262 7.345616999049308 0.31479018733856107 -0.15534785277710667 -1.7854362558934285
Ni 7.019997721777303 0.47378886865767295 9.060560463479453 -0.9070417436582379 1.2293305533666892 0.7865243682967551
Ni 2.9062078212612175 1.4585271563343503 9.096338493608796 0.471632108162691 0.6851172314021621 0.22867751470919329
Ni 5.991400858411033 2.0478501715300994 2.508743666471847 0.889294446977146 -0.8024693216617858 -0.20824392944518974
Ni 3.953392202874201 6.998648784599635 10.553466832812548 0.7845983549186358 -0.2246812490656066 -0.6586641794169559
Ni 8.049382268576336 7.284043694571834 0.3730767514043975 0.8053648980420258 -0.9226809928573916 -0.2168195869293427
Ni 7.748604897083841 4.149661185120801 8.383026863029972 -0.6990487538815897 -0.7226059723762394 -2.0765756365822687
Ni 2.8320659864232525 8.520969245155294 12.475301235849276 1.1214066983995008 -0.3713932805445862 -0.5215333638685083
Ni 0.03329818539102067 4.941427896369414 10.07715285025375 1.6771185079219308 -0.15626265128189218 0.9737873246149035
Ni 8.671996226097058 2.087207181670609 5.413591602082477 0.9475106503065617 0.3010764372968944 0.5566250653653189
Ni 3.6180925678285054 2.8944378389325625 11.607546613303612 0.34385856545942717 -0.6054174042776734 -0.27697131671857456
Ni 1.066776875273914 3.4189444668276656 12.529750984868146 0.15430707021741813 0.3428617487637966 -0.04780015020241445
Ni 3.4135755441192868 8.284437869512134 8.11971243990633 -0.47716820748957184 -0.23536906779675593 -0.03202231854286743
Ni 5.378637470716139 7.8921262508329475 3.6186113524342227 0.5743615634131334 0.1273102299136001 -0.6753388118591596
Ni 3.039281052235501 8.082039442622074 3.5770687471136076 -0.5100297341042829 0.992835085274974 -0.7136950430398548
Ni 3.3329058960051983 4.155310776638555 8.955213689338455 0.22718113266932488 0.491736849332366 0.9534948929144547
Ni 7.413676469173127 6.137900923072545 11.205704025087982 -0.2623977897797739 0.468910852576786 1.7594012652822473
Ni 0.5768866707906412 0.08330612415570704 0.2928643218346146 -0.5237658527434529 0.20611428469669665 0.11104491709467328
Ni 4.26016321152175 0.208595775277726 1.2998632676278026 0.49982425432619076 -0.054139205046564824 1.1831489126043044
Ni 6.159575798222391 5.67572087852395 0.18166062341022735 -0.3234908004363526 0.13006645250249857 0.521850895108927
Ni 7.876888650633619 8.787468806573722 11.587007088756852 -0.023565703135081995 0.1051977142852769 0.04399954550940164
Ni 0.15147695642002 4.8742575126030365 5.811751091212494 -0.8053764680062516 -0.9222953273831987 0.14105226209004096
Ni 7.947092068307765 8.671787987948166 2.604191885474446 0.19296900556399027 1.082405377435639 1.1450287086938153
P 8.137602813045884 1.7080055125390312 3.2593978294464683 1.1185206351009573 -1.1964559141258555 0.20889236166246605
P 2.040109144690869 3.3908142090621802 1.576296694131615 -0.6289771938754846 -0.8239490888021165 -0.49813581088017433
P 4.932319740813547 0.9783028234926714 8.201710285257045 -0.045330091395367096 0.5970590050106491 -0.1257428854264802
P 8.691570612092868 1.6612243596989082 12.392216930591301 -0.4338970555057624 0.8019910964737865 -0.04816318996878802
P 6.322309384664885 7.784494289353679 1.6063898227962172 -0.8396983812165731 -0.7164116706400694 -0.9858514548682893
P 1.803976137680371 3.328569110208717 5.9888657852940925 -0.5499301698436464 -0.9905048944799005 1.4029394092365128
P 6.864398555392485 4.148330271734408 6.032754238631134 0.4028882658290739 -1.3714991884493606 0.6650579987584417
P 2.5234389421008006 8.618388483506315 10.192160063736807 -1.163839413642415 -0.5507688636948579 -0.23278793733314102
