# total energy = -340869.1171755843 ev
CRYSTAL
PRIMVEC
9.26299009170113 0.00000000000000 0.00000000000000
0.00000000000000 9.26299009170113 0.00000000000000
0.00000000000000 0.00000000000000 13.55732231659038
PRIMCOORD
 96 1
Ni 6.947223863099406 0.13576115816941356 9.544490261112996 0.2000760489224167 -1.7257714930429437 -1.839071010499749
Ni 3.2852582958969903 1.8209833860558602 8.13454186045548 1.9961145058117233 0.5675270569898032 -0.8359209164520119
Ni 8.5824750396307 0.0963610308334829 4.673032951446537 -0.7003343054622326 -1.2428548131053692 -0.8398984130425211
Ni 1.1651359155572358 1.672914493269954 8.151583909185382 -2.504084014952868 -1.9706585276324644 1.580930196224116
Ni 5.545928021262741 4.061783998188845 0.895959914547947 -1.0727249169230815 0.14170712206522046 -0.57803772671314
Ni 5.549540587305063 7.951961846377583 12.77651508062892 -0.23115374416382772 -1.1446839237598865 0.7580540287712042
Ni 6.599963636533824 1.6936821165183746 4.516960835428412 0.2429759336097364 -0.1516853163238549 -1.1640057640169503
Ni 6.603668832474666 5.341252997490619 12.559340578350367 -0.03499040003225587 0.46022206655353637 -0.22611438196770736
Ni 4.821515899878833 6.783333783646103 10.82732450462804 0.3622908040226857 -0.5831346816200731 -0.3526255130187798
Ni 4.777183230446655 3.7720469386048374 8.641789668849672 0.7307180599604125 0.7144128950424857 -2.0969649988718984
Ni 2.5836053405797044 6.068147600154892 5.884975681025447 -1.3754707715025987 1.6664684844072526 -1.1909576100154458
Ni 2.763640811345226 8.828083215559277 7.277787550456568 0.38284111737021165 0.10561500432835359 -0.7168184191601847
Ni 7.525095485023006 8.446568452520607 11.534393530111851 -0.1462122090244256 -0.8031702043835524 -0.05598962799174229
Ni 0.11602172679457677 1.7879423012534 0.595713992976726 0.3319379027624412 -0.33952728507392493 2.2985014343899257
Ni 1.6920333043246996 6.7882987462068325 7.902427081844465 1.1130871227902122 -1.6923389244161113 1.470645554334235
Ni 8.885504489652478 6.416287810756424 12.903533828975917 -0.7666659388099313 -0.09371285357412892 1.1119699784666335
Ni 6.783880300047378 1.5370820100786793 0.5424369805433561 -0.2391537316501688 -2.410592533360926 0.13095939663041317
Ni 0.17666837395428178 2.2407728231634283 3.3364159362521986 -1.6091154004090804 -0.023681659887655988 0.8751893750343315
Ni 1.5330803984625696 6.14860593001028 11.665764031091367 1.496748422068874 1.1215756198771973 -2.4253213549306682
Ni 8.124031145870294 7.063502174712886 5.083901203027542 -0.5161471598559305 -0.3972578070161739 0.3465397118360161
Ni 3.1367818315575913 4.296934258574395 1.620385004117649 0.15218745277125403 0.5865233955866479 -0.25323746343674447
Ni 5.5373134407002835 7.9637628954491655 1.7362863120441485 0.5118325916409766 -0.9921784255275817 0.555419732203308
Ni 6.751154156899889 5.737857170998367 2.6951817585442557 -0.5976791550931513 0.3216969417607234 0.6367290699067615
Ni 6.605225014769819 6.807000722718233 8.763886990688244 0.3997823732102405 2.7401192555787133 0.9769569805921369
P 4.7305533395311565 4.416287882818773 11.090675937618323 1.7148934126778597 0.8244589385589995 0.606980120779103
P 9.169479969548476 0.721543373426712 10.041487644936847 -0.04890443901018674 -1.3163680518031715 0.2655875003616652
P 4.8467575472258195 0.6745059109577204 5.329559399101321 -0.090431868830012 -0.5250074384600377 -0.0944805849780889
P 8.171161238237808 5.982251895256318 10.910837768536652 -0.7029331765376604 0.6422903660446229 -0.4043697354706068
P 7.288537250179937 6.663192805264296 0.8749912844197358 -0.42743638748208324 1.5059033490952647 -1.9626102034066908
P 8.114082694769133 3.649201167186215 13.494009601191278 0.07788437118230458 -0.5458973945351695 -1.0122286593102372
P 8.723550375078267 1.869901235464829 5.59764236730806 -1.3446717838438713 2.521524836137135 1.086987854599999
P 7.181660873266344 3.4056679009845094 8.160572714537865 -1.135071340370787 -0.8386617124219428 -0.10157323015881214
Ni 3.8352112664063447 3.1354664869985927 12.61038335763141 -0.1691042831312507 0.08919773931259477 -0.23063232444271892
Ni 5.008480087053729 3.3358620094590425 3.2401595772040443 -0.12497463980188799 0.2509103579654646 -0.7716865319529742
Ni 0.8435462127687934 8.993668422155514 2.903260004788042 0.9542538825676662 0.8172135698504959 0.02173867722867224
Ni 8.407756525040286 8.706821415405363 0.19904312594204257 -0.11493345351580204 -0.0965940317766659 1.6806080091324282
Ni 4.4043108369400015 6.238734821271266 8.119954504036384 -0.06132903792678469 0.25359690365869225 -0.34809291525574887
Ni 8.706024798278083 7.626506697923857 9.454672606311041 0.7831281981310126 0.5991706520370133 0.2672216935309785
Ni 6.347176643469865 8.576037261683485 4.123323597570293 -1.5325973134466833 0.03783815389369612 0.4432556139025269
Ni 0.2026103033340884 5.307785815154961 5.6529285222403525 0.6955708226353181 -0.513948866653031 -0.5908978705052598
Ni 4.785158664709318 5.099220335644954 4.909106731920342 0.9941980270607716 1.0851356318826086 -1.2772865124206778
Ni 4.945917853592609 8.515031210517519 7.844171212365588 0.9663534940446776 0.16044609323562048 -0.3691654196553319
Ni 6.239753750154999 2.8864865827638493 12.345243241300683 -0.09433814586295365 0.8481735085671199 -0.08592215388511654
Ni 8.133053297986246 1.368375175902282 7.668103080153723 0.13871667197832885 -0.08828936856571247 -0.35554320088620706
Ni 3.7234255048711358 9.219407484851324 11.059209561090722 0.9352894256500215 0.19901058377237985 -0.18462269048182398
Ni 6.505129146427968 2.162593188811658 10.233039790985494 -0.34246836998011987 1.524652861788626 -0.6002852252574307
Ni 5.872994929950734 1.650507320817711 7.136059174224428 -1.3030114279906078 -0.35801917323052534 0.14524521712546598
Ni 2.7125091073616043 7.804411681023395 12.779009603796093 0.9592598204226898 0.6758052099726167 0.899190108824303
Ni 4.888672576306597 1.0184194192897371 2.745845681540347 0.07840116291772305 -0.4275235478792508 -0.42229649515235657
Ni 1.6369555666640805 3.4891367025418316 13.287165185195791 -0.6842957639421311 -0.4240358464409665 0.14204676479282635
Ni 2.386674176323942 1.1577903646045162 12.863959557430766 -0.6885015744933626 -0.8971586802165711 0.951851957994393
Ni 0.9318938310812197 6.916998727211986 1.5867622035524764 -0.0877743766025069 -0.4904803512174456 -0.22981162831363647
Ni 4.091935030157448 2.859614649202891 5.432649065763372 0.13878686309463195 -0.041292945211515976 0.701750983304101
Ni 1.8775895170420767 2.8018321185054575 6.41996151253177 0.5402707923770116 3.741788908426181 -1.4201521735703735
Ni 4.296674894858535 0.22396242124217675 0.4736574282935025 0.01689034799743543 0.7285002263734872 -0.7328237934495057
Ni 3.8892793381730844 5.699851123635178 12.836452182765955 0.45438283416394004 -0.6203627127335961 0.2649886904354017
P 2.038923011296198 3.384548284121709 3.939744106887355 0.4752205968448976 0.8599936411304996 0.9912309740126476
P 7.965189395886391 0.7276912197915545 2.3930702708168208 -0.4379727682370328 0.47840747921331156 -0.39546574811275764
P 7.010397453890765 3.9687835800737057 3.831191128810531 -0.31562708141755963 -0.6112921178908957 1.2291798867214379
P 1.7931944164995437 5.582377886330777 0.04581660040648413 0.626394777860289 0.028624091494595865 2.05507581483728
P 1.8319229770711967 3.664586993330562 8.598257321740716 -0.3142551407706975 0.09560158595640954 0.911578969406959
P 3.1824020565792113 7.300690292865899 9.558061467545315 -0.32287013613321813 0.8828461202486408 0.08646517087278012
P 3.9182817594000268 2.31117154603943 0.9936863100856302 0.7718307708403224 -0.03058301499317959 0.9321984454295235
P 5.890724292527664 0.63288544495424 11.988116077944637 0.17971239766440017 0.6811392205910205 0.0604404646742443
Ni 8.73878799338498 2.72265208124966 9.6828700665136 0.42293258607445866 1.6227571595622312 0.310281243724614
Ni 1.2209361664263192 0.8327316721164602 5.777507399060304 1.144144763426965 -1.692941076776484 -0.48326197909213553
Ni 6.987777232671925 3.450778661564263 5.867066616445386 1.2882558669479878 0.2516685762877278 0.9311247527493707
Ni 6.627947128877034 4.799062412477329 9.7265246850886 0.12829624797595324 -0.6889571739735426 1.9328041757888519
Ni 9.09228221212103 4.270942309049387 7.711811424069866 -0.04611453496987542 -0.25317987072593173 -1.1805204738425217
Ni 0.5522761283642625 5.383788646891487 9.586585918495889 0.5921744232248383 0.4076157532117302 -0.998151355281565
Ni 3.061742350765685 8.440010255705317 2.276464049362576 0.4921718799872556 -0.5258145077423654 0.23727502657021718
Ni 6.615571774434621 5.4130689578139926 7.073410794957684 0.2309655394124216 -0.15125337099275887 -0.7939718257137358
Ni 2.2953040444227732 5.632555502359632 3.455679709495012 0.16100505106288399 0.44706676011850105 0.6161149932008357
Ni 2.1788126840426947 2.052224664723821 2.3484810165657404 0.9782348188632959 -0.6397547441069626 -2.529957283175204
Ni 0.5264064503053023 4.541755080365543 2.028500295114609 0.7571824247995282 -2.1044487088434534 -1.3411450016375355
Ni 3.1128647917594554 5.0979420430453635 9.848634975112969 -1.3342783564246892 -0.5438677656996505 0.0736459076209248
Ni 7.370588814289888 3.2072546583524097 1.9445127661255683 1.8787307909832158 -0.25939062752233394 0.7025973904647964
Ni 0.26633504202164804 4.322666844383543 11.50464821709877 -1.5340839252945386 -2.4815863480709845 1.6742201033282134
Ni 4.092185130883455 2.4485972634852673 10.300798561753645 -0.8819794013729714 -0.7750040263619814 1.8926304317834437
Ni 0.5286240100758964 8.525433548121434 7.2552960847966705 -2.8264455868807836 0.7979248968242129 -0.21080706218667564
Ni 7.105333836884995 8.53482621983147 6.75160063301076 0.33196772755911214 -0.44284038074197923 0.17828389274798975
Ni 1.7807171691687576 8.95916378495642 9.558779349258854 -0.10638376417357809 -0.0014696425669910175 -0.044408350912046105
Ni 8.075706127811861 7.825216356231223 2.774397921460477 -0.2269898425941252 -0.5746009331174491 -1.4605292918358397
Ni 8.69633571089278 1.6293877039549103 12.05377400261433 -0.5833912777155695 0.2977723126243259 -1.4266064138361496
Ni 1.8098400092637772 2.300556159668917 10.939742002071162 -0.8956859523257865 0.3723949823362232 -1.0322657804667705
Ni 2.981469280707339 1.0937831047264672 4.273119111664632 0.07513766167510286 -1.031664913657978 0.2111878425648621
Ni 3.8568773996704193 7.855617488925834 4.751814680138694 1.0537797432791465 0.21421325965474722 0.041433584554438324
Ni 0.5796176955107223 8.49136427144539 11.779035576198854 0.7974626124758137 0.8564689158066928 -0.13113577430727738
P 1.4199515033988055 8.816263640507989 0.6950419594598383 0.1499135691354128 1.399740442683241 -0.6041429084406241
P 4.559206553246909 6.196264012799364 2.734932026896596 -1.7957957447508817 -0.359112149184388 -0.08899770748664672
P 5.9565193094471685 6.851314866170706 5.472385439630934 0.05033885746386814 0.9944911328211583 0.41965622931603214
P 9.040353891010126 5.879154818202383 3.3445367994555393 -0.27849958043764295 1.0367721529775564 1.6422160396177912
P 1.6708858984923427 7.922876058241973 4.785273525783484 -0.1667586657172096 0.9017758672736081 -0.05677510000751512
P 3.761199977488022 4.723865460857936 6.739181742516043 1.111739350513066 -2.9066457506804584 1.2041023749275197
P 4.932143787682527 0.9362752252812656 9.075501379704955 0.5932913104381008 -0.31653185262001615 0.7721907252829024
P 8.781703425369784 6.570266491067974 7.493782874126949 -0.8461153404865105 -0.4129322803286372 -0.7776967427027962
