# total energy = -340886.6086555821 ev
CRYSTAL
PRIMVEC
9.13701055930019 0.00000000000000 0.00000000000000
0.00000000000000 9.13701055930019 0.00000000000000
0.00000000000000 0.00000000000000 13.37293853671841
PRIMCOORD
 96 1
Ni 6.053516321709573 1.9878937440024984 11.485763424819183 0.37934544551212734 0.2449058036425976 -0.07051944617680113
Ni 4.620796487937746 0.24963775292964707 6.101175883486934 -0.0940586669493219 1.3804605114077064 -0.681506117012136
Ni 2.695938981105165 1.5481385535762062 4.953777484431011 0.15062087961508253 -0.40289803602108676 -0.4561031592891564
Ni 3.0776284682099857 3.9927183689262695 4.809590886277672 1.0342437301287477 1.0233185985758118 -0.4467240320671016
Ni 4.996930672506066 4.869999319155654 2.5078536147995023 0.3133639964149958 -0.6038058368161795 0.7281009340525396
Ni 7.1965563666373535 6.045640218442364 2.5366059602301876 0.06421638677690875 -0.21240474569109868 -0.9073091383870117
Ni 4.910531098846298 4.449276522123323 11.394144790618544 1.2945776954009576 0.7142691703757699 -0.2343596526956351
Ni 5.605007874983993 7.760492670178062 12.880025580340803 -0.9169389481672918 1.0230995405864702 -0.36876458467248746
Ni 1.8243321145520413 6.225136794642255 0.5352661912067803 1.258091941770098 0.8026624115091983 -1.151150762431153
Ni 2.7139206182627813 1.7246656012820794 0.2664425431025581 -0.00025582476454794653 0.2405390420334696 0.6948925656213709
Ni 0.6601408034371838 -0.2929928689422955 4.565106407411488 0.21325475239621983 0.07172452222849582 0.8179602182085333
Ni 8.740035044730641 2.1126870368372197 1.4425786683719646 0.2565708986853517 1.0879221934888101 -0.07672248966371949
Ni 7.167857015869023 0.7111445111493451 4.774219690259091 0.4889577439253321 0.7309833978066572 0.7966311177134539
Ni 0.48587059738676375 7.034876961401565 2.337108467496749 1.0935205135121941 -1.6847014624755117 0.6875649216117061
Ni 7.322309045600911 3.6367404300742603 3.8375783222848443 1.3738594611514208 -0.0993350848569128 -0.9628431668985741
Ni 7.613158371821064 3.5749742373987066 12.781226169391095 0.16853812621513556 -0.058917343161498534 0.24398971958623142
Ni 8.34834966786442 9.51893780020593 7.046736801356132 0.11083125842197042 -1.1229922977190658 -0.5014077967632268
Ni 6.8867568801199965 0.8949135535763193 0.1642542148653695 0.7993922253983587 -0.9805428981711823 -0.25446902185100045
Ni 2.16095786463381 6.254603654313654 9.43343182619759 -0.0938367807465029 1.775920088872877 -0.36490638726866187
Ni 9.267852744773352 4.773000813024931 1.1964376494566569 -0.9783152943922441 -0.6433537743121307 0.4823919177823563
Ni 6.626315525678578 1.9299376848100371 6.9809009840921625 -0.9678164517434493 0.6594488801017804 0.543642794173038
Ni 3.7612870236187095 4.0354704422293635 0.11209193419000414 -1.1726179311659934 0.42128836560281635 1.3492645454208763
Ni 6.06850101934092 5.693655153288464 4.803974365769141 -0.5486883270167454 -0.5633713829502168 0.20565919943714905
Ni 5.541871130695817 2.9784827645528207 9.311524001357979 -0.6164389521991578 -0.67932684997263 -0.7012023098894827
P -0.3399872563369961 5.667852234928145 12.534080992994271 0.9422128922427321 0.7901285407082457 1.01299356250072
P 3.973165165919511 6.177624338737982 12.906263420412863 -0.08089744697701552 0.6902496675327209 0.24997756173855012
P 2.0993287271195182 8.419910736064857 1.6715375385703521 1.4911537015899157 -1.7517018397554607 -0.009643179516718876
P 7.032748037896624 8.011678232728897 5.966644364593987 -1.1755356190334205 0.34175925972823723 1.9381389577382042
P 4.803253455620902 1.0706840567920242 12.947505145838845 -1.4596656582839636 -0.6911258994900872 -0.22334787496616373
P 4.275435755578191 6.504857241767907 8.192209118545781 -1.2665974081379476 -0.7818922688413825 0.904218672387146
P 4.942547184517176 1.1069671264835368 3.889197864521611 -0.9506597374585047 -1.5970826376142624 -1.2312115724394859
P -0.0016601948534242822 5.338618326543791 3.7837796029840067 0.38477458694749866 0.4708178397915117 0.043492781076312194
Ni 1.6301340880540793 1.1334096355964145 2.5652239916028363 0.5580021482185035 0.744583247978279 0.2428715468213882
Ni 1.829366607475744 6.50333136097252 5.032664607851455 0.32224278696186437 0.3384559063866171 -0.7981786647062318
Ni 6.08061669559651 5.635790464203512 9.2998222316894 0.26475446293740856 1.340678603524078 1.4213881028600037
Ni 8.491069775792255 2.313865739548809 10.381800547470515 0.15233117743796992 1.1461414821420197 1.365733746720493
Ni 2.79342174880568 5.07859727459691 6.898550933597157 0.32552222904408457 0.9927862343149096 0.18037214273558613
Ni 0.5557943132606512 0.24168855357643226 9.142222501753855 -0.03704985366444587 0.3112793459718252 1.5207087895392133
Ni 1.4126823691952763 1.1526156321946415 11.440709738507957 0.25248952952712644 -0.8477045393505014 -0.6531807877048815
Ni 4.004724401052849 7.069140751717146 1.6794273473536865 0.43872892967676697 -0.7953273113003657 -0.029726580530155252
Ni 5.741661007773281 8.167025689514366 7.838320814052485 0.7005860164617225 -0.8317883823408772 0.48553046341133793
Ni 5.360729892560779 2.7473620776107883 4.956894118798116 -0.43796351226565217 1.6190228893307794 0.38148151801852365
Ni 0.9444562532694241 7.965289629146977 7.3580585138645755 -0.8341126595986798 -2.7721109779939614 0.08900053570012414
Ni 5.470830872108179 4.879565769411763 7.370629213255556 -1.580364296418317 -1.4908513398581487 -2.5615090898395567
Ni 7.915885812017284 7.404998992895847 8.892469622488747 0.3423822380242168 0.5475251599465796 0.9460350942022997
Ni 4.528604049461955 0.33963913622738984 10.359413957429927 -0.2645490317948218 0.6650957939749126 -0.32327585621206906
Ni 7.981379905079174 7.14446626834692 4.400592701440795 1.6297706147655868 -0.12903621146577132 -0.10950071253600498
Ni 7.561607357164928 6.063356882288208 7.007259432706132 -0.3215406186885172 0.7615885242870238 -0.8435815183210633
Ni 2.636776836493595 5.19725963321783 2.6957032462277937 -1.504654564289828 -0.15061933695318577 -0.15432455371891485
Ni 2.6581483046397665 5.229421911060722 11.56031686404051 -1.8392450741837676 0.27119481924611355 -0.15238259950119562
Ni 0.9658459954370974 3.309653719216349 3.624548002928364 0.1026291822271523 1.3751257294583543 0.16996046048395888
Ni 3.6682722541753456 2.7590939994148433 2.8306367935937766 0.10743560247686015 -0.482387289796666 -0.5294323070006108
Ni 1.1792957035870404 3.765398678456579 8.122843674028768 -1.1639345444593827 -0.14077458294862205 1.954955000854278
Ni 4.028489766015736 2.763881793048274 6.982479859549905 -0.4780182141946928 -0.20387151140910695 0.614087935468478
Ni 4.124985736555162 7.036092183831425 6.050037861716735 0.21123386531144908 -0.09192130889134492 0.5672259808096166
Ni 0.8727919368475051 7.46287281899155 11.852823644010863 0.7460132955565861 -0.54427888509514 -0.40968214882245574
P 9.517019027948256 5.908831756470314 8.322742281534168 -1.0144243814099756 0.7037065643685753 -1.835824478537993
P 8.635434545655235 2.125332659716357 8.277702300739069 0.4826323159279365 -1.707404560499982 -0.8710627544604675
P 1.7660105749295472 3.663228624240892 10.26556223780179 0.2714483300178164 -0.5202575824798782 0.410956387549189
P 4.013907096857425 6.301467382454619 4.053578170135341 -0.05808070619281609 -0.7939923945390261 -1.2497499975633057
P 6.9385637310771555 3.95636220314875 10.711055470979597 -0.2637159943705652 0.5372109225047651 -0.936476246869271
P 6.170497470352342 8.017736070856692 10.359012842657966 1.4495776779203422 -0.8862572028127188 0.2616367432440333
P 2.426488534063436 8.518508219076972 5.990287293612813 0.3176356272071562 0.4638951445297495 -0.9040101559207657
P 7.003198945128466 3.9889539204969306 1.5926367096337823 0.9493243064765328 0.6990199575261833 0.8147154860189905
Ni 5.53289858613851 2.744392549116772 0.868408912790336 -1.2967230238787346 -0.5841705790837552 0.15903841425481643
Ni 1.732870636936317 1.0740190657160742 7.219047118600501 -0.813782946902392 1.9638649017493985 -1.0808622013182352
Ni 7.075783358532994 0.6752040793609884 9.354785006159894 -1.1027422892207783 -0.03972405806249933 -0.3348964711701329
Ni 2.685586747924484 1.8401300061402117 9.26481194759548 0.4257386880646861 0.24298853201522672 0.3308104740262174
Ni 6.795103525278505 1.108748843579947 2.4904156297815594 -2.87630441938444 1.8082612242077438 0.24618235636217603
Ni 4.167582480675493 7.006031418461221 10.6768876192769 0.6633438442808124 -0.1707425900656221 0.07356774608482168
Ni 7.945078561366159 7.646015062481018 0.3307634439840418 -0.05489048139029256 -1.4792235258112332 0.15806268060510842
Ni 7.554882517252324 3.945918599860561 8.193265356988576 1.1104779673021392 0.39210968715633115 0.6561460409807927
Ni 3.0940659505507138 8.78617694902229 12.415703709108776 0.3355762708459769 -0.6902113580956177 0.33508493303185516
Ni -0.08076752023296249 5.254201484216949 10.33926045281684 0.1670970228932348 -0.9926764482099227 0.26912996629728486
Ni 8.80643370185686 2.5435427787922116 5.780814012541627 -0.03587305974752532 0.08060999764358376 0.1788168824333243
Ni 3.3500393067349803 2.8122805389953762 11.51725595977404 0.16314909398908028 -1.5050934515994594 -0.5350067157645948
Ni 1.0084336025466767 3.3279368777287432 12.471201912409265 0.09963153305140907 1.1105103632019713 0.23718478084925607
Ni 3.200192330421506 8.700024074652793 8.188009748404703 0.994890682252422 -1.2676464182277525 0.13670966885062907
Ni 5.606360152575116 8.099028055506752 4.216982643000884 -0.3244721905130154 -0.606828168582271 -1.2688712917737888
Ni 3.0253464926937843 8.444781679328592 3.824553513459548 0.6960973845627496 -0.4736319122015391 -0.16282127833601637
Ni 3.6004939084257512 4.483695641621667 9.030571885183114 0.6789095599295534 -1.0477553914619375 1.110471796654552
Ni 6.90547861514843 6.1029475498715176 11.470156496755704 0.4113667356137302 0.49057419648283257 0.7645175250083607
Ni 0.6590964431083649 9.164239042859034 0.36551058216834115 -0.1397919073203786 -0.17691863696934693 -0.5153956264018865
Ni 4.170771297427529 0.22933166023702115 1.8138382577047227 0.8875018738530973 1.8900654992697448 -0.3128716301596096
Ni 5.855270599448997 5.507552518315731 0.36816397009037977 0.7775782148470608 -0.14292093986766355 -0.1497135373094647
Ni 8.058112521364574 8.707635204608229 11.474275461202176 -0.6832410974253716 0.746097113519644 -0.36156652426215147
Ni 9.537942782567637 5.014656473362661 6.1529690289279655 -0.33741023873092213 -0.5846624311185092 -0.45947593241613127
Ni 8.369830780139603 -0.3530577502160464 2.62343588709632 0.2126124908265306 0.21460689554874005 -0.5785668597437327
P 8.954051247547135 1.5594318988642217 3.7259953195936606 -1.5157619870568992 -0.8221274622123453 -0.0618291174916548
P 1.8877155581304905 3.3921700633070184 1.530452955566916 0.43577807457855916 -0.449834038450993 -0.6360060756978079
P 4.876778981132762 1.0224680510599389 8.173820884409752 0.14756898016263617 1.6748204559163733 0.6391711036893508
P 8.769419671305283 1.5495547902425835 12.56465160356437 -0.7423268478439344 0.03199609329062232 -0.14795233164398391
P 6.212006910193324 8.110230030687259 1.7352727570627082 0.47386588258921625 -0.30079875815547547 -0.30774793577979903
P 1.834492470506955 3.110384651751681 6.269835051235274 0.4849079993359906 -0.38428479179527364 -1.2491622433806358
P 6.895153793000001 3.976682915058577 5.984269658332322 0.6888152490790396 0.11325066649674043 0.2551117976413219
P 2.4471290413495423 8.493198699297196 10.208981298727327 -1.2538784179093827 0.23472243535169254 1.4912498608481477
