# total energy = -381172.11102101713 ev
CRYSTAL
PRIMVEC
9.20737698572821 0.00000000000000 0.00000000000000
0.00000000000000 9.20737698572821 0.00000000000000
0.00000000000000 0.00000000000000 13.47592691453802
PRIMCOORD
 96 1
Ni 7.413107847440159 2.991817470565094 12.449276990610088 0.48883947317991294 1.2585292864178326 -0.5549402214637281
Ni 4.899015134167308 8.745157497377201 10.557512732388489 -0.623751683810487 2.454846875193611 0.11913155075754966
Ni 0.21119052771490665 6.63880426857828 11.743852878585011 0.24737817644249008 -2.180253828899226 1.8271333785218984
Ni 0.522534299092652 3.684589725810844 13.185197776839717 -0.0534501493993402 0.6878035199850735 -0.926760562243404
Ni 4.6880004673537075 6.440173523872381 0.39629195261035544 -3.230318070999998 -1.4612875101581027 -0.8230600013289439
Ni 7.337165401682301 8.06033120850985 6.3394669168499345 -0.2805839737704974 1.5819190424999467 -0.9162180108408672
Ni 0.29298518231414306 7.224393447797452 6.421683269317224 0.7147157709948851 -1.3475573329217825 0.07608177075592704
Ni 3.2409506782901314 0.6299853097908542 11.818279790083444 -0.5054439145058134 0.34806669000350376 -0.3841161274278933
Ni 6.837085132956973 8.478475029029653 8.717873277019024 0.40310423849462185 -0.46919444525547577 -0.135351869271154
Ni 7.756828439412343 5.939945937114544 8.79107468663453 -0.47355297933448764 0.5372929406956102 1.1251574236911848
Ni 6.201150016128204 1.482323250472203 9.397181584831248 -1.3147824524836067 -0.4589406287379515 -0.8814638951891335
Ni 2.554918223031621 4.123127886455969 4.647779882265923 0.3120601900019077 1.1570509299656717 0.6409960727132316
Ni 6.33323904702566 7.920848653855901 11.793106821278645 0.763030398939873 -1.4317987566703663 2.7970889880955374
Ni 7.643688190446222 3.2207036561973172 9.704162900971353 0.7517838794917762 1.0814198735939182 0.7317961235159397
Ni 3.414564979600771 4.537717659441517 0.44277815776824464 -1.3952752078230357 -0.1766890374570441 -0.7197836724360959
Ni 1.4537251374115938 0.6949056045040061 9.880185852113497 0.6037186764190119 0.81717808862687 -0.09897384486275213
Ni 6.197927434167091 5.253913481856034 2.763104383621068 0.21804780290948902 0.08308237044347626 -0.5550950018740376
Ni 4.028356354668187 1.7885514031711094 4.0918172801218065 -0.3949798096152746 -0.38408296019711274 0.125620500916003
Ni 6.558009535124691 2.031349935498304 3.287465426316819 -0.3356626599121961 0.8724899738252974 -0.42823908588903664
Ni 2.145097871348518 5.0353487658764005 11.410255797659236 -0.3114505814423668 0.41482666913787264 -0.2900862568339778
Ni 6.8873021672881265 4.198794110902874 4.921408395846222 -1.9213843639876844 -0.5526735369167385 1.1331252723880099
Ni 0.4231240907562754 0.3759685092881781 5.770553218172961 -1.4020089270024434 -0.6273653693036744 -1.655354376771962
Ni 8.322492854734811 5.821410165207821 2.0998187533194907 1.5470546265225935 0.7199387099567214 -0.4929015590644285
Ni 9.164443032648942 4.144433756907434 8.121186446263486 1.3014194009131395 -0.13957464910324993 -0.8497061431615623
P 7.349724263953606 0.6726900452018044 4.777161944316046 0.5136750441663541 -0.5992827521348453 0.36200823978526037
Ni 5.697175026918446 1.972910713477799 5.572282481909003 0.7198080979161281 0.8800852696740521 1.2698753075582712
P 1.3511089203927626 8.496420206864531 4.035662408342879 0.016775419686125947 0.14341639144684334 -0.20517120405713696
Ni 8.686635408963413 1.3323627007561236 0.04867756089144524 0.17711532636118532 -0.9617854150580211 0.31387281773061426
P 2.9501540894964347 7.0189768662191545 12.540549719125805 -0.19408306456377544 -0.03448209293726965 0.6364699027081039
P 3.4560902500139545 1.5824074388073035 6.424081791033995 0.3390171782067258 1.6391777670120995 -0.36594768404898265
P 0.12455187205926767 4.92083661773255 5.977880330485346 0.6855584327046387 1.3884931519041959 0.43246135150050036
Ni 6.510536299148998 7.223877834683674 0.8900513570033886 4.71857311088588 0.6894857927835029 -0.37075718962248405
Ni 2.0392222428604483 9.066089831195809 0.44701907562906773 -0.28636844166275843 -0.9815975646879419 -2.4181572330820615
Ni 1.1401310830872893 2.504655151815309 1.5293968862847176 -1.0492803127468961 1.1250810619272946 -0.25647268254459055
Ni 7.58367450695329 0.7621277434750948 11.22310204842341 1.731484741377637 -0.27393407255414753 0.33842659581057843
Ni 1.7771710851598685 2.0182846674902533 4.510594568181395 -0.969727552723233 -0.8672127845867582 0.8324946643792824
Ni 8.037708683142846 5.470912943740271 13.19906408664953 0.001521835961165121 -0.31866149736850924 1.257156831550338
Ni 3.0574568614244253 5.29671857767663 8.764433141193168 0.6939024337939598 0.47024962599286746 -0.006553484847801617
Ni 8.967340712530312 1.6114198838343414 3.0900574212807355 -0.40341225665334396 -1.2809996996062067 0.8408803173398163
Ni 7.559219713556967 7.9685060373722285 3.498674368785789 -1.0521429790066719 0.7111913027813944 0.8005566780201051
Ni 3.4758492811240855 3.1968933791932175 11.8226459282719 -0.5879120484040585 -0.432940605129764 1.4605452326754396
Ni 7.6458150945405565 1.2082196362370656 7.041845228552907 0.08581493888329092 0.20620812996208357 0.8532619788336208
Ni 5.80718476769377 4.628677337138155 13.040627225638024 -0.26819691296005427 0.10164702081954106 0.5010820379926919
Ni 2.6494227408854822 8.822204828378869 6.178631534121657 -0.8335848121196675 -0.07602417804511423 -0.03811814702796016
Ni 7.383441678643866 0.17883948777615694 1.8121075565691331 -1.4249534516137587 1.1180125851162872 -1.2509255059286455
Ni 3.7747299469516573 5.548595583757128 2.7770112058898206 0.2527155294950035 -0.2749702271281458 0.24600186492025378
Ni 2.377344749597329 7.258110862487713 2.0162949533136927 0.08473970354124115 0.14866632699187302 0.08017548120932644
Ni 4.356498064702653 7.670361961707197 8.8371493220391 0.14065348398972552 -2.288119576934969 -1.083668817529095
Ni 2.3532490439052447 2.9158934395613003 9.672643287178568 -0.5528761398458478 0.9079267173663526 -1.2850101063171804
Ni 8.519549137968282 3.8692344648055186 3.534897110766389 1.8956494211154258 0.3819402028224971 -1.4165713981976509
Ni 8.146650368182488 7.8684678859222865 10.565665864750104 -0.008814255857520303 -0.04420163421787871 -2.5159815377214025
Ni 5.513911394478534 3.75035801994862 10.926106132674239 -0.009820585634847601 0.3849807894210337 -1.6362019722132273
Ni 5.7227070834274825 1.6231592895498201 11.944198957631926 -3.0187576755870658 -0.7634698004701368 0.26330127543064974
Ni 0.22128181294170246 8.39417228492697 1.948511164343667 0.6419422386765847 -0.5374682899312098 0.4358891462351267
Ni 4.3612122417429084 7.3214668238431715 6.632231122115315 0.8579912659884901 -1.2586490998251485 -1.0318340922459908
Ni 5.3069387661818705 6.2747998250051555 4.730832264567696 0.7699538655325837 0.22682991997749322 -0.343514294746131
P 1.464497768538739 4.946525199651128 2.252231227539125 -0.06874204256140419 0.0755922327140182 0.22661060487783555
Ni 4.616891894537519 4.397783943313011 6.026542238835837 -0.1263967169603952 -0.002742595742143664 0.9974967524167015
P 5.451761599514234 5.328023659584574 8.311682473361836 -0.5678715848134156 0.31915077830010197 0.3037436997164124
Ni 2.540821728796015 7.583784995477671 10.474636210988024 0.6941497739180754 0.5937872762379129 -0.25535219578690216
P 6.220697277566605 1.4488636423388308 0.5059020932225025 -0.5300575992894355 1.055404937587395 1.1144932591091194
P 4.194742865008905 2.037095338766114 10.14173981145436 0.43602978557804906 -1.0750257971421162 -0.0832230097863986
P 2.2385343334666965 7.550500327507902 8.04562702739015 0.6583998700119758 -0.9931032513346961 -0.32238394052541897
Ni 4.455762796481928 6.269781804522853 10.966089167434603 0.8443207104799331 -0.6343001487502947 0.5696345902511093
Ni 0.3189822113632835 2.548473059109397 11.090714698510125 -0.25909289377625705 -0.2974591522592812 -0.8809576449766763
Ni 5.044491691268926 3.4453636557719682 1.5878011202725018 2.0614976592032237 -1.2134668468615553 0.13008265045241468
Ni 1.2026031362476994 6.118532222022329 4.353316915938184 -0.21606985324751174 0.025333850779098305 -1.645734594294011
Ni 3.2785351913337264 7.461520235873089 4.278863303046361 -0.4818447870296346 -0.1911360661203095 -0.031134259510959283
Ni 5.172059900043794 8.749577038352442 4.503762694423837 1.225057379912632 0.901113551099261 0.5127993264296201
Ni 1.3056336852329593 5.844962635655032 0.20621394042924687 0.39681583438274887 0.7658768672497326 0.8421365583444207
Ni 4.535673621740469 8.708235915479893 0.18000330023296987 0.01580045736736634 0.6342212158832432 -1.3153138995070446
Ni 0.8844864183254002 -0.5463804848671762 11.640909799681555 -0.2740662272566377 2.5905941801309704 2.1659371551662376
Ni 3.5494438457388475 0.5948076051033577 8.369197274728354 -1.1875161884340646 1.1038964574298795 1.049399869043896
Ni 4.526346548807308 0.7518283715273816 2.065859184613295 1.97107453212396 0.24429285264894704 0.9129894766012405
Ni 2.9874623812290775 3.280560814280711 2.5960567836094706 -0.5843736962334968 -0.16311901208209326 -0.4770162552927398
Ni 5.411064993033909 0.14034252366871544 6.996634245113914 -0.18893571603488107 0.5431175177971872 0.31354011698154394
Ni 7.078981342335056 5.490165569113656 11.124660456150773 -0.04965288714043707 0.47033087285276415 -0.5981715213485376
Ni 0.9966525268015604 1.5390130708566754 7.5754652095917825 0.4208466500797075 1.4570261637785875 1.004036096197116
Ni 8.017470868427065 6.158077906373686 4.546063225983094 0.15970767240769915 -0.8803449510933419 0.7761142287070246
Ni 7.818582317164275 3.443328825447952 1.3063896108872657 -0.7542747642344301 -0.35535628168638156 0.31659613019904836
Ni 2.209098349096198 0.7571603635664669 2.4172311068988614 0.018434809666419864 -0.5875914318398461 3.12325425004026
Ni 8.85012159553913 2.963845459142644 5.662140036574941 0.08816492717270623 -1.7441463960057058 0.6805571228353053
Ni 6.921074826240578 5.967429957554312 6.720632990472534 -1.05551420947175 -1.0831096025915152 -0.813900703427179
Ni 2.542193627973745 5.856794115140829 6.2846333036750615 -0.13913396202140554 0.9023913893704201 0.7977935134526712
Ni 3.3013971085035565 1.9885264249236436 0.6463597091041148 -0.03420878467122496 0.4932548286387892 -2.2416402024265074
Ni 0.8428322446337723 6.365225474833952 9.515918077557265 -0.4770525078473139 -0.7782171339826404 -1.1762398441892967
Ni 6.798745614996774 3.7177546978792004 7.543298317193668 1.1098938126638949 -0.2940781516021903 -1.043527469423519
Ni 9.570884276961394 8.560770564939418 8.40075832171778 -1.393268204695336 -0.45187009504441533 -0.3990850900328998
P 8.410358853748782 8.214398248382091 13.479834762593356 -0.07892206841819956 -0.6411243707609797 -0.8318714289729866
Ni 4.745601818064324 3.0736434302462388 8.139944635490266 -1.8968388134378364 -0.38984403105060605 0.3886618378170468
P 8.451092289737236 1.1722095846658993 9.288242662004716 0.8495058542252982 0.010137345544318025 -0.7638284693611361
Ni 2.2733198038926408 3.6751613717303346 7.102904870076646 0.05484265887149265 -1.373519561313499 -0.08237428863285813
P 4.891962283360989 3.818400536213238 3.9456170231854935 0.21955909734769286 0.08417354662512601 -0.5710098733320811
P -0.07478691994037298 4.70228110912995 10.795026230299461 -0.15266490662830481 -0.5864159234745062 -0.6882454926184985
P 1.475970160320297 1.7141742115086491 12.674244516577598 1.3129325437590615 -0.34867192768767047 0.642196520779236
Ni 4.994753440543423 7.711436070645825 2.3681244822377367 -0.7960050540936807 -0.49967230212935876 1.7892823691123958
