# total energy = -381173.49306774756 ev
CRYSTAL
PRIMVEC
9.17532852372271 0.00000000000000 0.00000000000000

0.00000000000000 9.17532852372271 0.00000000000000

0.00000000000000 0.00000000000000 13.42902075088726

PRIMCOORD
 96 1
Ni 4.064193396227392 1.7957218860057054 5.749137871453475 -0.36808992720296607 -0.34131240199880575 -0.6314143425620674
Ni 4.269096831674781 0.010072675597086859 3.55276792743422 -0.7941417756326968 1.2039434807521523 0.5565751859639898
Ni 5.764088151666532 0.8964589528122581 7.333105104241392 -0.4577787472193664 0.5372170931523522 -0.7383467801502639
Ni 8.422529472625499 1.2093541693150243 4.828042244159765 1.9332389493334254 -0.6135354053991176 -0.4054187455604114
Ni 4.267381045250427 3.6419356045954596 9.504308957326334 -1.5646921370986988 0.5231850405393184 1.6551044655446852
Ni 0.44675683618629625 3.67588431994363 3.3048551397720876 1.706970815396673 0.3876881610498678 -0.3854975811564522
Ni 7.547239837664942 8.398049696260925 13.22531570763192 0.6494552592241782 0.3285085653659181 0.3741063086003751
Ni 7.8266102389949666 0.7409261248095811 8.762301978822695 -0.3894601653486261 -1.034799859742534 0.47815139733844747
Ni 7.262015576769476 4.489038630488562 7.322012132118165 0.1545433545979403 0.6885036313758917 -1.5794091315938994
Ni 7.853805912587393 0.2750800177362934 1.8574085368590254 1.1078299881563307 -1.0261938632410779 0.3228446822119214
Ni 3.485707286694569 1.9833848792533075 8.105206242601913 -0.38764059564138403 0.06312546770557516 -0.18923524955317086
Ni 4.343618849528251 7.6394885901272405 11.559324708431433 0.8570301876268015 -0.3043245119205469 -0.5853782262386112
Ni 1.5219300843869479 3.7967600972400612 0.7384726419760403 1.0017115618289976 -1.8754109825813636 -0.770132557202293
Ni 8.234719674122335 4.997498633119428 0.4088856679161414 0.01629308073306871 0.3542108552280287 -0.4761701052423606
Ni 0.48441421930304235 5.332113687182246 7.629711360106968 0.12651550192644664 -0.012561638715094496 2.1558193500059453
Ni 4.099619339459631 2.811137137397952 12.883667764294948 -1.3476614625998147 -0.23345565282412695 0.6782385020044578
Ni 2.4972124490405743 4.343591323542833 11.60928070183269 0.8338149258526026 -1.0528122371595545 0.011367875517309453
Ni 7.557892394021489 3.3367366536154086 4.492517915045326 -1.1094410413971925 -2.092579725320009 -1.2061646567731872
Ni 7.45945947016874 4.636119145902391 10.945672317462142 -0.561142236509382 -1.2184833262395403 0.4074059511937693
Ni 1.807062591997689 7.249454552090653 8.589483749510716 -1.2645472104771385 0.5232390337057052 -0.8858923632741323
Ni 4.3049081387028645 5.5366776354761535 4.902424797020454 0.6744792920723416 -1.6975101842044054 2.3140820624370018
Ni 6.371641701800166 8.977343234699326 11.327660509961214 -0.00537000606266172 0.5423428444146917 -0.9995232959284271
Ni 8.112339142956419 2.1520824685482967 7.0562652585040775 -0.27798793090854707 0.870003717068334 -0.6167510841229379
Ni 3.1098399558194885 7.2632909474271505 4.1990395286560185 -2.345817702977386 1.2224757352283848 0.11067210713628683
P 8.789028793130177 7.690934656872427 8.10104339607395 0.057860876872526154 0.38099249419724707 -0.19576816557568222
Ni 7.539248126565412 8.85149442937081 6.499955000356388 -0.18687806217490396 -0.5779613649492498 -0.5538446744067042
P 6.4561006003893295 6.782035793717183 10.584270809456772 -1.0806886518548484 -0.45997035555404653 2.290874256861971
Ni 0.5205218894407868 0.2400174175115642 6.858389207133759 -0.17177334532298158 -2.1746313405061257 0.007312217390697083
P 5.218706627262411 7.088216504843789 3.9472327315901667 2.166334647714972 0.7583466203109585 -1.200357563173107
P 1.9881468747305238 1.93112220827407 13.178448129794498 1.2587516868412838 -0.07865004570373552 -1.8940501949491058
P 2.2967682232308095 0.3483202422021583 4.836461525566111 0.6190936162131854 0.5907867988486922 0.8776051835646758
Ni 0.932901522439248 1.5900018463242658 1.4670533623259017 0.777458401439745 -1.5783315822590043 1.091322734529927
Ni 5.927537453075263 7.95500978563883 8.937577361099603 -0.6884460386650789 1.454504168687682 -0.36093840375984937
Ni 3.895642612187962 5.1761239278216395 0.29925517319557965 1.1362743595399527 -2.5388741260488596 3.5467743331870722
Ni 5.333875350248961 5.558670897824684 2.2667116822206643 -1.257486189865299 1.923108802877959 0.9721168788910162
Ni 0.8624964744713789 7.8591826550722645 5.087449883332218 -0.30177217781233834 2.319548741978528 -1.2688910892681309
Ni 5.822333136809825 8.184879289859833 2.104153305206611 0.23593933847792914 -0.47784132229719645 -0.05844297462824128
Ni 5.753866835748191 2.753644529189402 11.138969879924693 1.2752149746036296 -0.27590533734790545 -0.02082927804052542
Ni 0.2721099639097521 3.4692834487288327 12.113997170446785 -0.15973749720437005 -0.25480609347544503 -0.8794057271085242
Ni 9.065398862049701 1.6874071333880971 10.500285357816788 -1.4995650655820625 1.4576985072552637 -0.9971391119669665
Ni 8.301341734161003 2.675305574691381 0.5423729341979943 -1.3844860876273315 -0.12344997562724545 0.2866440639216482
Ni 6.197319636151547 6.4681936833160565 0.21025540454538577 0.7436887611884676 -1.4076522413311499 -0.5887885374717409
Ni 1.5508323690752552 7.602255107185923 10.987315463267333 0.13605455176513342 0.3172751585439439 -0.27894798082897126
Ni 2.212419428583315 1.4329385735323794 11.031779105044965 -0.267482660501849 -0.5445357383009526 1.2838847344634858
Ni 1.2235851037758383 5.651002228243234 1.6137118126299974 -1.2899016300815271 3.1901579538413447 1.0865237704793869
Ni 8.533459193857762 6.42222528766894 5.968864050048153 -0.3971932723268256 0.08508423136485348 0.10404971672376274
Ni 1.931599325354639 9.067738570810183 2.749578941143247 -0.6118878424933656 -0.5872057663656531 0.02685877206405697
Ni 4.308046101040452 0.9519311536911683 11.411968015630581 0.8059323405097216 -0.7429423699407463 -0.3706258062509423
Ni 2.184737462581847 6.369678181507055 6.286003773502289 -0.4528633121956201 -1.234786434274938 -0.5311428619338143
Ni 6.515978794000724 3.7741337372269297 2.213451653036469 3.842213112582215 -0.8832269006268272 0.0951992083116683
Ni 2.814155820465398 5.224643064784106 3.1577269126502014 1.1234653807007426 -1.9636360735680438 -0.8953882185797095
Ni 9.130745551430694 3.9913596388128574 5.88385830188203 1.5604906974228416 0.4110255502242276 -0.8224833028898673
Ni 5.72965314390932 0.7261942174141697 0.18158342060173782 1.2220569025234116 0.8865366817263506 -1.1079168914431823
Ni 4.462521931203099 4.364070656693405 7.176925415581405 -0.3274713823506554 -1.303946281100051 -1.1748177670307896
Ni 1.7495057564898315 2.902661038910925 9.512513536046423 -0.6737051329104784 2.622812159624412 -1.6098023991737758
Ni 3.190023151340478 7.200614278631651 1.6780905048571424 0.5955114580178711 0.623587647428797 -0.5654017831166843
P 4.757701423491204 7.9493761339567275 0.23590870542158832 -1.744559058063092 0.8175665823145404 -0.09626467346170518
Ni 6.20143935863569 0.8712323047100258 4.526507001838775 -0.444467374822441 0.36001717749716056 3.1267365521619057
P 8.442999630447597 2.113491036993052 2.6717033407330857 -2.222403722794398 0.08973072899792933 1.4902859542729818
Ni 0.7894727877574645 5.2439846572040905 10.275215467919738 -0.7328916705729637 0.3214732557856915 -0.39980757002122114
P 5.208430259373237 1.2899777806026924 9.326965456011727 -0.47767394348139675 -0.7800457025509469 1.5975184396001003
P 4.639624121378878 3.293172194028081 1.643000378646996 -2.1643425569856083 -0.7804228833847076 -0.47353318184014576
P 0.8752933050919448 5.557230371254504 12.708607084704294 -1.157654882098258 -0.8062285315939017 -0.13239818595946876
Ni 0.8781385744512603 5.78281499707886 4.178640938396004 -0.8336750578406287 0.10023471385304673 -0.12109407380055918
Ni 3.946061042144231 0.9639783599755326 1.44944774205291 -2.0958406554594675 0.5741731015514111 -0.11838053152413806
Ni 2.498230910501019 3.6962994257948947 5.176646004011723 0.287697187776511 1.6705382836012523 -0.3911864040111133
Ni 1.4744936361842345 0.6494462648732763 8.838229656998148 -0.25673416373609337 -0.28544258741437933 0.7504363643249463
Ni 4.787484539712868 5.172820809571547 11.718727689983801 1.2344737881305257 0.009348273984119384 -2.3436466634679958
Ni 3.397954445183785 8.674548219779062 9.57063465425534 0.9033946338239539 0.3626466447002077 0.28666540407788693
Ni 2.698739363610091 8.968663373964361 12.988266508881201 -0.012415342945217327 -0.08260543080705772 0.16105595890547747
Ni 7.8799372480770105 5.785026251240728 2.5428789763809463 0.17405957025399701 0.21445648601380485 -0.2091466437651172
Ni 7.743114749895413 6.018703516777809 9.132835691256723 2.4453785306918596 0.5722740847564853 -1.4779513439670289
Ni 3.379062443858952 9.029771061591067 7.2304267559044275 -1.4376418457147047 -0.4871363744458771 -0.3651395863253905
Ni 5.985075937926176 1.5203060512473194 2.5404080604233084 -0.32622028355237365 0.6385959479121712 -1.5291929157508244
Ni 0.36506154653304246 0.18892460091256785 11.92561483144694 -0.023181066102153626 -0.7694674128144684 2.862666773996347
Ni 1.3675918841513877 2.0963790493918797 6.266276817286459 1.201409401476389 0.46554913519340474 0.026784724293011937
Ni 4.874787790128502 8.264190829175936 5.732956262159412 1.2618946033456395 -0.40392210641022697 0.21905927489313884
Ni 6.392955989841734 3.047979891258039 8.784821905025545 0.5758975404416857 -0.7255218604714537 0.5603608782586671
Ni 5.571075941919475 5.454512569005108 8.902393646539037 -0.6217161414376969 0.45653639017183306 0.9544228040453626
Ni 8.394113480346231 8.151325113635979 10.3330539860117 0.45608387601544675 0.35286334006119874 -2.0653543139451527
Ni 2.6943994332426087 6.449200753378026 12.646927774113752 -0.7396593283141003 2.537300868024469 -0.2982147994783832
Ni 6.898232153492651 5.3538225143481295 4.549846284874218 -1.287672483640692 2.2333748770939215 0.7638996889187037
Ni 6.1435063346604615 3.825240316818635 13.186089343346378 0.9311592055317318 0.19077251213330373 0.7332356841759436
Ni 6.535549769632522 6.818003081329298 6.966479164203792 -1.3740101277966725 -0.9188762743993208 -0.13343305498188635
Ni 4.974422682011145 3.4220580330809858 4.08119986755113 -0.25707740600812495 -0.10923023248343769 0.05495861562406664
Ni 8.305956924382658 6.637111480494386 11.95282243296638 0.40874138217574124 -0.6455052734374948 0.7576346818455983
Ni 0.6547312540734238 7.9123903848841675 0.619754901936336 0.09125693583446864 -0.15933434822868045 0.3296005128785162
Ni 4.004342728601414 6.608631260915812 7.50511682218064 0.9187538898888437 1.2824942818738623 0.9538566471292474
P 8.708166623302224 3.3297267026624353 9.02581924761797 -0.634366740322172 0.8127573338513551 0.01823734894363311
Ni 7.401865933346993 8.10187009316932 4.111952815992336 0.41219205972850304 -1.2074985450932625 -0.00961515449226086
P 6.065130678848551 3.022756913287196 6.055911308799404 -0.5849285402957023 -0.6208165124415631 0.2899371328506232
Ni 2.761342629777812 2.5559620772498537 3.037254849806559 0.4876979033763021 -0.11445034323179645 -0.39171193749728017
P 7.455073663158896 1.5628245233887847 12.368907063602029 0.20328170034390794 -0.2559227235783915 -1.1623905970110302
P 2.2063545364630066 4.074075224992251 7.4706047416642605 1.0440360336288212 -0.8309656293292658 -0.6761409960454807
P 9.09882458367494 7.497509557344109 2.6861801739969624 0.9295571511519347 0.9775488485398649 0.4656334673770949
Ni 3.2470478177969317 6.106905949383745 9.954315694857582 0.46905226325065663 -0.6114353283369792 0.10239855427358494
