# total energy = -340866.6675877608 ev
CRYSTAL
PRIMVEC
9.32077289416259 0.00000000000000 0.00000000000000
0.00000000000000 9.32077289416259 0.00000000000000
0.00000000000000 0.00000000000000 13.64189328876999
PRIMCOORD
 96 1
Ni 4.221135673795728 1.0052173872022854 0.7979494976671602 0.02536444690671761 0.22058265351620077 0.5062530406706701
Ni 8.178735816647086 8.421504665730238 1.904231092568275 0.8051221859036004 -1.1372233537167833 -0.15833701731241764
Ni 1.3868284683342222 9.707491692836225 0.5645359082716667 0.7423651572810376 -0.7136667609050805 -0.22612543771130086
Ni 7.104526068970506 8.470923403265324 7.2468058020383275 0.6968538031127999 1.3018816852615385 -2.0666936015818664
Ni 7.437920792262192 4.318323372075311 12.892489247649413 -1.2403022218868445 0.8312052561438976 1.9460857233891067
Ni 3.043763612456691 2.7644200507957035 4.231333531347055 -0.9188024837385919 -0.7558930165641434 -0.45811401907159816
Ni 3.465286242838956 0.8309152070059183 3.12001033042317 -0.24032718313297963 -1.1398690188697465 -0.0740444286109241
Ni 4.67271779654892 7.851707181197056 10.315904207119333 1.8624755054666182 1.184125931805593 2.1971850574369256
Ni 5.184465507908108 3.002789495103948 8.298895491639037 3.108898752649536 0.8470674199871346 -0.7124190045409086
Ni 5.865170868323975 1.8954816831144488 5.839590007296995 -0.5082710995419634 -0.9286289829107103 0.4775459025439646
Ni 8.735493539993625 0.22958927630408538 8.95071857329218 -0.07120824471370962 0.314346157822607 -1.1310349655178844
Ni 4.7217823447165355 8.893657734115255 4.814688079958846 -1.0274842999177274 0.6441251052605165 1.149031402095305
Ni 0.8266090099592924 1.18768083608702 7.19724445667897 1.3912671151049072 -1.630490780761063 -2.116190422760414
Ni 8.207499721594894 7.356065765284988 5.228664612659406 -0.6941842267004368 -0.9952280109871828 0.10308041083195796
Ni 7.588143687934202 5.186832984206469 6.0684056594563405 2.824945862406806 0.5557323783477204 1.2046849869038672
Ni 3.551615240773693 4.68490004663537 5.070269263371634 1.7681216758743807 2.2754777198012426 1.6989697994690676
Ni 5.641714660540842 6.419029831320945 1.1524464506418792 1.2763917685205501 0.12435911770507614 0.44385133850499686
Ni 5.377545317044155 4.591105109665249 2.8866107221869184 -1.1143014548132872 0.9313625797917895 0.12024123888196066
Ni 1.550333465286409 1.2669540089908133 9.726137898879028 0.4430578960694241 1.571526643522029 0.3147372226134386
Ni 7.304335476088509 7.119066474582489 13.224683455400829 1.0176002080347957 1.9160657799882483 -0.8254552410339976
Ni 4.059317736725443 0.9694256195420189 9.795465807175137 -1.4960742788199848 -0.1644248753777104 -1.020705586432997
Ni 5.620426015401246 6.713034968640682 5.4484223377843115 0.2885615926593353 -0.10844733157082613 0.8551226861914435
Ni 0.4605365892092387 3.3941780669326604 2.987261087572176 -1.1324094772679079 -1.4041537412595881 2.559032603274606
Ni 1.22536472063141 7.21357911106038 0.8992774832370275 -1.2032441406922827 -0.3896170026414644 0.8481269715999006
P 5.553735885815514 5.223584791468039 6.9993821590047745 -0.0354403430854809 -1.4367638139851255 0.8632412015335197
P 3.1966056452934235 2.7811788003407973 8.651524561738986 -3.6458129698494885 -0.6642283037682947 1.2280707128176591
P 5.479001929279051 1.775541978361243 11.15254796110546 1.043240020090087 -1.1119260126025754 1.3590427078535625
P 5.212204127844814 0.11788447434458915 7.501826807004141 -0.8706791458688038 0.7214728872130607 -0.709596704600765
P -0.03532106863244282 5.276070063263602 8.95999553848808 -0.2793272185452609 -0.11968073839280034 -0.14995007880030303
P 8.210724708993448 9.380705397479726 5.466770279096613 0.7972242712127625 1.8616036443846262 0.6055652427094473
P 0.07537522570704278 5.570075200583339 13.309495031519138 0.7507119865838361 0.47433125226140893 -1.9875689302345574
P 5.12070210099043 4.353555893365886 13.271488648234891 -0.21186789935102224 0.5519669977680172 0.38314527887419175
Ni 2.9534639652971433 8.3313075470718 6.719437407496369 0.9367310431925545 0.9333001631341347 -0.24971968009147316
Ni 0.23605136810587257 8.003859476844502 12.197912713110629 0.8037654147653899 -0.8132561278646445 0.8060200151275215
Ni 8.262967640695479 5.644669345527379 11.201207987732332 0.5978190231051252 1.1593962902693968 -1.235230463790892
Ni 3.5543741895308383 4.965651044993415 8.44295362816248 1.9345504690559971 1.1287335710782174 -1.2820273695397728
Ni 5.683248024263276 8.70370970464948 1.7952731223612477 -0.5080700392747508 -1.5449046700591262 0.5797567662867757
Ni 0.9585575984243442 7.038003713295681 9.837701025091535 -0.769596739303481 0.04160019203928965 2.117131189407128
Ni 3.6403210357796194 2.6497559034632556 6.6193872998812475 -0.7143339621754343 -0.8822244275042419 -1.8175822444983536
Ni 1.134710884104391 4.497850777519164 1.365307735951204 1.7002939175971297 1.9624968177572786 -3.0232514496923613
Ni 3.3262855576520924 8.0275622021466 1.6592905034161536 0.8737989224447081 -0.17138536585594355 -0.5384849041211823
Ni 0.5960196147307417 1.209836313099638 12.167927786922327 -0.6413632262446631 -1.5251724817375218 -1.541670736502861
Ni 7.214930623120469 4.703532271518931 8.38429427644552 1.09747898393931 -1.0161915006127273 0.14406508077443578
Ni 2.8999813708089635 7.505729414587306 4.0070608238641725 1.1709135468803769 -1.028081567182094 0.6132461562934729
Ni 7.65748091700314 7.4777391337842385 9.10262107222783 0.8617946988949804 -2.003487401237027 1.5972443600031072
Ni 0.7192318428239268 1.3069680867422524 4.387096694388143 -0.40229279833692005 0.7141174752892541 0.9328934146140192
Ni 3.6654778016429166 5.567064590959832 1.4861207971184118 -1.9934778395198252 1.2793899319169257 -0.5441552150330822
Ni 7.136421753588586 1.0693163419417786 1.4778122602193593 0.46569003164664313 1.1028446191265975 -1.2244544562213104
Ni 1.6667126348192447 4.123575144603016 6.738358576337603 -0.48990853787437566 0.578107917829443 -0.020711264405422397
Ni 0.2582618376781771 2.8713572774535785 8.391701494612086 -0.7234521224266185 2.5069654502657213 1.7070821441635569
Ni 8.11485123968264 5.836826398153436 1.2639163691261048 0.15937779987210615 -0.7962750199256158 2.4715672732720853
Ni 3.0867510167403234 4.234632152850954 12.251620870301249 0.9481341428231737 0.09199947042744801 0.5683806632393502
Ni 7.341777020539366 2.0045999706141213 7.968447996715626 -0.4121972019348257 0.07198497497873409 0.9508428000035881
Ni 7.470962931938141 5.789523476050349 3.7520938793807614 -0.13581183962670804 0.7806761370460942 -1.0837912020395721
Ni 1.884026453308598 4.582427470162201 9.868232148567568 -0.8790501435413184 -0.35452632958591845 1.1610456529473618
Ni 5.91939912463841 5.85239208877652 9.816037684884247 -1.1442031274687263 -1.2449227513779915 1.2061877967016388
P 3.6421851903452582 5.988242352747454 10.718967978992643 -1.035503570677778 -0.9931197063949283 -0.4147855314872921
P 6.63556070489273 7.471745876855709 11.081596374182679 1.4195867879852067 0.4242821581238177 0.06407986119904448
P 1.5518993551215456 1.5410872586408402 2.383784854578879 -0.6175838644368783 1.622236511172071 -0.6106778813456644
P 2.9088454257685767 6.188536440052524 6.505846305674596 -1.0052979936286752 -0.22795220650739448 0.6400028555620267
P 1.7638630500075152 2.7598435513370605 12.984394863967259 -0.4305661913603165 0.11326712155697267 0.9778648371183869
P 9.271959940893183 3.787859548877109 5.175188542712205 1.2294953610793278 1.3530443241782826 -0.00917960961673903
P 2.6849325001168616 0.7676718992120534 5.329642137170933 0.20703962472444343 0.0953511605085003 0.2728128144655108
P 3.293923834392601 8.694538064186538 13.209431874822055 -0.28881047544534777 -0.5048669589564208 -0.5362840398151215
Ni 6.760393815380738 9.372503117390917 3.900899085505603 0.1577690606240896 -2.251916644651851 -0.03543545798947446
Ni 4.3218279826587125 3.3541360268627374 10.464996493047284 -0.618385020181935 1.6237089819525392 0.14050693110953222
Ni 8.251065013793875 2.1826640147239478 5.942326361641203 -0.2124386842528277 -0.10680876752613863 0.08180993148895588
Ni 5.262750678892112 7.209487291788802 8.015458246551907 -0.19788572613931726 -0.09547534479119041 -0.8430508426285739
Ni 1.0157591812709734 6.981985868598233 7.576844115034581 -0.8174321136192052 -1.298171840510119 -1.9785649269637344
Ni 5.429107832329727 9.167958757676189 12.454093222216269 0.352074011390684 0.05158018607013697 -0.07324095887302226
Ni 5.306138876407358 6.363077232033294 12.341302550222288 -1.798700319992186 -1.0379227216422318 0.1991597077557344
Ni 9.25158473149075 3.3878399414094886 11.710310463762877 0.6007174276988428 0.8327324914217015 -0.3655021118711318
Ni 1.3551191991727045 8.820340535048677 2.883255243968769 -0.7587294575716739 -0.9258539912687345 -0.35605870707004483
Ni 3.53882714045341 3.392146138456114 1.1309387673408204 -1.3323055489690345 -1.136930505066713 -0.493514252947763
Ni 3.394522935527304 1.4167667906583827 12.24301220451713 -0.4897645560973436 0.5997267816507995 -0.5824016601087905
Ni 7.572195845625161 2.0605059660376317 3.545704938723335 0.45096660939353944 2.4881642583988177 0.5029044359134114
Ni 6.216135248396808 0.3490657386477301 9.44208641486252 0.9100977568757422 -0.3341086851615149 -0.049547986131456605
Ni 6.167014775592223 4.153103352922736 4.920426655231015 -1.7626326277353517 -2.095707472315713 0.558266971844116
Ni 6.841652312896937 3.508003344710571 10.74254114555243 -0.27795682056029547 -0.10284849732680997 -0.7062792101917578
Ni 5.84140289761208 3.053028460647916 1.1519375364454598 1.4495555664331552 -0.6084155676740489 0.03290112160339495
Ni 1.2340610016801152 5.978483503596334 4.8653269066571445 -0.6214353769724846 -1.0539815748773074 -0.15843291946033358
Ni 3.1489112507315524 7.557506307647927 8.94758120115821 -2.630884137999269 -1.0651352775012817 -1.685860001559987
Ni 7.240283125213157 1.9583689373862767 12.80198920387406 -0.8046575875623562 -0.8874859330134974 -1.086178471324826
Ni 9.13564363828084 2.289526675199197 0.6356878918102545 0.6626702152525555 0.8301688444595832 0.5754478544987767
Ni 2.3036569668067397 6.358593940302932 12.655092892024435 -0.18468851072275289 1.228958257628935 -0.7951223943784113
Ni 0.8953562341082061 8.393244082515151 5.41263895881959 1.1640070495685308 1.062178251755487 -0.019687194016282224
Ni 2.515313076189379 8.772329234210648 10.932244970770105 -0.7662170241979708 -0.5602778316265576 1.6738382945087626
Ni 7.978637465571408 -0.07906065928331087 11.055963316827862 -0.7774674003008094 -0.27849855199637846 1.7881246013588685
P 0.028964301563614216 7.114778919081519 3.261449329781889 -0.01172988684241851 -0.5258569309445267 -0.14125100836440835
P 8.262688017510632 1.9245718151112439 10.256739669515087 1.1778426699000424 0.6811975846327817 -0.35845780342984074
P 5.272593414998686 7.1795955733287835 3.4837441692706297 -0.5491858354784542 0.3373382478424061 -2.7899066114144855
P 1.3821028365103276 8.861715445633033 8.572674551921592 1.037499260951568 -0.7125167064610374 -0.3616040623683062
P 7.478550041020291 4.045084916616791 2.549260262906946 0.28945890766262405 -0.792592685978022 -0.9246782257930783
P 8.129904287800175 0.04524396338533862 13.467631263322284 1.144636615461719 -0.3907904541242754 -0.3947664080528879
P 2.687999034377337 4.801913028720523 3.2062265470066853 -1.1973732837338025 -0.3521190056960065 -1.0802929590783266
P 5.4527266706763715 1.468795344585364 2.8043362604324464 0.04515885592482546 0.3972426375075223 -0.1781208848075642
