# total energy = -340861.689914074 ev
CRYSTAL
PRIMVEC
9.35682616254296 0.00000000000000 0.00000000000000

0.00000000000000 9.35682616254296 0.00000000000000

0.00000000000000 0.00000000000000 13.69466089136767

PRIMCOORD
 96 1
Ni 8.45739192522013 9.337392072558174 6.210378183630219 1.7920956701914748 -0.3658147580155442 1.0275830302791207
Ni 4.564989653084995 5.471291838872861 1.7101480603620367 -0.6758512327192038 -0.8607899117795498 0.05651516147790913
Ni 5.404128540405121 6.6912161252516595 8.330023999930019 2.025995609641872 -0.9724146126370931 -0.46438262568912925
Ni 1.2793869168834637 3.5055442928722886 5.404940712919331 2.6653178941971065 -1.0104286299870213 1.1801463783325545
Ni 8.511072037132838 2.8220281389201554 7.888672800557633 -1.0338372387189487 -0.05315447253579233 -0.7418378240226579
Ni 3.6401609514199866 2.6567117336083648 8.68467484772786 0.3332489082643809 -0.602699234015562 -0.0089806062320555
Ni 6.044051241088767 5.670676448380951 13.72944512107363 0.6591591167755035 1.5288676712009217 -0.13455636995305215
Ni 1.7484539711445781 0.5242901068142982 13.351664198907963 0.08910312271625945 0.5278284528486006 0.9289071762727615
Ni 3.727572421785775 7.936703260810434 7.813461695874778 -1.7215353434744092 0.2706263483371533 -0.3276385040561389
Ni 4.0908979831541705 6.958007310708705 10.699679533896129 0.18675593477474287 1.0071430172572138 0.6815572819650456
Ni 0.5689979580832741 8.26776648543924 9.344647355594102 0.9355447361939372 0.5162770005655754 0.5354438033020134
Ni 0.918710273012451 8.156017910125753 1.3303844267244676 -1.1067362408715196 0.1316142566055927 -0.33613548578355656
Ni 3.6054190557372445 5.696950416352172 3.8338070194192633 -0.290160561715339 -1.023730746412566 1.56228327054689
Ni 5.104551035941254 -0.10385234968282167 5.238043939662263 -3.246632491889305 -1.5969566535593593 -1.227354403476925
Ni 8.722293031784659 8.569692553279452 13.005997775627915 2.16366301442008 -0.2070961889939917 1.6915359688988418
Ni 0.8886589543040586 2.4596663306504185 9.420803499723217 0.5016816192499037 -1.6674676150957284 -0.3999374107308661
Ni 7.168283265914266 -0.13231207225449598 10.50533918939277 -0.434430045191097 0.1909748579520969 -1.9145526857778317
Ni 6.682991475021352 4.628541216639312 10.275063018183474 -1.0001601581814774 1.0882276405443712 -0.5270396383987181
Ni 3.0391813613831413 2.8069355782586247 3.441276932113627 0.9060055890842397 1.8813512593251986 -0.3166781483898933
Ni 6.793514306102566 0.8947212419994123 5.0138066640828205 4.111314282524093 2.89899157656931 -1.8606127412262665
Ni 9.364311661537233 4.964713268373635 1.8779758378260623 0.7553181178972798 -0.19826162142149725 -1.1999927236345205
Ni 6.3275350044876415 8.203784507879698 0.6814819799361278 2.066593585668892 -0.9310849006503706 0.9215239964348129
Ni 5.303252597136703 1.8822472289866254 6.540898712339393 -0.4170861545960107 1.2237168067243378 1.2303170856496746
Ni 9.2956138435726 4.728649900159283 9.617609367930427 -0.4077443083697946 -0.8066823313018687 1.4115544045990336
P 6.1879966553584405 2.3898924776727175 8.576281630289898 -0.5609530033167114 -0.6959426041524401 0.6268138676755786
P 1.8932695702509048 8.655213944752724 3.3259671487481994 -1.3804844226671062 0.875468339727331 0.7572788411680764
P 7.909166121302136 4.923861365181916 13.22656343260625 0.1540191066633541 -0.48318356044571625 -0.6116119631241597
P 8.617000666549568 0.5976214251134585 8.655381431941715 0.0412266107499548 0.07565985272716003 -0.2665735184240183
P 6.1879872985322395 9.089136759804472 3.006895632578051 1.5445673413243657 1.7026832437649129 -0.00786166213626388
P 3.2907115633070454 0.7013296796727914 7.423451401864956 -0.07249122519119128 0.7519558862932663 0.13779801681880138
P 4.313880508340116 3.8554708791214587 11.102768799569116 0.550531036652439 0.24951219206635739 -0.2660382147458386
P 0.6663707056221965 3.2265611628758917 11.272718705215432 0.17803038197628693 0.6890931853307746 2.0648303231208827
Ni 1.8343496356658728 5.360750294139247 11.061355486805363 0.5962879311725795 -0.39448512936704316 -0.4241998828226565
Ni 9.113876208278796 6.855147720285764 11.157902962273395 0.43199495338704313 -0.27870989667623614 0.22491830477707714
Ni 3.860392569702962 9.260937445673262 12.056587755851371 -0.3614945333736355 -0.690282063432553 -1.7813137490846223
Ni 7.358601110833998 7.640812345869594 4.482591570197475 0.1207469748737856 2.4033865025307897 0.09403784101371546
Ni 5.808277934486633 4.215278273838438 7.442528099122692 -0.79006117780542 0.5382033683250215 1.0049994885516498
Ni 8.826846207749904 2.7037017147876616 3.161193439356042 -1.5907353552399959 1.224455227552259 1.2284903168535808
Ni 8.917186364716473 0.17680565220347863 2.991009613054712 -0.4190281088137299 -0.2919197104982908 -0.4799372855942767
Ni 7.246272412296075 0.9748128672284894 12.741142517511769 -1.5230870599634028 0.913844368402368 0.18118821087897827
Ni 6.874563134651962 3.7912549809069 5.469510299164271 0.4970284367486086 -1.8086713151619689 -0.3349134404509974
Ni 9.036186480335408 0.8543858356139661 11.35509246035483 2.805774174574361 0.6994642441524533 -0.5564795409263901
Ni 3.770043055910193 5.603803211525429 12.769736978380731 0.11816353041732554 -1.9981515908464105 0.044714055077923
Ni 1.005943027997808 6.695183419560704 3.4710353821619413 -2.308602013159037 -0.0905596526571279 -0.2612878445450468
Ni 5.835758933037727 3.574045617486711 1.0134771444545128 0.4296441937666794 -0.978666764194392 1.2804991058207045
Ni 5.866758098240238 5.63772170650252 4.66175888533398 -3.213673263354466 -0.4068166543492026 0.743175568997475
Ni 6.145722514584234 9.179121357375418 7.279150428199661 0.8394669819320575 -0.9140667688258193 1.1901834508535827
Ni 8.419693272458007 3.1663593431013806 0.6089095002418343 -2.1620977268154893 -1.41704165296585 0.46240030515177777
Ni 7.804940434253911 7.460122675110257 8.54691990967249 0.44176643095151014 1.1122723401984005 0.11017794110868767
Ni 3.954662593673773 5.089130986362704 9.36506675741162 -0.43129818443033463 -1.1069774103480485 -0.005446882047184167
Ni 6.518311333891201 2.5972584599299 3.3461395303540225 -0.5062833796879732 0.3608021352923012 -0.5303949280241962
Ni 7.387064576136153 6.290706536562172 6.482395156520287 -0.8566221535551054 0.41640712625111514 0.3358680910547829
Ni 2.1331505235550914 7.261982523486843 12.738020144608635 -0.8141734974725914 0.6496100396344877 0.24672305935699446
Ni 4.821216981761589 8.95478209239039 9.423487973160162 1.0800561604771723 1.0057885601118484 1.6202719312465323
Ni 2.644678855114423 0.6435952549673725 10.096265297681894 0.2287567046865609 0.8874998169705683 -1.0201800529468301
Ni 6.993843955056914 7.59597443471643 12.04001681665015 -2.245091394199901 -1.3201925677555844 1.1408748344264414
P 6.7323955173603975 4.768453838816537 2.615639009318313 -1.4417209008800849 -0.3457526971583465 -1.1328738184988363
P 2.260375289404334 6.648174724729007 9.120233235999468 0.20806138112073844 -0.4217246818092866 -0.10649406449919724
P 3.373594329791755 1.4659526744967641 1.6916196731196547 -1.0774770868960861 -1.0331790363096596 1.0641173777597288
P 5.163920098183914 1.9703417476650555 13.364112520485211 0.2720358270901702 -0.16191393603039858 -1.0898818883183423
P 9.378440469100106 7.2045035401367 5.776448818800132 -0.5804080267175293 0.41835113735136337 0.0354421428576938
P 0.8922772389958218 4.461549939437618 3.6946551072121454 0.3233599312854431 0.6410372103638121 -0.7440980808117443
P 7.604489146558955 5.190596409681758 8.382679539373765 0.607335961456625 -0.11998104324203854 -0.9306550122018037
P 4.0318844803071325 4.015379038889316 5.546967977817886 0.44518779792823326 -0.36914356527846104 -0.48048493056763053
Ni 0.5306911116181128 6.095467001060936 7.845903683677417 -0.34082312106721296 2.702304755834101 -0.3197770990301912
Ni 8.984892359103847 4.700972408257978 6.190684871525866 -0.10529901574983157 -0.20916052772218816 0.4098402716668748
Ni 7.876192665771304 6.758014507497577 1.99231251126663 -0.5547286196735544 0.7139778643875961 -0.7951815297511208
Ni 3.4412348263957244 3.261593120170851 0.8017714662055028 0.540383663805792 1.4765220677196698 -0.8232196668352597
Ni 6.534545427349202 1.134842665736954 1.3201911002615592 0.9438386007716133 0.4672707458702017 0.9928363708265546
Ni 1.022289403370216 1.3104796503479805 4.695447202386537 -0.05613515243067106 -1.7643529528605677 -0.8063817693423143
Ni 2.97963451944267 2.5004620928849337 12.17155414369524 0.5493444725435055 -0.34748742046126607 -0.9506947044614981
Ni 1.1566534276104983 3.0983165029707864 13.542115846442362 0.5015479218855169 0.24543467956287404 -0.5424665144767497
Ni 1.3069614836965635 2.054571897122648 2.2669727875583607 1.4858063212350734 -0.33804170166733394 -1.629646687593213
Ni 1.9482222105268923 6.237026424649462 5.461348339669508 -0.8273349745552139 -1.586290946315397 1.724511652493914
Ni 2.8054665565451344 7.024534344994806 2.110224427998438 1.6328176291220264 0.274216893901889 -1.2327799453678705
Ni 5.341362950251652 1.701894403970508 10.875615001262954 -1.041863965678167 0.314743907481658 0.21806657196256637
Ni 3.273953487581813 1.7297683892220264 5.301038772057646 0.3164506057601195 -0.6431154330490795 1.8323887133835668
Ni 3.912818866904794 9.293386918936863 3.0551693703120666 0.3965654089348396 -0.1550794296070684 0.6068885895065612
Ni 4.480731433148801 9.482862649498543 0.46432595042528196 -1.446387453117819 -0.4008244413215097 1.4971106905042992
Ni 3.650996156160254 5.583218193884161 7.065335721325041 -0.20479222345116344 -0.32056951302449954 -0.8834518721534397
Ni 1.54813367901643 4.1264164954115605 7.857695156055383 1.2108839166257275 -1.0356920325395003 -0.503747757750313
Ni 3.17932790421538 8.129622303413925 5.5812177044424764 0.6385913199264809 0.007336385760413171 -2.683966362536229
Ni 1.6136221055942668 8.396226352346961 7.083275564199407 -2.8270407972626215 0.20072139581589948 0.40898923652048913
Ni 7.523898802493388 2.413630745743581 10.45735270622311 0.8665584388322108 0.12978851625076357 -0.9701512705242131
Ni 6.322285824989118 3.6575552913268585 12.41025239416767 -0.2391876702118977 -0.7525343845045556 -1.043067756178281
Ni 1.2064972407809709 1.5318995855584292 7.122332828125854 0.18516133659411338 0.06155580922561011 0.39370865621233486
Ni 7.926850522821226 5.540747559759743 4.048169100626617 4.31247482275994 -1.3116405644205154 0.365054482810752
Ni 5.364745658926894 7.2138603663372765 3.0202618588055747 -0.4173597199723716 -0.0994960359148093 -0.48826123207893973
P 1.4578309493546635 8.923736143056876 11.44449132060562 -0.11052915380051931 -0.912282680342203 -0.18714597112430995
P 8.639934247567181 2.42253844428653 5.419182738079229 -0.5992722106118841 -0.5251061688214311 0.632923323007426
P 6.4689166483783564 6.961525477360122 10.120176667037466 -0.3949684967613649 0.30400723779044414 0.953291518654397
P 5.376114202760594 7.2921302175051 6.009942802539804 -0.4068580491100993 -0.13176698013337307 0.9228092909051396
P 0.09963429243160164 6.32930344463955 -0.18043142235620213 0.8950362345569296 2.4076879581196216 0.25667117170864184
P 4.877591859620064 7.420028674840785 13.099093517910555 -0.9655050300014534 0.6592771304106065 -1.4772828571450944
P 2.4549130629405256 5.194741483688613 0.9022853002999586 -0.643778263444059 0.7586093870540419 -0.17890404283049188
P 9.362627432821132 1.1523399307320326 0.9185717919846825 -1.729480309353099 -1.4471824382152882 -1.0307087203922958
