# total energy = -340872.2598101435 ev
CRYSTAL
PRIMVEC
9.22519179049230 0.00000000000000 0.00000000000000

0.00000000000000 9.22519179049230 0.00000000000000

0.00000000000000 0.00000000000000 13.50200068206140

PRIMCOORD
 96 1
Ni 1.0117083323996134 4.2354885015499075 1.8347190569655731 -1.989899378139947 0.2621679331571549 0.2924897240691479
Ni 6.780119276866749 4.313275318659672 4.462060134246481 1.163885436389002 0.9151754285089658 -0.47783463742897714
Ni 1.282947421187714 2.3123865721932293 12.494697537206475 -1.0696989856125643 -0.14519019551781445 0.5564018936109192
Ni 7.37471978801389 8.98303049817744 4.2654574595744315 0.40725245633504054 -0.495381645173805 0.3130503218293189
Ni 3.006065643084068 8.508966342860015 6.380464595947527 0.9258928149264699 -0.37072813615676153 1.8850253657426763
Ni 4.659598243365273 4.281457632201942 5.240706911530556 -1.3818872165519038 1.2176243206733546 0.9683550978557387
Ni 8.500580643529753 5.545364257550643 6.899657466945603 0.6205627445595441 0.9807889527437174 0.21786319770250867
Ni 5.998856235193166 4.434881796736154 11.008005297868724 -2.5334964066767145 0.07315071315206112 -0.22415622980007202
Ni 3.8606874098118302 1.7645485581914147 2.613298490349636 3.448436836356738 -2.208612068326945 -0.20084275188511216
Ni 0.4271715829679657 0.6772582295180473 0.744108581769696 0.8207843179208897 0.7875384113835663 0.12794117862937965
Ni 2.1524309718770307 8.072079710425934 13.009474308898284 0.732444555733216 -0.04457701527942645 -0.02500063580939565
Ni 6.885517092981437 2.516290986161102 8.328682109931972 0.47469274936588574 -0.54675408610851 1.180775013055489
Ni 1.926533700699756 2.194968331185987 3.2571818210370735 -3.0837991293684306 1.5790723170797707 -1.2018542023232914
Ni 9.086251169031467 7.692924328166532 10.942682637376254 -0.5377732227661383 -1.1496109287478589 -0.5121066712379697
Ni 4.354982410708206 1.4056793726616579 8.121277658201832 -0.09770757655581881 -0.7989942186289917 -0.9138245709080263
Ni 5.893725949640171 2.7961371788822444 6.325511973537726 -1.0189567220626903 -1.7520713072797374 -0.6106678540433353
Ni 3.2037061518316454 3.603083154478216 1.2994798873810736 0.6411655084115603 0.2622926316604773 -1.044576993733956
Ni 6.347162576131998 8.895243573175483 10.498439837014834 0.19320503283419627 -0.6712466440676568 -0.4170077359495915
Ni 8.800085719939332 7.3155863086882755 3.6309847470242884 0.15758522674805764 0.07672608920814528 -0.6042318686100046
Ni 4.555611881593302 8.452609646260923 8.862496909905259 0.2057273336709231 0.6729980795411249 -1.5978884213450093
Ni 7.561945055239063 4.322196079113318 1.3093333147239268 0.4755586969106068 -0.6176337438382072 0.152569261590705
Ni 8.320956934333333 1.021671539524678 6.164973341100875 1.3012188548665589 0.5194410001158538 0.3942599007301146
Ni 1.361435352872945 0.2888342970748004 11.006615061467109 0.6779433393615422 0.4618279775880756 -0.2058345486727487
Ni 4.113097882171916 6.392633546427779 9.572986125262108 0.5355307065888648 -2.098326397995799 0.2950536281415822
P 9.161842390497002 8.29390867202714 12.997147607638553 -0.9584807761648203 -0.6596000609676641 -0.28442520189345855
P 6.885424841063613 0.2879366859143664 8.55882389184836 -2.157492109722678 -0.22363866673370517 -1.8425422568778007
P 3.297009741519519 0.8969460241065431 10.14807627830851 0.4399234642055004 0.3679094357610438 -1.0745740543166784
P 0.9962930369311106 0.36925306140010183 7.484672081311583 -0.4497373649721287 -1.5744091072761466 0.09926335107871292
P 5.828356240669607 0.4814784419529936 2.9458528163199054 0.540285704775347 1.2429304035383109 -1.7815963133220478
P 4.142673847026505 1.0384706137605508 5.7477751129689345 0.1624368984134041 0.65288202551754 -0.17327924044454673
P 4.662873186448048 3.576579178487188 3.357258546531634 1.2634436930003143 0.061001222273720755 -1.7979626704952132
P 7.596982333628873 7.321674935264704 6.008241945312649 1.1760745222560263 1.2066192278121026 -0.2841796615415557
Ni 5.265933198459712 1.2086016006128109 0.546843538327665 0.29854724311713743 -0.5588799228377666 -0.7283881262756552
Ni 2.629760845085449 3.74888731060011 11.15405668913039 0.8237675689189297 0.06977151226718306 0.25162306776177307
Ni 0.7733791927762862 5.74483135427115 4.729507669211987 0.9122441137947839 -1.8703358820513012 0.26302462473049537
Ni 6.635966430073918 6.588613520654513 3.2101683986752643 0.3811449606147113 -0.0687906364111525 0.5692972615163486
Ni 5.388065512467795 2.0273834972656877 10.075584721281883 -0.46598545139987485 0.47798556118454455 1.101308127877413
Ni 5.507753150653524 3.919073648603065 0.10264594140597784 -0.3412321835801736 0.09920293015442269 -0.410756355723241
Ni 5.054288848586349 7.8764041675280225 1.6588287828835186 0.8895836960827905 3.2368949528865674 -1.3280570581053257
Ni 2.127670557132889 6.182446776856047 6.973351066461486 -0.25796006572339447 -0.5125203617366205 0.4024370372242682
Ni 6.2590896701847845 2.5386897518089326 2.1581330629177735 -0.45278875020394277 0.5626977539219599 0.8433017822971154
Ni 9.026305872828994 7.744207169285266 7.759761765149685 -0.11422614303613231 0.2564947940317776 1.1114765837699827
Ni 6.9930459283978745 2.0731681240820725 4.356609734538632 0.01629513761559774 -0.8536669275815233 0.563403778850049
Ni 3.5962288369838427 3.310653800165788 7.3147357460059315 -0.1574345601028063 1.9171343304620792 -1.2151185235323652
Ni 3.5950756880110344 1.7238101112800392 12.154446633732094 1.0978931886585932 -0.7484581575526529 0.40308392677964766
Ni 4.882441976062551 6.213452646436918 12.512979099761791 -0.29699223992519175 0.5727219709271814 0.5640316422420351
Ni 2.1921730980758993 4.6209631401803 8.964829194790633 0.22895905050535406 0.07081872258477481 0.11516022481462748
Ni 6.09773184071765 5.155599904741405 7.319097416680683 -0.8458114360928466 -1.598151702308725 0.5479483635269272
Ni 0.8470405041209303 7.9667741462290715 5.574908856753173 -0.5846243787917221 1.0546233222263643 -0.3835083186405653
Ni 2.1048289822795 1.8130638417754095 6.427100707965433 0.1938804616346661 -1.133239686478687 -2.5799467277194537
Ni 3.470803129509419 6.344201289569826 5.034828306521235 -1.2820949895529146 0.5155018129624477 0.3683807189705075
Ni 2.4295557330223456 0.3196538177816669 4.342027473888087 1.2942997591492227 -1.8430811601004065 0.1674369227311568
Ni 8.68906053683734 0.8145078653000597 9.309034937982158 2.3944681169952373 0.23217061546411627 -1.1371958429129576
Ni 9.49050829813096 2.9733438878316574 4.716694800345318 -0.9453046437941783 0.7153297504298003 1.1557165274249646
Ni 7.755166697122839 2.259323269060478 0.08605351146603234 -0.29475512306455687 -0.7898182085566784 -0.1477924090273519
Ni 4.375028752451507 6.276608309379689 2.8671905285099855 -0.8446330995140292 -2.9970899608056447 0.979540939269229
P 0.3956832358568704 0.7563301158431085 4.07563253330496 -1.4922988709379525 0.1453462614797045 1.0331345562249692
P 4.393829693304175 4.050818612448479 9.061854226843554 1.1106630867297518 0.4978997836099683 1.7668533506849184
P 4.509587399790574 8.591891591792614 13.228854904600423 -1.0625484906107119 0.3021758410086602 -0.2950297168821822
P 0.7306776250536019 6.1476585786443625 9.445270725187278 -0.6326428156525298 0.766021620357713 -0.6394366986459117
P 9.224979603056207 3.8058436446650625 13.472728384485015 0.04527275579487042 0.8196702589211046 -0.9670950001963926
P 5.811335761830955 5.984778592533122 1.116981608425238 -0.2174677620363029 -1.7473409916836036 -0.5354013800998522
P 4.5349474520005755 6.863644163265207 7.130163643937397 -1.475896261210213 0.35304563127533395 1.2689425113313564
P 2.3991679512908983 1.5737623669382101 0.9406826583472201 0.2881075358410522 -0.1400274203699524 -0.3623607380286727
Ni 2.707206330099261 4.498757024637957 3.429156923726649 0.12108070406412048 0.7900323814500135 0.3291359145372718
Ni 1.0558416498869365 3.8547094855367914 6.999545076008623 -0.4349247254393284 0.32991110214039954 -1.337813109050825
Ni 6.646381671596322 7.240004312414522 8.181212806693342 -0.33980007911933735 1.2746747858294436 -0.24083497600733364
Ni 8.049459540175324 0.6562423201184089 11.478712405896509 0.7870144205592963 0.9598285484419663 2.819533947362615
Ni 6.071984330452784 0.18619942589896155 6.330939153863352 -0.5460449758566274 -0.8252886335491464 1.1751921196510726
Ni 7.740904550627143 5.524875106601784 12.423906183025357 -1.4201537162322704 -0.34780932257705904 -0.24441755115226937
Ni 7.587480386092932 5.629165899702576 9.744178009169353 1.1311195548118906 0.2964451091724701 -0.7378613558734131
Ni 4.207960529271026 8.444675981328002 11.136680117888936 -1.7195442811863095 -1.0091009123145331 1.0946073188184695
Ni 2.7136455139634226 8.811322003530378 2.001104615954152 0.018748484252096746 -0.24366370370538035 -0.3616467426807836
Ni 2.1061205091290454 7.795157903499834 8.724304459523077 -0.15327477229816183 0.7841723231248108 0.8033725502023454
Ni 0.26458495795540715 4.623739922906823 10.985875907820944 0.9215869884622644 0.21676250843916214 0.8813263411700047
Ni 5.733973303543186 6.559508040580829 5.405593376854483 1.102429900186682 -0.47030156227672554 -0.042485422857720376
Ni 0.5283442612462835 7.510182504147639 1.5296419647193826 2.4022341340939013 1.1028633881796748 -0.11070398881548676
Ni 2.1659366526465624 6.136302367560146 11.24321078755451 0.8510670280648309 0.9116069944314171 -0.3514818863326398
Ni 7.796966041089196 3.0999319694706724 10.710610945338974 -1.0705459069938918 -1.5218477882396628 0.5198456917534402
Ni 8.953057850076204 3.783177348455541 8.76289251422996 -0.41660124453979214 0.34551666988814045 0.09086484260237254
Ni 4.942627127251367 8.235301028633126 4.090363319543203 -1.4873063028193676 1.0628161424498017 0.790833022974438
Ni 8.60417954724686 2.003859258220396 2.6492140069971373 0.44447868767635057 0.19855858383662578 -1.289883632359398
Ni 6.6992696960852065 7.966192959146776 12.837836848227948 0.29409486377273863 0.09258619616885345 0.20776621847782284
Ni 1.850610372330051 2.0269868140190415 8.668406254955574 0.17046568225515157 -0.2538025919115951 1.498132446900594
Ni 7.824327959915995 6.575052488734286 1.221237345797256 -0.092795226855866 0.8317716701703288 -1.0074098977653554
Ni 0.6335271303924398 5.910995508656949 13.070368877335172 1.226968480892416 0.6467427453890215 1.073087442468823
Ni 7.701199325195405 9.10903739273416 1.644449476452187 -1.2697408388629359 -0.4121450085406515 0.3268383767523468
Ni 2.5963195248740054 6.167068382154673 1.3744087400766285 -0.7204940682395592 0.23776122217801632 -0.4713426019467302
P 0.5939436774922295 2.4977206751029954 10.34542158091905 0.7980341687085676 -0.34626460379775853 1.1495247967919557
P 8.410053836568402 5.03993445017283 3.125551249569762 0.7796291838388186 0.8142071789240042 1.1299653866027894
P 6.277374000297634 6.766336840343743 10.959708651329976 0.0397705950297186 -0.19550899837702457 -0.5282657974963353
P 7.828903655040098 3.585933522954609 6.727412066136801 1.2385477010895831 -0.752725160359123 -1.01611693862105
P 2.442544803052059 4.144435858656957 5.469538716213832 -0.5475205319608893 0.23662813701483765 0.7720135762750897
P 6.098709711046592 2.3607265771333577 12.073880266338275 -0.24788236977241823 -0.3415520288134376 0.715652938097174
P 2.1430674022178264 7.169865179292424 3.508048918811952 -0.49495561337997984 0.49481548825768973 -0.5099364030595283
P 3.1673681214005076 5.01891946329237 13.089258380028951 -0.6612365681298225 -0.6951694734318414 -1.082168835944801
