# total energy = -381161.11416064744 ev
CRYSTAL
PRIMVEC
9.29531570091564 0.00000000000000 0.00000000000000

0.00000000000000 9.29531570091564 0.00000000000000

0.00000000000000 0.00000000000000 13.60463411320493

PRIMCOORD
 96 1
Ni 3.016980616824357 6.303004851276234 10.825588651456277 1.2010486757028607 2.090697677805948 -0.16045586342763332
Ni 3.6162868012811265 4.37510989846958 11.867090664872922 -2.8734782627895545 -1.5294250863662884 -0.5764698680053878
Ni 2.631987231152141 1.148668637656191 9.380708047443928 -0.10164213572353463 0.29861897689533734 1.274433873463231
Ni 4.37873507159267 0.7288159590449641 5.9804750575780075 -0.7732939856494102 -2.6485751275211284 -2.193131713303158
Ni 0.9784621118692396 8.2754057756556 2.298421109123029 -0.9653831597116083 -0.1191660035399109 -1.301730504395655
Ni 8.53843532402507 0.07235566694217728 1.145506371254972 0.34830323149434206 -0.13027445474824662 -0.02305456782661836
Ni 2.3890541553265727 2.750112103070691 12.886880679876965 -0.07975716272498522 -1.7207886951163718 -1.18367984540711
Ni 7.682160137035383 3.5630990048443976 13.460670293205025 -0.1257822233048479 -0.07292522740481634 -0.627664645711648
Ni 0.7813540129142464 1.885880125841605 3.0753682128637956 0.6188372772280052 -1.164215308924595 0.5188748431997386
Ni 4.130466484555169 2.8778762173703827 2.1021876993754276 -1.8386742892819623 -0.04124769379587735 1.3496067592516432
Ni 4.071320390754592 5.512559090075591 8.27780768523254 -0.7483931086426724 -1.350867371131622 2.4047054784525295
Ni 4.445782183738445 2.785174033891967 5.171148651127053 -0.046574248215113336 1.6974122251739605 -0.06523557207004249
Ni 7.132342213366649 9.15422210321835 12.60768657750479 0.5053302717460846 0.23370530694108782 1.5039637088703905
Ni 6.679297821453034 1.4509987808062423 5.944259578078333 -0.5002975944181836 0.0015562887435263519 -2.2778130528026383
Ni 4.876387683551701 4.949690543163731 6.239969597386679 2.1116642527552862 -1.74685376763454 1.4579219361199793
Ni 5.601691872325117 4.677718901090638 11.368045614621996 2.877625195078392 1.2264558029220556 1.7720323237826967
Ni 0.202862828905007 4.815689272029185 1.9417626342998306 -0.8253423696052172 -0.8323715085378568 0.2526977888831906
Ni 3.113484584424168 1.904033877404158 7.278791771286947 -2.839461539524478 1.3292420795523625 0.21729626945544514
Ni 0.47033089052133775 1.0537541690411203 8.473754799256573 -1.0517236320810661 0.16613877274502356 -0.904538774730726
Ni 7.393875215908381 2.157907539808899 10.876686860923593 -0.2674852316050103 -0.05668434006592174 0.8993022089221351
Ni 2.6038967871060392 8.147102533045295 3.704691760311324 2.5254668515040186 0.32451435660486044 1.0695799435361966
Ni 3.6806010906110327 0.605378814203731 1.7836223578233505 0.2295025817136499 -0.9466339041285634 0.14523261871997567
Ni 5.188422136292795 2.292141193835952 7.8839400616613124 0.21685661081486524 0.2858603916780883 -0.13562774864035995
Ni 7.644634947553545 5.778972133359946 10.138091300230416 0.6686143486511323 1.2997769802137098 1.7475289393246933
P 7.4786670857259 5.6892258602742025 2.47941763737481 0.3514080956719109 -2.500225817549042 0.3093163087081834
Ni 1.810457934249921 2.8658294882228814 1.4066378161584545 -0.4890906699587706 0.11626091407797397 -1.833956314981003
P 5.5111183161420545 6.721173218682579 7.468944185503457 1.1641787992597048 1.5739704770768312 -1.1006090449278594
Ni 8.292704358173731 3.5784548663811813 3.833540637953233 -0.5974089321509002 0.6814922330550651 0.15208512286543485
P 2.2115229207678384 8.401822069178758 10.135180007353103 0.546120309179253 -1.0535701983715016 -0.5406739413527011
P 1.5615479704291038 9.449153175071018 6.391511129247565 -0.9973095761065599 -0.9637872759793983 1.0758668049861728
P 6.823021992810023 3.521632601505662 5.8900994916193605 -2.2498924151329707 -0.37429657023431023 -0.7803377798700689
Ni 4.722587389975659 7.069719671494185 5.312391902723651 -0.3664400503043689 0.9481703953777477 -0.6188565605017148
Ni 0.522308436853896 8.666654908794072 4.432280737683858 -0.20814211376000283 1.5767135870396072 2.767625945639414
Ni 4.045674614737652 0.9826450039343442 13.119071159347774 -0.4870587271304063 -0.6381565463819073 0.0045120289377406165
Ni 4.458433108406461 8.117162321174847 12.047910582126399 0.21036637510483125 -1.2183707119210758 -0.263275821509353
Ni 8.44116914053784 4.635694778809889 6.265831954259435 3.1306914230445955 0.21198359899328006 0.7242633054740043
Ni 4.440019088004301 9.04050321094171 9.364954346395173 -0.60757404560936 -0.2994777253512068 0.6427017425504287
Ni 8.300568195256128 -0.0844795472099901 6.596410561822493 1.2808004391112071 0.32702272484901096 -0.08884061308349216
Ni 5.701272589421705 0.37710631030056924 11.040419199325335 1.112812786082903 0.7158385717454188 -1.1931404765993774
Ni 1.1239895744720745 7.856521668940337 8.222314650502154 -1.5607961444784022 3.63678145577484 -0.9127148827836152
Ni 6.99544080373363 5.1885801566596985 8.13286396845568 -1.0396008806756032 -0.44194486551090334 -2.8806745234276776
Ni 0.6360784533668877 6.850610489808312 10.914249231668231 1.4306240196359747 0.782615263050336 -0.8469573767718317
Ni 2.3314231979851336 0.3980142639051014 11.855160127171674 -1.2757479642889642 0.2780876897112049 -1.4305170617444654
Ni 5.757360524356906 9.322550975233856 7.452061103597125 2.2145055509932443 -1.9416855374388817 2.0838022362376956
Ni 6.568172322256757 8.585571869940948 4.964031356226049 -0.11583873893889081 0.09814389276228903 -0.2841670631360655
Ni 1.326144100320724 4.043490215548097 5.04133306065232 -1.861926832052 -0.21185427250426742 0.4962213674662809
Ni 0.8713122191979533 6.206714675937529 4.094953730922432 0.35594429297936764 -0.12443547946896634 -0.18888583663355213
Ni 8.067079160181997 8.27346305467425 10.55789006601058 -0.6959778282657497 0.4341899041558329 -0.17779538314734541
Ni 1.0538099409353217 3.6890598278982436 8.311683533770466 0.38250044620134127 -0.5393896753236389 -0.8706845451854424
Ni 0.7574436723385392 2.004915938698778 10.776353223255288 -0.0017138973673131773 1.073869572050486 -0.510522100359669
Ni 4.515989703222298 2.263344305796633 11.307232870716367 -0.3970572609695936 1.2362028550064905 -1.4031304422013964
Ni 8.43595446843001 3.715616544853807 9.55571839238476 0.24623274998413724 -0.02510116594300193 0.3231316173247209
Ni 3.3937662387332685 5.002051056503139 4.643969468846236 -0.7793288789895804 0.31112867932657384 -2.7049900159757474
Ni 1.74315984858024 0.3109552665882969 0.5302652270932947 -0.889902769985106 0.8817184344021008 0.11132953821462763
Ni 2.2468358251130205 1.592501371710877 4.982221359519834 0.10820307677050398 -0.07155662919206386 -0.45469162365361043
Ni 6.044083832446266 2.1496625947827934 3.5296814153704927 0.4802576450481728 -0.7129933889871398 1.3451620932167285
P 2.9936493744167745 3.3091602752297553 9.416243109834344 0.7856586778623501 0.055787282172949086 -0.2505488608609878
Ni 6.641214913029182 5.518192051389931 5.0027779501908975 0.5479704750141143 0.4344922658876001 -2.133354850354842
P 6.461053104127282 6.793007418413973 11.897497501591522 -0.6472353687547241 0.21801694967155358 0.12334867416269077
Ni 8.323964504873613 2.221831425879396 1.6716556325562042 -0.7413151187499684 1.242170642554151 -0.3871034921909914
P 4.294500920717167 0.8460456920615822 3.7481176161996688 0.19435431594729108 -0.03630500507862135 1.315152948449148
P 7.323370246322121 0.6988357773170052 9.290400337289892 -0.0942134473596313 -0.46523211817361815 -0.7947791521063796
P 9.070991846438472 3.9564024027526217 11.797054179197952 -0.6160247474798746 -1.9144092182214323 -0.8078275006499056
Ni 8.547935136670707 5.920205160109273 12.403535417843731 -1.4824780281927887 0.5873554045696401 1.5031597249118565
Ni -0.1779718325229253 2.325827417933594 5.9026834900143355 0.455228469993687 -1.0430024501579842 -0.11082303089185432
Ni 5.8708470337410406 7.061288820154075 2.7387625226007075 -0.8889134094886433 -0.14579054810597472 0.9182826066793798
Ni 8.22813909531992 1.1623978189454338 3.769531234978294 -1.9621980555699368 -1.8159897032002532 1.7778481591335251
Ni 8.143607494342008 7.377617708748675 3.6443140371804663 -0.7811628468745256 0.47319353911253986 -1.9394471350266664
Ni 3.7974525042786516 7.506831892297603 1.2005114019110958 -1.2278755660877176 -0.16326016564564785 2.413674514720359
Ni 1.6242448748271698 4.527422941533585 10.664496182713405 -1.1475352771657528 -1.0953182288425654 -0.3090391437873968
Ni 2.70602442070449 5.126515333729248 1.7783844474262698 0.180899733104282 -0.3778804309308266 -0.12369268776567084
Ni 0.9487078063127965 6.600492134946465 0.7650946466914003 -0.09020715441371562 0.3766761262100803 0.2051940868752724
Ni 2.3381530065521017 7.016996640842468 6.091719536815247 -1.5766503379018395 -0.2816334980809343 -1.1015945487695802
Ni 1.3131492489717995 4.7602705998244 13.066679971466554 0.5834635257144016 0.2254554082274698 0.5419412381008989
Ni 5.804748043796688 8.02434859390803 0.6192139620919564 0.9666604837621352 0.8771004760141153 -1.3540419122048615
Ni 6.162022798050812 3.62444808846593 1.9833247793902788 3.0751334832736332 2.2264244139180174 -0.8233358806981499
Ni 2.417246847845377 7.613272552380962 13.135043300315482 -0.8455800368083308 -0.030704113952076156 -2.4190445207830207
Ni 5.769518797292808 3.9354042845857973 9.380721990417479 -0.7847053128101453 -1.7295037063918666 -0.19462016801416804
Ni 4.912992636779215 3.4581548905887765 0.03568564650476134 0.224298154694575 -0.1768798133116115 -1.341991923018863
Ni 5.407438364821664 6.770800909206119 9.728972852189816 0.38614987002847045 0.35228767006338685 1.2352854853985435
Ni 9.100476587839609 1.3850299252816947 12.79585258275616 0.26669873114797293 0.9916027555297695 0.3440912502955235
Ni 7.4420249512355845 7.550324674458989 8.072608943492064 0.693868752342547 0.5401635773751858 0.5242397070560777
Ni 8.392675478529728 6.854700428716414 5.769317088942113 0.9951279950742087 1.096717423182937 1.7547113160057457
Ni 1.9141471808860109 6.031479384356753 8.706720508056783 -0.048927321828322184 -2.756450388638569 0.4260557050844727
Ni 4.204875486735528 5.925986846474817 13.19422285725258 0.48695588300395487 0.8230013801768665 0.6267465047727527
Ni 2.7077254634776327 4.6160258907881975 6.745925714860728 -1.1562844841132927 -0.9539029269861509 1.0080544733278898
Ni 3.7419687648639655 7.929592145659862 7.524151854041846 -0.16118708516670305 0.48053455285864344 0.18651090864347233
Ni 6.404119295463359 5.560327717459084 0.4437081768243028 -0.23985538570288367 -0.09040152981270883 -0.4531954987240582
P 2.265277731462281 3.2872698067557082 3.3906560260999705 2.128723265120102 1.2030009143332248 0.07405111347914342
Ni 6.507845723362251 9.40481451918091 2.53348198208207 -0.4724787724337024 -0.1353241013570121 -0.8059858194554764
P 9.009373198661633 5.853353249593202 8.198873723369308 1.173825064100217 0.044434576164291216 -0.06755907799689656
Ni 7.5547771306794 2.3720158416480475 7.755104197461384 1.154590127130005 0.6783297761666834 2.024029487054437
P 0.005236051333940784 8.545806509375355 12.659533989417547 0.6745528256227544 -0.8605333156840534 0.3086750755797587
P 5.764517917446083 1.395050275606545 0.4184407201563617 2.5334894646981785 -0.06685073907596228 1.7146383592442598
P 3.756348618252225 6.446394391268015 3.0990536067995573 0.5665564655464178 0.7108506316125242 0.3567032826325792
Ni 8.024859836271542 7.16040477146565 0.9974412874659738 0.23082387162823476 0.14048147718823548 -0.07878168618559335
