# total energy = -340854.1531705541 ev
CRYSTAL
PRIMVEC
9.45184129499431 0.00000000000000 0.00000000000000

0.00000000000000 9.45184129499431 0.00000000000000

0.00000000000000 0.00000000000000 13.83372514198023

PRIMCOORD
 96 1
Ni 7.327010452844757 3.9207087244406953 10.488466965372897 0.27926216963528033 -0.5394886627953484 0.5878454568321811
Ni 5.084806917128994 6.627111076659309 8.828019518929459 -0.1758446871788778 1.0219050060577368 -0.37342548048326657
Ni 6.150511444729439 6.049726463861832 6.5662327137904954 -0.44856571326153066 -0.6561586393862828 0.24629188535684676
Ni 2.4219397446793196 2.764105841686563 13.624047172722268 -0.3955868470716542 1.1410370710359188 -0.7754920217419935
Ni 6.154622995576049 0.3222425613070813 7.568458677055683 -0.22677207015636427 -1.152034450587687 0.24173254812093853
Ni 1.8548198312368287 7.84847797412833 2.417733675422442 0.4365920858394223 0.4599240756971434 -0.38437349485433797
Ni 8.63654412341075 5.836738678166375 11.137199745344457 1.4626663927835004 0.12075983038959201 0.34250050876963595
Ni 7.7131370624671405 1.0511581442603672 5.521606736863674 0.3619704445687895 -1.312090250363424 -1.549226694473248
Ni 8.38728962369588 2.9525188407126226 6.80882083002924 0.8606163623161629 1.119003231164331 0.7556227936218922
Ni 8.396599687107171 7.565338624332772 3.850728238663178 0.33930051377509957 0.9565809880389462 -2.3449183310915678
Ni 4.906630261934841 4.271731196489949 2.9639168158067095 1.3798030803293655 -0.4001122457458335 1.9581645089305115
Ni 2.232231843432603 9.139618362056384 6.063293636471545 0.25996886862330715 -0.6492950794972302 0.8748075662148805
Ni 6.30055942102816 3.1513572203911226 1.254124142915223 -1.1414695305876472 0.5171946272838384 -1.623767088883984
Ni 4.424094873840208 4.65695042937377 12.858959394159836 -0.2569282820247704 -0.5904420139147637 1.3310243682637657
Ni 5.328834548756104 1.0018856969882266 5.192128791250661 -0.668223798080933 -0.34915143842725027 -0.08488522798016994
Ni 0.7398182815775741 5.643940024903932 0.09894376223560745 0.8094053866599866 0.1283947212270305 -0.3302494593164248
Ni 9.469421451000715 3.5108863493643976 13.166870128918145 -0.4517384545625575 -0.578647592382997 -1.10496500790371
Ni 0.9949953048797688 3.110695400294298 8.009228270021572 1.8627809525221792 -1.772776658147889 0.6174311409090979
Ni 9.094533080359065 8.088724869344762 1.5707362425227045 -0.6022019826641692 0.19583861380230144 0.13320422680053187
Ni 6.734105917081452 5.87737214274012 13.070241122549973 0.2251949554772315 0.7738321175410673 -1.4940266522623369
Ni 8.350814969173879 6.901176659069244 5.891686955975044 0.4101776004016356 -1.4392567556103084 2.4955399820375987
Ni 9.43932678917173 0.6640324750414625 3.5158967702926462 -2.081114404992887 -0.759227480254015 -1.4890734220221193
Ni 3.6266903056234163 6.0918344156357405 2.817487004253006 -0.7895819241761564 1.0079799113362125 -0.5893454384164754
Ni 2.0585920719312614 4.6945593048189735 11.935405829680311 -1.3365380989931435 -1.53882169708984 0.4476989943858612
P 3.1492494598421708 5.757267598813957 0.6200369906145233 -1.4159106246852 -1.3349931231035266 0.38430921727530587
P 3.303465698033662 5.012944569803063 10.108067226228588 0.8397135507252248 0.8504368506799999 -0.714587215836821
P 1.850311303067097 2.724398657533434 6.137967906502917 -0.07041634494003356 0.5028923517285533 -1.5633600485508368
P 2.4788114721369197 6.1173071272026736 7.6821161202175405 0.5139174991944633 1.2478198704201284 -1.069358828664326
P 8.266655776672224 0.998322352921164 7.532670226192219 1.2141211926161026 -0.9558952748258313 1.1978113997124855
P 1.0845042394025333 0.5338239130577662 10.191097868911658 -1.257846144307879 -0.8601350518043702 1.7460179019968058
P 9.074277785038866 1.7861805617009983 0.6441921155423351 0.5035585245576424 3.144898824893229 2.3697112217655314
P 3.561850676180316 9.379969227524109 4.0493246512113945 1.2547106840026907 -1.3539462671672617 2.607868393830386
Ni 0.3602569207323301 4.960779859176754 6.830719800503981 1.025693783676208 1.0901734514168322 -1.1103249866640426
Ni 6.560589019513458 9.148200633708619 3.206311169304407 -0.16396850456658213 -0.32044584296244166 1.0284404931834095
Ni 2.7950984284130826 3.0781810671624807 9.90651049707081 -1.7691228634453855 -2.1256273998035975 0.11427987909220318
Ni 0.33726720780310937 2.6627253948342746 10.982954206445783 -1.26781791080861 1.4875366736626188 -2.4503582432946382
Ni 7.568306502415153 1.5149977908042047 11.798562075295878 -0.5265400730544804 2.555033766527858 -1.8796471321498982
Ni 6.167231751505656 9.368277300174093 10.493668313489886 -0.9056605470399951 0.9169397194982402 -0.2723551581028019
Ni 5.0718673467634545 2.9964509978046827 9.76501832726945 0.8638207281860736 -1.6295101620153483 0.39591774804851165
Ni 1.2628604795761937 5.342142740921686 9.198002384078254 0.27788714366462464 0.6852457865602263 1.2833489165646736
Ni 8.55144919864745 7.309666324560778 13.249776007299664 -0.3094178672830542 0.41236458075062526 0.2751329779582552
Ni 8.229831404032234 5.780868845857604 8.336327187248168 -0.9400685922062196 0.7980575657473352 0.1172818991433206
Ni 6.4022234231112485 3.6245730932334377 6.066406127721634 -1.3911056498263783 -0.12759870768829637 -1.0694400755242228
Ni 0.6235020355349085 7.867410011704791 7.477391133947617 -0.11118401377569884 -0.4960203071990683 0.006867930764426881
Ni 5.379534224023275 5.134041557037028 10.74902586695569 0.03886865204073951 0.9099771721374779 0.1975810504147049
Ni 7.549809249525918 1.4888161911602702 2.1143191814405293 2.0855498150564213 -0.09381698325216102 0.8834896673699107
Ni 3.3066604203006835 6.532743895848826 11.582798283890881 1.4182827244618024 0.7788323989691361 -0.4225674894255561
Ni 4.37433093083468 8.438546957583625 2.0840780160756314 0.2258199906557401 -0.3239587412117066 1.067101400088717
Ni 3.5915672643682326 2.477025074182875 7.360233674053576 -2.08015255530025 -0.48144009539204824 0.08957954813204573
Ni 7.581246072780693 5.091820183170799 3.5886475906750874 1.8382449150540277 -2.638389445237379 0.35368172219743604
Ni 2.268337876154563 7.617692371779613 13.43384683055806 -0.8237917372886456 -1.2009502024517833 0.3836214471796619
Ni 5.262312491610253 2.3108900644567263 12.053947039100661 0.03403420676657364 0.10702396886073827 1.0131311165198487
Ni 6.836450451718463 7.138030343357095 10.373758477488872 2.2086295518284413 -0.8099008382391665 -1.1078991508313694
Ni 3.828751763092018 2.9128967231287337 4.889751164229376 -0.5526858782119127 -0.6411541955576506 -0.3900481766416121
Ni 6.548982158732682 7.650622585916605 1.3180261497284762 1.4114906412406336 1.2060957512084647 0.3046389578371721
Ni 4.904645375319236 1.9711247350702623 2.991985948103674 1.6452057183737345 -0.5928120568088371 -0.3966199163218589
P 1.2469057719231393 9.240252113467562 0.5805169529137227 0.5659147181973608 0.18945919263851888 0.8738053502026112
P 7.408920107182062 7.769942627037554 8.36263922229827 -0.6237560546858613 0.6246232877821629 -0.9349227863392221
P 0.7046640492470019 7.45845720600295 11.913852796587149 0.583870274234517 -1.4215642234265518 -0.6908772738143909
P 7.247794573200058 2.4881498910712905 3.9473978879477634 -1.300888982330966 0.9652471483543764 0.5300074627777904
P 3.9934406411410834 1.9443854768057534 0.839388700873251 2.863346573672191 -0.38028826904137086 -0.27523067987838407
P 6.890826893145016 3.827891645558589 12.771806803605026 0.008745093182481713 -1.6492207530703984 -0.28940362894465643
P 0.044231780452606194 8.859938386076594 5.377141017875317 -0.10530570061805088 -3.805232678703124e-05 0.4980697335289293
P 3.880273748528511 -0.03617125042504405 7.633435358193671 -0.4605177434170843 0.9809892416799814 0.8345068097133047
Ni 2.318687833303746 7.049088519295932 4.8100693088220625 -0.26089729397484746 -0.7021302210203907 -0.36254611456660146
Ni 1.714989295087961 1.1919149608298505 4.59228471380556 1.3745145782369166 2.6079588966616636 -0.2899139929221717
Ni 8.723293120353722 8.77034438498459 11.002252030269975 0.16844710916322603 0.41730572680598454 -0.7011475453921473
Ni 6.344803488874101 8.171097663892375 5.711737135404284 0.35869357358973064 0.924707279258801 -0.7239406320272629
Ni 6.01754294516595 0.6104877956252575 0.9517521869985546 -2.450924143100437 -0.3032965848766648 -0.9261674087440952
Ni 2.0134878865518915 1.0605154668767913 8.528657029195688 1.2003529351874165 -1.2572504197054089 -1.66962991285437
Ni 7.305441351621848 1.896199991251682 9.241329623344607 -0.2738685094235348 -0.0538728387590556 -0.15006603555287704
Ni 8.866894941072239 3.866001468578208 1.5370101833712655 -1.4252005346275585 -0.6345320622554427 0.18832867857850147
Ni 5.709535801629167 5.469364521140947 1.1765982524460976 0.2044392109871189 -2.184997514231798 2.3471665036957963
Ni 6.776280031742548 9.164155341361672 12.82913316461601 -2.2010399124066415 -2.3580852074908294 0.08634252925198678
Ni 8.82204595540059 0.43010508073547443 13.149287814240296 2.2220108582313536 -2.8438735525492445 -0.2704090901200246
Ni 3.235610931303047 8.809824724953078 11.46236103516058 -0.35778700261506124 0.8489129578363057 -0.7420332278629156
Ni 0.4011862279302104 5.674242627235502 2.46335771205828 0.8930181756856362 1.347514909719621 1.529365950993579
Ni 4.652375738316851 4.49458670421727 8.132930184642495 -0.05410372382293908 0.6528344601090562 -0.6853193201106391
Ni 1.5019447983463443 1.2881347024815655 12.15397870823844 1.257130349187777 -2.0153733540413357 1.1611089020851293
Ni 2.953397861928105 0.8740249723155604 2.4274728524163445 -3.3559506561008585 1.0093960749574484 -2.7053548555143347
Ni 4.0593577804612275 7.678524420627397 6.506651143510543 0.22888988783031547 -1.8864150470013512 0.4332758769819957
Ni 6.100312717036683 6.516817543718851 3.8586819628871383 0.5665384678242888 3.3008264614332057 -2.0944062370057863
Ni 2.817140121687326 7.977429441255476 9.128611693180801 -0.09594097157369928 0.1813134236029329 -0.8874563653271427
Ni 4.730154938125492 7.038313420525505 0.10933889699676229 -1.4637508840969307 2.5233176663714993 -2.4647237679876906
Ni 9.183068475256082 3.5134667019646844 4.539024534804258 0.2903271692001903 -3.5382374993606547 -0.2121185819092476
Ni 3.413069246579172 4.792177918942638 6.0543985088813255 -0.9542194297853049 0.689234081784013 1.1291560033276167
Ni 3.7259346364036725 9.322284641738214 13.659405564819018 0.4376770913734849 2.107859791407531 0.9606201911053264
Ni 2.913917521959616 3.6064066547801374 1.9898847491400387 1.0998248584636672 0.9208994754769366 -0.2031202350653792
P 4.108441190912833 1.0825382564689814 10.65079193798119 0.45626436745736904 0.9407280801670896 -0.06718292560440042
P 5.551973611714227 2.396949077004748 7.634348406036849 3.071344962765478 0.7200086439627084 0.6995022964792404
P 9.050317368036206 4.015264942071713 9.133287518936704 -2.348023452379453 -0.6716899022526626 1.7802361997497276
P 7.771615602899278 5.906483813102329 1.6117260415031558 1.2559581832565465 0.4421425833440063 -0.6380997250020429
P 5.48055550091655 7.309732487447965 11.829840107621404 -1.957990959467125 0.9580699138796469 1.129276588065881
P 1.1003266212812142 2.8506941573320796 2.4683378870952435 -1.0876576269735139 -1.2969274265800566 1.2864902904071327
P 4.549558611628506 6.0848306014349625 4.886209559396675 -2.576302446098647 -0.502137990061032 1.3045957417585918
P 0.28437659578595154 5.392700638573456 4.698887302825096 0.3197832696777783 3.934900095994991 -0.049147151148612137
