# total energy = -340863.82364426274 ev
CRYSTAL
PRIMVEC
9.34147644076016 0.00000000000000 0.00000000000000

0.00000000000000 9.34147644076016 0.00000000000000

0.00000000000000 0.00000000000000 13.67219502196303

PRIMCOORD
 96 1
Ni 8.346852003627534 8.22614144613858 7.897565290894754 -2.265573316203337 -1.4941366954776396 0.9461443660866544
Ni 1.4788117562177936 2.193920454321369 2.5867930571848134 0.5690591773636136 0.9397819142037364 0.9967894419370318
Ni 7.124547846704677 8.433475513888721 9.818659520872627 -1.3440606326224336 -1.035236175949004 0.20359974580495904
Ni 6.088157752244688 -0.1393654857744701 13.412860742118925 0.4488279657839819 0.31684115633031884 0.2050148809849308
Ni 6.228597507800247 6.072081071433784 13.165490040849058 -2.664918858986475 3.2064921722249937 -0.5533453661727825
Ni 7.597329306623687 1.1932334824989568 8.57897461303939 0.42763770485961194 0.410762269260512 0.7061429417242097
Ni 3.3598114355225257 8.096313607724907 2.05164976939978 -0.42019333276642473 0.4935237660294597 -1.8285528845772445
Ni 0.5322791911338871 1.3990448896028598 7.997701246706767 2.146668793854929 1.2307693426957447 2.299526790330646
Ni 1.9607758873960235 2.0693612085732096 6.075759744823286 0.10342211044209286 -0.7432827839993005 -1.4435805797966428
Ni 3.009833023796504 1.2485163395814232 10.185347965506578 0.4757013931360581 -1.553009815664764 -0.8519481451182037
Ni 4.0155643928518545 3.9408232405171444 6.5939762774489035 0.5379920236451637 0.3016477364193321 0.8857018445298811
Ni 3.390853161457814 5.9152937322529615 0.4593091827165202 2.4777944851287197 0.6637184540114118 -0.25618729009368785
Ni 5.484745086945278 4.857913340418132 10.843048620656402 0.9281294175664725 1.1829229126364273 2.0664421476926926
Ni 9.378094944614654 7.729548562984827 10.096163956575854 -0.5796546934912726 -0.21809562542828892 0.8356152122861352
Ni 2.328036030383039 8.053679109630217 10.581266823810136 1.2296604259022823 -0.2245678634161939 -1.5002518072364421
Ni 7.786653007956966 0.27602381170059637 11.661056483278477 0.20743403194938467 0.720175765668192 -0.6590038221445619
Ni 6.373997587301528 0.2962312933566949 6.917009200622311 -0.14123995262081482 -0.7104675372414926 -0.9723606194707061
Ni 2.5287096254904307 2.6110453981036206 11.99363172455086 0.5569346261859376 0.3928439942191944 1.304710155849269
Ni 6.273716838605977 3.1896284192453424 7.176110927901669 0.6112646070870698 -0.4639733060658526 0.13434348261129767
Ni 8.749133341478045 7.406436237262382 5.647600649167799 -0.032411583561486115 -0.27456167883581745 2.070619418998834
Ni 1.8572910123099198 8.819110340870534 5.832872952204919 -0.8503491760622001 0.7104634234764344 -0.24567276371560914
Ni 2.7862261042319556 7.604148584364511 4.053587004068948 0.18973532911804097 -1.5639298050113777 1.7470566276739652
Ni 3.7308642179106033 3.0808282441119386 4.418730368513402 0.11402559698955202 -0.26847613476336984 -1.652232800423845
Ni 8.85441178002475 0.4214734010265721 6.4663053859261295 -0.09981639536870551 0.6973978485417279 -3.1367283732672946
P 1.031130843270833 7.7820102942073905 12.17644348271547 -0.4689609890884311 0.24360816787709658 0.5456305140270281
P 1.0200331693583677 3.988147159743196 12.573948523704496 -1.4401612697024486 0.8017113604498386 0.8913104489659102
P 3.9944900221897988 4.252772501992623 2.0006116791740682 1.1710400451559122 -1.7449876609600785 0.0853300288270724
P 3.158128960968547 6.027979961550999 9.485877832972749 0.9785176402110374 0.9107683005802056 -0.3487734862625413
P 2.116162005123253 0.9131853627836382 0.6881006216593664 -0.028323015314409283 -0.1370238576569382 0.15605336348456353
P 4.410129671231241 7.941637442200832 13.929095013461525 0.7442484903466795 -0.9041891047007913 -1.312074309523824
P 5.2626328035978975 4.116611142608704 8.95418061581592 1.8118736241493505 -0.6248865687458787 -2.8570486564786215
P 7.587016316725234 7.47752487234139 3.9150332925899267 -1.6095643150210408 -0.3747434279637417 -1.713720989636313
Ni 1.5990178739834535 4.105588200507097 4.4442148501637355 -0.5707735889515589 0.5714544170686674 0.2042929152172417
Ni 3.6544042339261513 1.2529722238038523 2.2303316608668293 -0.007083646319658769 -0.6267107664388111 1.3656769253406287
Ni 0.29181744577787344 2.4498021747003675 0.49372878650260593 0.9176642563690905 -0.13110414973839357 -0.9594963619135283
Ni 3.405117595855402 9.32856643696828 12.40949930561542 0.06288095579493687 -0.24848940722879784 0.5895436704702106
Ni 8.400219858056754 5.59158355204365 12.44254477822935 2.1595096543733394 -1.262393140248613 1.2063068387780063
Ni 2.2079606932863816 5.315739096689113 11.221112181050628 -1.696477114954201 -0.7487990858318395 0.82837524289427
Ni 1.104769701395382 5.9867280019571885 8.826222006821343 0.3208057974050217 0.28157590537012156 -0.7666186305117636
Ni 6.621976418682257 3.8769368837096105 13.024857850880538 -1.0494644037332441 -3.1750501516656287 -1.0106386891152983
Ni 5.248256271484021 2.29047395395036 0.9871651847952286 -2.3236825616412435 0.6791062493213916 -2.1092746694771867
Ni 6.191381065992787 4.769570998507202 4.457217251105453 -0.35291116257999866 -1.7806573464475461 2.1663071369111466
Ni 2.0402251438148093 4.193809103225382 1.2285685509680575 -1.0227457567914773 -0.5374356369210616 -0.06352296025430995
Ni 4.224187584339303 8.59476544467376 6.125306935422375 0.30269186141313026 -0.62823234528966 0.18175616756730634
Ni 3.9618509037974134 6.648842504685835 11.645469295828697 1.2772448605494648 0.9915140524707055 0.8248872843456697
Ni 5.147770010308609 8.88033437691624 3.6764118180763004 -0.22795014962486548 -1.0386284894600046 0.5951646162014137
Ni 6.459528144828913 5.4946563933603665 2.446694265516296 2.496040575823101 -0.5567500209789573 -1.32878133786586
Ni 0.855868866298189 8.377351923934098 1.1791465361521576 1.986664673252733 1.5584091323034646 -0.49755345601414314
Ni 4.462301816686728 6.06605581918333 2.958717399317026 -1.432995605191945 1.252141380613618 0.8637405097674414
Ni 8.679950367575925 6.795989440265931 1.5213192102340247 -1.7479819677017123 -1.9199270627158675 3.0623751551667002
Ni 5.021183664190917 1.4814180281214788 8.729313531090774 -0.12331962069696828 -0.08580465447064577 -0.10548259251554738
Ni 8.445236432622554 7.7909407456049635 13.29558037474837 -0.9015131005305249 2.153485045445814 -1.8018278098775744
Ni 1.7203916762937754 4.19750832786287 7.272732620308068 -0.5871836548784661 -1.0297018763943362 0.3139823467252851
Ni 7.33329247738477 5.500121157029384 9.090369065481275 -1.7312818813382118 0.640799126211077 -0.5102534200793147
Ni 3.6472019556546775 3.523081759295311 10.102206957631388 0.33160237379989344 0.20738440965837188 0.3864815423362763
Ni 9.061559018247744 4.973168475714426 10.3906082255054 0.8921373157425797 -1.2858624270151469 0.29439439729102845
P 6.350970848080799 0.7628763374565982 2.478481441264896 -0.09381132682520618 -0.339575364703041 -0.6829721600347012
P 6.942800082697164 2.6300459610143565 5.146487425604753 -0.8161218794482138 0.1210609065697786 1.049517882678999
P 7.133898664538329 6.469402085338573 11.078168909831316 -0.7955815934030169 1.1503364940599736 -1.419359245355433
P 9.056206352295016 2.0399729239531625 10.066522517946526 -0.4392063835338178 -1.0723726757899854 -2.1626415151341014
P 3.8223452958775836 5.337093711641888 4.931369105606079 -0.4781570537654023 0.6709548238588509 0.16523040199814124
P 1.4266396107623063 6.41680023197065 2.241296685815021 0.8616314338442387 0.24675365548461378 1.3610101159925785
P 3.436140638837976 0.7381513178341123 4.524840198455905 0.009510767703912652 -0.26811283788668017 -0.26015398805091966
P 0.5481316765122151 0.9930830100675744 4.468565276584294 -0.34102212445189656 0.3808641961494989 0.25012642861158857
Ni 6.030081793731391 2.9309535974355128 3.0917484299736153 -2.094106960597813 0.2924290460345415 1.394476108960508
Ni 2.6519610645485683 9.119111854085032 8.116703248169971 2.0646994539699732 1.560777375425325 0.7885048890618936
Ni 6.367271724324277 7.63681572718597 1.6073579440752457 -0.6256797540711354 1.25541670893078 0.4081469431248519
Ni -0.18416066735060233 5.884345421081246 3.8575692007780327 -0.08868608978349887 -0.35946798986191 -0.6354108653159702
Ni 8.394671021100521 2.687486699135358 11.830331508053733 0.5799220882200464 1.0552419296469697 2.581410970969806
Ni 7.560318377296088 0.29530368475441554 4.460785695073939 -0.1971629890406798 0.36741244151996727 -0.5773165322763993
Ni 4.4365100004642395 1.6324136519607797 6.2721876389262885 0.4216236374550481 -0.1866489768832334 0.1409476181913766
Ni 4.852457918225473 7.739796162548778 9.363293375326522 -1.1380548484791433 -1.2493676745232225 -0.9763625415412476
Ni -0.07571173172823263 4.245159198761428 2.2653874191928467 -0.6067950013514904 0.612734506764377 -1.266070074879568
Ni 8.356483065751904 2.6902237517080447 3.592081640260828 1.1981780390232848 -0.7604844925895677 0.4215727296124546
Ni 1.1445643906774547 6.2451599453817295 0.13438087399021797 -0.20220929321533562 -1.072407899903295 -2.4870136897341424
Ni 9.138364636857418 0.7122231160568068 2.3488553787405406 -1.5800925308141691 -0.172481941354232 -0.7156349403750449
Ni 1.4699653781074362 3.1223791309491826 9.58254062787512 -0.46177809818674664 0.49295246690702194 -0.2840691041056205
Ni 5.737319924693795 6.692775467994188 5.450270368448685 -1.5543066800993166 1.7372874641023432 -1.8397155860622831
Ni 3.7819807765377167 6.200956079259013 7.375725199590143 3.178902949752816 0.5969065385931849 1.3811086865146665
Ni 7.185248760074374 5.448481475726262 6.602262166977823 1.6478102458761168 -0.5869229450179118 1.0804973617796487
Ni 8.754635471052492 3.750686830740781 8.190259901302577 -0.17110820093515694 -0.07981989764212061 0.2962615324067543
Ni 1.1239570938332641 0.721367487262962 11.753234435381712 -1.1037761298019313 -0.36030205572743107 -0.15168403077227424
Ni 6.623807348048286 2.6073741978952034 10.215029572484243 -0.09072086082534053 0.5455688075511571 0.049633603866727424
Ni 1.9254931311945238 6.3113162809440855 6.4344079807565135 -2.732196658297527 1.5295443855529722 -2.3158905764006503
Ni 9.138999857249713 3.0803051214359303 5.9186389149365075 -0.9069214160302896 -0.16096622740514857 0.050410334131751895
Ni 5.080193770339943 1.6728435616351485 12.194490280890127 0.7028221048810929 -0.24092907838303668 -0.9670556623180248
Ni 7.317935090253378 2.384000815239588 1.4504697169497633 3.9989514179489456 -0.24317596543568443 -2.249940494762087
Ni 0.5069721975343418 8.199060506178784 3.7841489332002443 -0.08401722355291981 0.8300839980552608 -1.1904930116742012
P 8.30888824371149 0.8086140739971813 -0.04847011837509169 -0.38082820070524087 -0.24050716035426967 0.4711076031177886
P 5.968913806543829 7.447127708274755 7.368260425833029 0.2673211952233202 0.5475729824653794 1.343035533792029
P 7.57128527053955 5.05690546978121 0.7100241325222998 2.0509093421644162 -0.6411714219488313 2.163144937133081
P 4.476977276044037 3.658776044861365 12.46939685201839 -0.3641101166196116 0.9944517949427906 0.1487455169692406
P 3.0470214411748917 2.2819545275125077 7.89200150757635 -0.6199117412391065 -0.20009790329928764 1.8920151667969478
P 5.187069601343746 0.09520832703354107 10.529025551429603 -0.20205374147407784 1.6624501072764786 1.0235060319962694
P -0.008502611780409055 5.273113940070781 5.869172061034093 0.6462580924431193 -0.9967881563854512 1.1392426981396573
P 1.0131111353776128 8.052866401187131 7.735782130158049 -0.21674271094482028 -1.587384693600208 0.10374709788167938
