# total energy = -340891.988794888 ev
CRYSTAL
PRIMVEC
9.05135401603715 0.00000000000000 0.00000000000000

0.00000000000000 9.05135401603715 0.00000000000000

0.00000000000000 0.00000000000000 13.24757152735269

PRIMCOORD
 96 1
Ni 6.317473912823278 1.658642498451972 11.324010371644091 0.36644313562816244 0.7338679184433039 0.8218312711281651
Ni 4.707509595615711 0.1782790868468383 6.109872965035337 -0.4607499140325484 -0.28722847567020854 -1.100306426085776
Ni 2.5044824685353477 1.5045522497526884 4.748286850045641 0.7086402542247666 1.4979272728683235 -0.14538328536522702
Ni 3.6251939536856783 4.497101822985098 5.156351753075742 -1.6774170129989565 -0.17845281422568623 -0.9085453247869578
Ni 5.191259204505116 4.643932885861025 2.4494230827953487 0.24304586761572333 0.0750571861461546 0.14940963291580076
Ni 7.383107909525822 6.1024318469987024 2.77435944652334 -0.4416630726044264 0.18838395729646912 -1.5173732974080771
Ni 5.235954790035958 4.531315940706157 11.683112880917498 -0.796183488653074 0.4548957692446166 0.17882922372849847
Ni 5.569841132494792 7.869210870427785 12.677462034888833 -0.09995909159415689 1.0789235895346259 -1.3404896274417237
Ni 1.840800995577976 6.636850934989293 0.6619427078742458 0.060708887844282536 -0.17080558209307356 -0.6727689942494542
Ni 2.6961358358966394 1.8235129096395577 0.09752562280663617 0.8580277756533804 -1.5520225120508302 0.29798391441449973
Ni 0.5399440344077692 -0.08729306722894935 4.708398438568146 0.0374602017289871 0.5403067878212694 0.26830438507219595
Ni 8.71908774434809 2.504591084782081 0.9900877765578235 -0.6750166526330504 -0.9233929313227516 0.7557796309147305
Ni 6.85583033975796 0.6066561331514957 4.936786725710104 -0.4290980914552223 0.5098852381066187 0.3264059172006185
Ni 0.39882709124541454 7.564723325418158 2.6236281552542904 1.7686924607761862 -0.4514345501688935 -0.26395922072962286
Ni 7.578897745616882 3.807660196844094 3.862343046262083 0.672754596071751 -0.0006880272059601054 -0.24222954236201505
Ni 7.485152873331961 3.9026722586742384 12.451988283700894 1.0645745199018053 -0.33830652529294636 -0.45304920295418105
Ni 7.771157553689102 8.4901790043572 6.9790853411449865 1.0759776195324244 0.843368888089625 0.3249689276437758
Ni 6.836016926082987 0.7026122511928327 0.6849838343479826 0.5218601510803077 0.30215990016906025 -1.6961284733655304
Ni 1.8740828238479048 6.481656421114885 9.206969296290316 0.30802381514900495 0.32531216991580747 -0.41580883054548384
Ni 9.245686462573868 4.815456042161038 1.2847093458224905 0.209920031596032 0.34793942039702014 0.7327926831012541
Ni 6.280118975300843 1.7388827507263585 7.144163933472145 1.0595809233419557 0.5209818622404124 -1.5068392306459728
Ni 3.512649419361965 4.222782440505704 0.4981466923939326 -0.9023258262398073 0.7425083677271213 -0.2326994913843928
Ni 5.904170991294454 5.696035108491351 4.548050083786234 0.9550540098714585 -0.9582123529947819 1.377898664217801
Ni 5.0992974489374046 2.622856074767093 9.129801978663098 1.2880594346664658 1.2412679282342234 0.7039510762792134
P 9.454682223996944 5.612310084967598 12.516199493363581 -0.8935745624097384 -0.014424660065762254 -0.5744170992414172
P 3.9823241729454852 6.122181901196413 12.693438579647946 0.11951053136352321 0.08387452732746846 0.07982915361350124
P 2.412185812873541 8.649446627484116 1.3832450997237487 0.5245017024682128 -0.4012826119048508 0.7457703263078447
P 6.457543614340044 7.483360705260858 5.644352782889374 -1.6171778657022406 0.8731476620139542 0.2329604583552633
P 4.73433780855889 1.2127728056108817 12.786648516917705 0.6812191818993365 -0.1859828040541442 -1.3509743290231315
P 3.9290026471532222 6.071277086893971 7.865030050063935 0.4590776685364481 1.01269402898243 1.4637699102603243
P 4.723150335145338 1.198390204272585 4.028215442325785 0.10024294138316284 -0.40151169719652136 -1.1185013518272477
P 0.23376660162604532 5.5478734965929375 3.569412269904902 1.1743904496853839 -0.4577424946647923 -0.43895055876926986
Ni 1.170711164063327 1.0896743926462282 2.518138246155919 0.20477422572903442 0.6537685418875515 0.832583881658979
Ni 1.846494297177591 6.608302964806167 4.736893910898686 0.8301086806456092 0.42420502502897905 -0.3671332197166516
Ni 5.837326742783869 5.7454283466934175 9.207234500959423 1.538334987261409 -0.039198781686648615 -0.28054977809845233
Ni 8.413903245088589 2.465172438571708 10.152302653516983 -0.16771974407889825 -0.4421256140631418 0.7349305553798633
Ni 2.2149387088054726 5.1274019027797015 7.003236163606184 -0.07111388522769042 -0.10406360068083369 0.5871013795773051
Ni 0.8359640378491302 0.16048684049649864 9.245016662385677 -0.3773209588829308 -0.86050631910086 -0.030843981964050103
Ni 1.742412778745198 1.2046356384597625 11.289646906583773 -0.7183538819681048 -0.5836833550346916 -0.5344094485002281
Ni 4.177733852172977 6.8461544424447816 1.566220934106422 0.04729749953438306 0.8212165203623019 0.2680390472259513
Ni 5.637391386609146 7.780480448200397 7.912324279297877 -0.21271250673950462 -1.1764686723706512 -0.25259648741863594
Ni 5.335447272043861 3.0786732055381947 4.789500379733286 0.9085982895120803 -0.5049070681657369 0.20654083071115395
Ni 0.8732067385832746 7.358940794627613 6.883848805738259 0.16570785585519204 0.05896567990093071 0.4424004649910832
Ni 5.054366528205305 4.383679307333622 7.090259500489079 0.6327286904981168 -0.06790874802683144 0.3699040975935694
Ni 8.183528185766797 7.158136508479022 9.138942940961114 0.2760297787409117 -0.08609416068660657 0.04560339966141178
Ni 4.58486375034578 0.22811584138973404 10.319884850331349 -0.6823743785497023 -0.4791988647663554 1.2390557510742533
Ni 8.374520804293795 7.007666801337523 4.899097793228963 -0.6624064200682076 0.7783996823070917 -0.03410285522097998
Ni 7.412751093530177 5.876428591607935 7.0416012322232415 -0.6450645863556503 0.7605073754077031 0.6012984970132935
Ni 2.3050539881787144 5.175627516329383 2.649288743545084 0.34152888888498595 0.07781649405884664 -0.166727555368958
Ni 2.292074346694059 5.2424536621321804 11.43770171250623 0.950242447415428 0.2798298692132923 0.6148572095343346
Ni 1.0755542805708709 3.443180278221986 3.8219106484155314 -0.16319974472135765 -0.6391528488569057 0.15406847184405079
Ni 3.659652457961887 2.9298327420976973 2.843617691117579 -0.622725813649134 -0.5842646814594582 0.16026431624211754
Ni 0.7515167162845989 3.110407252292171 8.320613655904559 0.45271778775669125 0.4914424580203988 -2.1482376810039456
Ni 3.775455479687606 2.4187027876775518 6.832276001518406 -0.10489098167813549 -0.11549266845338174 -0.31110553939812224
Ni 4.119524595277706 6.812519611372969 5.813510820416766 -0.0765967627191326 1.1813262575732688 0.879871096780717
Ni 0.747695234670358 7.5253861413928345 11.453187673884264 1.8173768133557668 -0.7847330807242873 0.11283054824018632
P 0.2631065652749368 5.417859849252918 8.071175540145646 -0.6032520211952385 0.9334451733524312 -0.2698069377596514
P 8.510644115512575 1.3389939356691238 8.020397444797727 -0.7421445566297994 0.4982078017686904 -0.7628756185295635
P 1.809519516518723 3.230346742747658 10.13134514870975 0.8356933738222382 0.19454740579470364 1.8105965572091398
P 3.971987526798012 6.1400583251379715 3.744982286531128 -1.2418695663739645 -0.2658620941792905 -1.3911789262664749
P 6.706790746531785 4.065822912621877 10.286553239615 0.9556772452777541 -1.079673580326773 -0.26872501754938233
P 6.266532893105259 7.750638134410361 10.279082252110513 -0.4643882821160841 -1.1015086739239932 -0.002638208953795456
P 2.565814442524207 8.65757474328134 5.715532629915407 -0.7299099622368204 -2.069021735494411 0.499966693441326
P 7.1581727138946 4.116981164833364 1.5444415663655728 -0.27684764665651673 -0.40130035251666374 0.10198280689240502
Ni 5.510011683252412 3.0870547592444644 0.5217888287662616 0.12157384165045515 -0.8605947650496082 -0.3685306142848105
Ni 1.3824856911320034 0.9498309749768241 6.888909417700652 -0.18880356133239096 0.5709900758377392 1.1981888376565624
Ni 6.888650548979271 0.49660253141953775 9.138532009494305 0.041455953151941505 0.05873685171957626 0.8926813611715076
Ni 2.9260673788776024 1.782220633173032 8.990305227847852 -0.9598316337657598 -1.0400788487532864 0.1517177122236871
Ni 6.408937843926795 1.9839572087727524 2.5915293389383676 0.3131079145401317 0.8772282598412313 1.162567488908527
Ni 4.067606029339085 6.67987202004966 10.445962063862668 0.4652421454759471 1.7322910393290165 1.0939295760251548
Ni 8.252273218595219 7.286213166085629 0.536737139722962 0.4076527770972527 -0.11696719611637921 -0.6273692259584164
Ni 7.323350871114597 3.5809780899112424 8.165643615606733 0.477696569189216 0.5936913740899968 0.24236915326367292
Ni 3.1727439265633155 8.281509091674325 12.592624599971451 -0.005226538506261966 0.5089598980788719 -0.5913524415441752
Ni 0.34629755891891695 4.840057622046181 10.157456494424489 -1.6812649259901367 -0.08122114886502141 0.519693482446292
Ni 8.664888237228064 2.3571988379646975 5.818267306888305 -0.2699987420554834 0.6539228080772286 1.160286406183834
Ni 3.622406136686185 2.8385226840103868 11.260806577669856 0.5324248139700314 -0.47804263967472505 0.39606455803902113
Ni 1.1048716158350262 3.368850560040682 12.42073757924488 -0.5900954292086223 0.41898131473619454 -0.4012671852858831
Ni 3.129107349438125 8.283409875992161 7.996737205717609 -0.03512255473474596 -0.04133768240652236 -0.07370350033173759
Ni 5.224188029973161 7.969472717516717 3.7025902705664255 2.157532218931994 0.24629548490127262 -0.06223895133556378
Ni 3.0852354371116784 8.612906311812182 3.474096082583903 -1.2944252289834932 -0.35434378126146715 -0.38909635425130407
Ni 3.71439504631558 4.630428265850491 9.489248439384497 -0.869451958329922 -1.731040197641051 -0.5362418737232765
Ni 7.500630688491488 6.3643327719348965 11.575436164718226 0.02164046108791112 -1.6432822760987764 -0.6267768437900559
Ni 0.6778088261158444 9.23473432436157 13.632545510530612 -1.1720124363715105 -0.12891562672750703 -1.4779896534041321
Ni 4.441888564228893 0.8313170727597144 1.6316640330341452 -0.32469767626026014 -1.1411478855821702 0.7538060521281276
Ni 6.231820950920005 5.823849276835017 0.3732262418903244 -0.3256746954615488 -0.9930166051581608 0.7100227363945901
Ni 7.918911854662264 8.636177342674838 11.305742024078901 -0.6138159127540138 2.6429580384446676 0.735981365241881
Ni 9.238173838841465 5.0419933274315785 5.731217721079116 0.09086561393332093 -2.2216347058388575 0.2675348538960231
Ni 7.555862049955481 8.83972418905345 2.9125709050855733 0.6258111374426771 -0.11352654586594643 -0.3046243025491528
P 8.50887005014926 1.674817267861372 3.8016157027133737 -0.493826127761227 0.015168737320638392 -1.1585054030240112
P 1.8365559106014744 3.00267803824031 1.5554371510765626 -0.7381935424018512 2.025129404986835 1.123946176991903
P 4.832010968434005 0.6871950801043992 8.259278061374141 -1.0289881381567634 1.0539633200448622 -0.7995403209404488
P 8.628936259559271 1.5969937270768064 12.19589923310033 -0.6662453341983235 -0.29314175583085 0.3118205631872759
P 6.372107884930238 7.827040612633497 1.464519016612882 -0.9911021617442672 -0.8409831614662678 0.6968471182445806
P 1.8003957517931075 3.135696735073292 6.245872272705764 -0.0807326392643771 -0.29422316182048686 -1.445924140328155
P 6.940243266177691 4.078775400044849 5.967276125511239 0.2602709732447582 -0.7469311793851653 0.06863791288337211
P 2.5476212211963434 8.267714828339168 10.348287093716774 -0.8442913999038943 0.9025839649972004 0.05404124601611983
