# total energy = -340888.9694963344 ev
CRYSTAL
PRIMVEC
9.13239019447076 0.00000000000000 0.00000000000000
0.00000000000000 9.13239019447076 0.00000000000000
0.00000000000000 0.00000000000000 13.36617616575852
PRIMCOORD
 96 1
Ni 6.673448312601618 2.0205230172857602 11.220316423415719 -0.9001565865026304 -0.03462993136904358 0.9097964235852396
Ni 4.99691502852069 0.7076752918696921 5.818242913634712 -0.743543750970171 -0.7264032346351426 1.2635583642013077
Ni 2.801433684085484 1.7314920069531152 4.308854283840244 0.9677521741644172 0.42428832877140477 1.30537555734741
Ni 3.693640787515874 4.51554675291534 4.971000958726386 -0.2395249989466584 -0.15699027347653607 -0.3975385714813863
Ni 4.090223954589255 2.6528405667951285 2.2088539030762404 -0.07296302262128725 -0.28051635375735556 0.17129383458340178
Ni 5.3247586962489475 4.72152780881135 2.5573102882180594 -2.143036853529296 0.42178587406452517 0.7213219634574932
Ni 5.265909575247224 5.013746023245423 11.538177475661826 -0.09581910128385433 -0.23470520896051195 -0.18892311762939076
Ni 5.864866504176317 7.819216223700051 12.401365496706264 -0.9179524770334706 0.7630856776578406 0.24799781230436002
Ni 2.052595970879499 6.6538502037143274 0.24628503257461115 -0.5587796498144764 -1.6108532090357934 0.20421218257797732
Ni 2.8124016844459856 1.6124604360132533 0.22983942470684196 0.5234321235531179 -0.1396949767311981 0.30042543397645677
Ni 8.04453968156404 0.008526912520066687 6.982276517923018 0.09900701209353271 0.13616356653917194 -0.39011836775791525
Ni 8.966134815935389 2.5110054180865973 1.183315732482447 -0.14052544305229347 0.3399936831873822 0.7055415606947849
Ni 7.0216572099751025 0.8778400275210304 4.55294754282075 1.0158294892876183 -1.0469238966995777 1.0890750761463306
Ni 0.42943328705403 7.306405129409268 1.85630803370342 0.3797779050638556 0.07192249717191485 1.3343863427574632
Ni 7.607536556459368 4.14138360323166 3.821135344245975 1.3088851131625652 -0.6987206811182096 -0.31796909928717493
Ni 7.85711564209812 3.8418960063771386 12.547163189425136 0.09208791637619625 0.4492583684531811 0.17541608428189145
Ni 8.332474805099631 7.497427330525509 9.114141633789322 0.4486510738864854 0.34592650373204936 -0.275576493253577
Ni 7.177912402454852 0.6075075856630954 0.3370938655343788 -0.493670318909653 0.6213325328460331 -0.44663198657392755
Ni 2.214842011183135 6.529503581808761 9.112016526642037 -0.5205432320410971 1.4827487653556721 -0.317375431567234
Ni 0.39458317366876017 5.028001683997082 1.2524871938734088 -0.42720498819756747 -1.0733262979525064 0.24621140982789855
Ni 6.459777784346289 2.2900289778509184 7.499119562387957 0.31764719717138196 0.11750558511835245 -2.5340844179697006
Ni 3.765147401023556 4.688011937601492 0.2186330689679817 0.004601246217437236 -0.4821456060995051 0.2011685106556471
Ni 6.024117120568008 5.778145328969554 4.795355875850788 -0.7142367744759377 0.47987583622872193 0.1791315854602657
Ni 5.12339862968051 2.919981238356648 9.262519226676257 1.4523200165521697 -0.11894128912361451 0.9821048433416634
P 0.3396025330606317 5.547616408819566 12.426226601936397 -0.5211690385505541 0.5299393285440164 0.12354382089263238
P 4.020498157126784 6.5568916193451 12.441303264546848 0.4577427517751084 -0.6850676091111493 1.0806711683533519
P 2.1883489478643887 8.492163776210145 1.4377596422611147 1.4533631131047036 0.578613653821268 0.09429109467510212
P 6.35049047351022 7.983644905207816 5.931039801938342 0.10296728229286138 0.18130648162439744 0.13416299116937538
P 4.823344824647511 1.0951836030244804 12.50345557100269 -0.08094269839265415 0.32615394909081247 0.5909400365971048
P 4.4386337645422 6.345896881352575 8.153394117115273 -1.7317670485047465 0.03941552568314502 -0.5307718517476407
P 5.055654560842709 1.0363984087525844 3.676125776781981 -1.332266468200983 -0.5897424167445778 -1.434523097580065
P 0.2402658743417998 5.8516702006618075 3.5881635097775577 0.3246956193777311 -0.1551377936488296 -0.22616940357535886
Ni 0.4509144947542558 0.0011086721430182025 4.385214762619872 -0.17012089732122315 0.027905468161016453 0.961707253521918
Ni 2.294239009629595 6.509229676063288 4.866998561969103 -1.7963379904075965 -0.3326804373554206 -1.249592646049835
Ni 6.4296135002574175 5.857368812006481 8.961232548996573 0.31754409593461447 -0.7493045647133483 0.7714389347185424
Ni 8.814893305552156 2.554238152230322 10.159095265470896 0.3851278565218593 0.813335060731696 0.798509051462457
Ni 2.4023482421588334 5.246886806928386 7.0079933280938524 0.1755857770905363 0.18908458290791952 -0.2928152257293667
Ni 0.6540791215818402 9.538233385946718 9.104250342206925 0.15324597594275544 -0.28392897898333036 -0.27644578323240776
Ni 1.5495200043025328 1.303603007043932 11.502155676642706 0.06798176735661196 0.7084114260434122 -1.1134895004349534
Ni 4.377875974035609 7.072999506417016 1.5525081223024961 -0.4408135801199376 0.0843319265798612 -0.4777415634945385
Ni 5.740145454281756 8.179753847540377 8.261580061720304 -0.5743319957267786 0.21092404738051415 -1.5890230005345796
Ni 5.352603353284058 2.9764650703547337 4.3658075206830675 0.47081835401214395 0.6942058239669915 0.9774148940651618
Ni 1.0095035202749187 7.577253551300815 6.744024335570803 -1.8290650483269726 -0.6181438507054063 0.4658029030754236
Ni 5.17192815000999 4.655966381177679 7.0832040389755715 0.6440016923087747 0.14872417681300193 -0.18450287707450805
Ni 0.5455918081076192 7.352277124255894 11.266590243421264 1.0725968759856495 0.6030962123436645 -0.043726237243356954
Ni 4.846878993614215 0.27111417443983266 10.458618478646322 -0.5012776989432657 0.45725218529193506 -0.1301204456688856
Ni 8.042083068660647 7.267455486164023 4.784783307976223 0.9600874585303079 0.3499731629975973 -0.9116175359543784
Ni 7.4888154867786705 6.098107744149009 6.793291753010297 -1.4417931488789169 0.9429076043169116 0.4897547859053307
Ni 2.6279730688920107 5.499790082518198 2.310116582840892 -0.3307078870100821 -0.16818717063362001 1.5640077094371645
Ni 2.441042178484765 5.616081936465428 11.324465851651608 -0.37153880498351494 -1.357211825292411 -0.19067198199969743
Ni 1.1122520398885745 3.536947240317305 3.6867522257574015 0.01360164994383464 1.0363286376822345 -1.5655318593911747
Ni 1.49705442389364 1.1433843573148434 2.486910520375401 0.19652998344237121 0.24315719638260705 -1.0904650145153219
Ni 1.243256174086236 3.4962167810268503 8.19402685983299 0.6664777619241038 -0.5763130307125494 0.27959075661929267
Ni 3.9330463907219877 2.7584840540309985 7.039590484169871 -1.5856144890736628 -0.5207039259886774 -0.642032741507862
Ni 4.087666885396133 7.186871277020757 6.16402624823072 1.3012998446161395 0.3479026536218137 0.08953044006166516
Ni 0.7116871507859022 0.02211316908652616 -0.06873675962813101 -0.7368228873065698 -0.248141794081392 0.9731183235723369
P 0.1854057812813472 5.920628877366342 7.9199273071101866 1.3909896930738044 -0.5879027924326778 0.5346521606386534
P 8.6214601534824 2.011810717249192 8.060766112072397 0.3374133240547157 -1.5066409985922375 -1.1264995395413762
P 1.954377116693661 3.3742993748547496 10.499853045863421 -0.009583787033693171 0.8018710259561546 -0.1419670605948265
P 4.211355975223468 6.419668327574165 3.7206626162141982 -1.0027770269790344 -1.230011638594114 0.01985174461860452
P 6.813374791805283 4.046087113837962 10.34857409268129 1.1252468980811976 -0.1944353056968716 -0.5961244090115217
P 6.537037803538497 7.886229701339817 10.296245498122028 0.981120110830891 0.07616944537372689 0.05992238738724519
P 2.2283762131267344 8.682711093047663 5.466017591150028 1.1898409799124992 1.0136000857364673 0.9042819215249136
P 7.002186954547469 4.019247019700149 1.6401233584878532 1.48352061052469 -1.0331155300615755 -2.552886124057236
Ni 5.579552376563675 2.9351227409359244 0.005790848483425389 0.30310863723557474 0.2759189641946603 1.0889010124623117
Ni 1.60509972969305 1.374123322434266 6.568352768764275 -0.4727222559030762 0.4264686242521752 0.4912817640728184
Ni 7.156460418402546 0.7599509185670957 9.220442653103422 0.04968245482679186 -0.37959355696719144 0.34471140037802567
Ni 2.984930795861965 1.8080853616771158 9.33349342184837 -1.1131609134509408 -0.5409354225442039 0.05508100013454385
Ni 6.8132378059556515 2.0059477228849607 2.494676704810514 -0.5655241676271615 0.6052708513974802 -1.2614991676794338
Ni 4.574852493415836 6.894223840257838 10.215580923946977 -1.004372139380296 0.731798694619101 0.8195381042186144
Ni 8.1708588997043 7.369509944139546 -0.06736598789281774 -0.42274720953652994 -0.6653919850590927 0.33050168453654694
Ni 8.071973381050254 4.088671448293431 8.116677343219024 -1.2978648507926616 0.32652598771825053 0.011428039331283545
Ni 2.8565933195371316 8.330894901633881 12.456741569800327 1.3521133277235808 2.8202695399770588 -1.7625048439082354
Ni 0.1819135553547396 5.257726953829231 10.043144049669749 0.40804512743966503 -1.1191011901947758 -0.1993401991976567
Ni 8.68756039212462 2.4653799977693076 5.559246507453287 -0.21416775112879244 0.6244242843974794 1.2734131455082003
Ni 4.065484310145793 3.1600169764710673 11.485648881762101 -1.6891612980190782 -1.8355637686774389 -0.17309412101693417
Ni 1.3302513209922606 3.5769197112397983 12.774535042360615 0.31227873377061705 -0.2469259193964199 -0.611860845910172
Ni 2.7877716286822283 8.705806907295546 7.758276698632948 1.1218319588623777 0.5232374910438086 0.7325790244285513
Ni 5.808090435699016 7.884686327433968 3.5934292458373953 0.45851433983381035 1.1980409992247882 -0.15481357754019145
Ni 3.3241351567196675 8.485597587817804 3.703379568185681 0.6698839593921754 0.5031728590834496 -1.5920345336673936
Ni 3.5599334658854827 4.5248891878602135 9.057013968297968 -0.6151408022130245 -0.10305701379319027 0.8074063539520868
Ni 7.389929968124625 6.012811221778416 11.318036649108898 0.6318653140565569 0.6008611523655587 0.23317154592480485
Ni 8.170895429264203 8.983577680788477 2.4912812822176456 -0.8304709490810341 0.09524600238920371 -0.1470483317724758
Ni 4.900075165221144 0.39408089222011106 1.516994084166012 -0.4330172240039704 0.15764796166519301 -0.32831856084229905
Ni 6.153093864191122 5.645195995707125 0.280989027720274 0.15415203269679256 0.15131276347578454 0.20893915574000146
Ni 8.061188028489262 9.05774181977901 11.449533019126235 0.21055895073161154 0.23643401872616057 -0.40273065720528706
Ni 0.1623127067504565 5.018330483013093 5.779761761995207 0.5190154825426609 -0.21178048184353848 -0.894987126486549
Ni 7.413774638350494 5.992537316032943 2.346900023183962 0.5267485895208606 2.1681089660065758 0.40219381086521055
P 8.796181038492483 1.8889892044695231 3.475646985846173 -0.7284812002100938 -0.86569711927318 -0.5103758045897919
P 2.249207194660709 3.525175589638965 1.521298179561436 -0.857485015776033 -0.732284633116584 -0.42748215311835414
P 4.615455099246635 1.0034213485512768 8.18683601596633 0.9919783937016335 0.12275963442844022 -0.5087356978832077
P 8.708290917368865 1.8145876233396279 12.490704928118982 -0.08425376504375812 -0.3014021960674293 -0.6336224059569797
P 6.412636387293078 7.89661322874189 1.3512138089418815 1.3777174014449307 -0.7086891051848311 -0.07013043826849857
P 1.7806790593608255 3.487020464321584 5.700179376032246 1.4451769777494852 -0.8615015931345937 1.4024825242047525
P 6.836315355423584 4.042790321056829 5.794558060233412 0.5432645848980128 -0.7551409688894672 1.7950663227840247
P 2.4975442752628014 8.869313217415792 10.172688827949337 -0.20426977528879015 -0.8584095844728313 -0.03339040253498766
