# total energy = -340891.75205802533 ev
CRYSTAL
PRIMVEC
9.07571854153436 0.00000000000000 0.00000000000000
0.00000000000000 9.07571854153436 0.00000000000000
0.00000000000000 0.00000000000000 13.28323147322337
PRIMCOORD
 96 1
Ni 6.441182468766546 2.040130710247524 11.53861136754127 -0.8018946801052383 1.0673909063046778 0.10310252231914502
Ni 5.003125832931186 0.3914384517647084 5.878467061782337 -1.976830203660815 -0.7049036700004698 0.7593354665867891
Ni 2.932700375093439 1.6984752959174025 4.791539982580705 -0.03746945770036773 -0.5324106729026443 0.08139778365220174
Ni 3.7255006689808994 4.4681576194183945 5.045489470678833 -0.6360842372339109 -0.2231342162934609 -0.19572111438783069
Ni 4.980182417140868 4.707602294575032 2.576814234513626 0.2073065052325849 -1.0751327550336258 -0.5500682380834075
Ni 7.357376228273141 6.143172183604005 2.712116857648606 -0.4971978724469373 -0.7539767733780369 -1.509507521506755
Ni 4.936664348029089 4.59710542461968 11.332336627523263 0.22527183146175397 0.37979384590345555 0.9070669404692184
Ni 5.59237591742574 7.757324981061022 12.422717017527196 -0.44757763831664854 0.6110465775389928 1.4759677378780969
Ni 1.4629967096454053 6.442888703801585 0.5754731441584369 1.6250932638945754 1.3498767250835784 0.1658243268283983
Ni 2.6067641048095322 1.525818831520637 0.3205725207854577 -0.16030031168637554 -0.2463458785232338 0.8001640705673767
Ni 0.5656740911407124 9.02793461478745 5.0283536070104375 1.0746802408772396 -0.107747220180008 -0.10709595974925427
Ni 8.591655761758807 2.322730425785081 1.3220172247316102 0.6121565227737199 0.09641225478316298 1.9470018074454727
Ni 7.010248155825313 0.4927679386940316 4.839320008992775 1.3406261530195878 4.499430532250315e-05 -0.6531635613137009
Ni 0.8811505961167304 7.388959727857915 2.950856349495549 0.20420086972406767 -0.7256532438429955 -0.935951998934685
Ni 7.786784762570268 3.6511523849008793 3.8907377336907243 -1.0947572141327726 -0.19428721015478154 -1.2353610758314852
Ni 7.713797836230971 3.92339670589067 12.624475680133312 -0.3331152108999941 -0.8703618717387009 0.2771556648152388
Ni 7.856032492981713 8.916711687370379 7.179652790365404 -0.2687139618057888 0.22339698303654432 -0.3636645444417608
Ni 6.886573342939761 0.5277993036501436 0.25571290015827713 -1.570509258001108 -0.5729166034364908 0.5239064920863752
Ni 2.016098208264627 6.703207530982642 9.322543320741836 -0.7312903875241148 0.19647984693072615 -0.6091820135264283
Ni 0.02969484261247775 4.786098181905122 1.3709752793753187 -0.881810737005591 -0.6548049535718657 1.350545983236461
Ni 6.445184860524272 1.8808972331742877 6.870764349282659 0.7726314123647468 1.5696569373031417 0.9372452638248117
Ni 3.603141835244714 4.389843246453735 0.411311552063783 -1.4092746074259213 0.7282114914884749 -0.03409591324244451
Ni 5.961158653669336 5.592766173311413 4.549945269765553 0.6027887084055747 -0.006295860311040771 1.7644429414712128
Ni 5.356343712339182 2.8432047172183075 9.356774207346405 -0.7018774815796365 1.0872105121337663 0.15907929479508087
P 0.17064165494049532 5.4404574692793215 12.497222311533314 -0.6574264503551129 1.005701656824997 -0.0918212929783709
P 4.018891413543254 6.2825479890992275 12.505378659543899 -0.6989399962178673 -1.4759535968107096 0.6597612691358766
P 2.3911794929886345 8.218425923562183 1.5909588918424065 -1.5343268945432802 0.34998216185866177 -2.1953505753313483
P 6.481732778003549 7.515393559097998 5.769929639401799 -0.3247987206144987 0.9144115537597478 0.2620578899418519
P 4.585306990866747 1.021708060130901 13.001666161783612 0.99397099865163 0.39891436878299036 -2.622065768376691
P 3.9338065547480654 6.035152984736768 8.174526674283001 -0.10919937924550226 1.5839216747522722 -0.8341121453780473
P 4.722150670964226 0.8504156761903402 3.6934951484965013 0.6982843649117393 1.2446129334470564 0.30003565473720584
P 0.14852957494384483 5.3363771321419105 3.6040593903619618 1.2281797275916977 0.5702372568321147 0.22311133347532544
Ni 1.4731615141094703 0.8591773746096335 2.6015210623640947 -0.3433985951038731 1.015041446168684 -0.15116312527179773
Ni 1.896262424207915 6.698061598722709 4.958869000352108 0.013447126643841355 -0.6608676148261781 0.07007361688863416
Ni 5.825004728160491 5.527811257642383 9.329623288565424 0.5153804568932351 0.3664351652083625 -0.690086145371663
Ni 8.620416712961148 2.5476993302986966 10.194614568299773 -0.3071195581671808 0.2465659649538399 1.1662498228561204
Ni 1.985022948903056 5.34528041176624 6.988613458609742 1.1914160377091028 -0.3284779692382988 0.6666505400565421
Ni 0.5156469168846227 -0.030070577348917306 8.880092071716756 0.4690100971588116 -0.32015710807742925 1.6734148338180987
Ni 1.454883017510696 1.3926780444779252 11.355781022962168 -0.7557073829158985 -0.2148544927831719 0.7498470674803795
Ni 4.140097631058961 6.826610072320048 1.439397119424058 -0.10343907972295734 -0.6093560772104474 0.06822113706092767
Ni 5.737278835348298 7.634403452792005 8.00331960209419 -0.10630637396842336 0.564027528476977 0.3635195342234643
Ni 5.461295318430655 2.739786907514715 4.65674196938162 0.17300670350945047 0.33721766310414175 0.03909645178082944
Ni 0.6752869861364217 7.518197956043887 6.994816712048303 0.6196145217136619 0.005496504338196985 -0.3094893439509379
Ni 5.352531910665157 4.661533948628964 6.984150020363825 -0.8214085817684498 -0.06354969972718733 0.20634491265026397
Ni 7.934864181887847 7.185155398353407 9.390354364950907 0.04977912830565621 0.8083401786202659 -0.3868021589004887
Ni 4.714200341758403 0.4305121416389406 10.726103151427276 -0.754546529838578 0.2732000226016005 0.2327596551983669
Ni 8.313258103780948 7.082463646111534 4.656357158926909 -0.2138831300088381 -0.060175641048631844 1.3754298909623346
Ni 7.2350627731283135 6.024625151541843 7.158107035188894 1.7428839843535144 0.19551696879682456 -0.6529347331323465
Ni 2.374280505567126 5.043077144762272 2.660179244696369 -0.07783140645718209 1.1577824088150577 0.2834165581232861
Ni 2.1212222530032587 5.421625353865987 11.625178291130192 1.4638748112693047 -0.160109278721492 -0.4433198914815591
Ni 1.1477425597670385 3.205797813600749 3.720407375886941 -0.5885599664007025 -0.2754335399178095 0.8438838800528305
Ni 3.841615408546302 2.5119228488724956 2.5215821358288384 0.42622462656216914 -0.006661471180575624 -0.16741146880986008
Ni 0.9124908664518288 3.417634153775523 8.410583383808891 1.80346714525321 0.8611334111618977 -0.6594933601864706
Ni 3.6037499083689033 3.1766647579492764 7.194875492622169 0.10086514834819403 -0.8692904930513933 0.5640642952521834
Ni 4.220717236464578 7.158563543817951 5.771776548070047 0.018508343216832642 -0.7907731162707801 0.6394482686101375
Ni 0.5105273042076771 7.62857684166171 11.298344432309236 0.38181910386360046 -0.4099575139710294 0.3213873809401046
P 0.17609525404983178 5.855562671580587 8.206885240208159 0.05028923517285533 -1.0606538446911604 -0.7221863683403175
P 8.630164034384725 1.7689028697041402 8.157988900448697 -1.093290142668943 -0.9153762316658621 -1.1438593709760623
P 1.664650093919571 3.466525048104023 10.548785398126276 0.9351508431896283 -0.36274640350286563 -0.14994467948366433
P 3.97424795536581 6.225997188549593 3.7389508834592426 -0.544470689390972 0.20191258791052322 0.34628311574051973
P 6.919817698968218 4.024527434589848 10.45183040740381 0.1636556013118536 0.07438227156631706 0.44750359054560346
P 6.245319392749589 7.9760951699952125 10.434629198563858 0.4461051675361801 -0.2137067523319739 -1.4605213214160395
P 2.6927202325587842 8.843171142216521 5.910373656937577 -1.2351584729023761 -1.0329545790036792 0.06685742394418163
P 6.786831199136122 3.7028476761752684 1.642950051532446 0.6275378903257967 0.7478174386448604 0.4832648073056128
Ni 5.359347775087044 2.981246392127622 0.21847069023123092 0.4899949269405949 -0.6255139179172323 0.3373557313439029
Ni 1.7768078203186053 1.294878104384383 7.283102365082947 -0.11649128492122518 0.36800636635022427 -1.0766257946393845
Ni 6.658191968356068 1.007840362612069 9.27696869386974 0.3635064215973417 -1.3478527526750141 -1.5046802753214408
Ni 3.0133744348086853 1.779022295576848 9.425554538266868 -0.7044426712036513 -0.40057144477043916 -0.16500208803741906
Ni 6.565773929197516 1.568175208693666 2.4682904257104954 -0.5839448362261943 0.4021884115485718 0.5909549489954403
Ni 4.108142027025056 6.946309720602688 10.420734273890213 0.6232228078902106 0.6799385154147 -0.2955441946247555
Ni 8.03388934394804 6.986061366631801 0.2354422833989113 0.6138657921553428 0.8543477556986319 0.46607492578988763
Ni 7.669662618276731 3.9507055421695734 8.309802977834993 -0.3930064879389877 -0.2756106889256221 -0.27567059562928004
Ni 2.9621420051661422 8.35130351477502 12.252983841985676 0.036124256526382945 -0.3289284265121561 1.9567210916157656
Ni 0.12098567756170944 5.209153713412208 10.294530965894225 -0.5994953823662836 -1.101136378186239 -0.32768555524399046
Ni 8.83766218122573 2.0939587953157126 5.684678694962242 -0.051046939274486273 0.5823636077820036 0.7780291863415504
Ni 3.656906390285002 2.738607064139422 11.613382580092741 -0.6617050231258087 -0.6708236975976253 0.17396083989260364
Ni 1.150338215192684 3.3655213794606462 12.983176200949112 0.03798444966357329 0.06216876021926067 -0.9014642495704605
Ni 3.46650689666748 8.35470690912683 7.975690392960304 -0.9618561203949564 0.6461490776690807 0.48961646055525354
Ni 5.630312419800555 7.950193070048389 3.60185399082199 0.015283665631947873 -0.75335893728838 -0.38895622912901395
Ni 3.0666670524988557 8.3368912741599 3.5884518776504852 1.2432217095264848 0.10390264962293719 1.4226399729892338
Ni 3.4075147279028157 4.352242545654965 9.297411749276264 -0.9263905804984948 -0.20542522904947202 1.12929458578801
Ni 7.141791616452243 6.080912756261604 11.553263207118759 -0.01596783618316605 -0.45930469694558956 -1.1997014176463467
Ni 0.568088232200928 -0.021411434546091724 0.2060841499343057 0.15014316864771562 -0.47137474073624624 0.04693163155453208
Ni 4.385741021795023 0.10849567407648929 1.5993139980831372 0.7758581468321606 0.31534271740792147 0.38175482628456836
Ni 5.9449857237095465 5.487133888349579 0.42860442565827406 0.44795121960598333 0.35456978122934424 -0.10484547315218072
Ni 7.925252996238344 9.41260893372442 11.064731813713857 1.2187373512318753 -1.8589721202990501 0.14244528578282564
Ni -0.007090858685512658 4.615365769781912 5.766954618952406 0.8298333154970353 0.6233775883005199 0.3463399371203842
Ni 8.097782400579307 8.52600201578287 2.258149429708835 0.17795144910923547 1.2537105248729503 0.6067793176222066
P 8.609462321007463 1.2819542815657858 3.5295668023614244 -0.1984228295897099 0.5505433779476132 0.06076956587888888
P 1.9544559297646884 3.165900956079293 1.75798205790806 -0.2573427438543697 -0.7424674871868567 -1.6525256490739153
P 4.5175295268152835 1.3295201210266485 7.965037314853232 1.2154206281538165 -0.772875667165069 -0.3232619722549981
P 8.395928821515922 1.6548936967777228 12.68039844097856 1.684534340770028 0.8030830439863846 -2.2525553066771145
P 6.334887656370891 7.729988917627304 1.4028818745305578 -1.029676936693672 -0.7716253396977356 -0.04954952879335337
P 1.9436013707119901 3.267839423704633 5.953278207494203 -1.7524364039286402 0.7942456482004129 -0.2798000444166213
P 7.0726346432235125 3.902259358036377 6.01679915967634 -0.48840161431154594 -0.6442030096863035 -0.5435052401539091
P 2.3256528070684994 8.787627746395021 10.328442387215636 -0.14171637803660111 -0.6970384083197801 -2.018840229544013
