# total energy = -381159.7184106723 ev
CRYSTAL
PRIMVEC
9.28942808056118 0.00000000000000 0.00000000000000
0.00000000000000 9.28942808056118 0.00000000000000
0.00000000000000 0.00000000000000 13.59601698569118
PRIMCOORD
 96 1
Ni 5.184225441023334 8.950150293042977 2.42372139991756 1.609016670047687 -0.646219783006016 -1.9217797996538901
Ni 3.6070291848034044 5.862725267592997 7.7257330731557445 -1.0343185492307414 -2.033959601683955 -0.43021163623437514
Ni 7.9094649552722665 0.11732640552515744 12.76912056619708 0.725688467956305 0.35941168270267776 -0.9288007326018843
Ni 8.31798613370948 2.8640885956801583 9.300912594540675 -1.476776092712005 -0.23967977935696785 -0.5147021998792878
Ni 2.2097227032483375 8.809889218544411 7.68896923260766 1.1014145715482904 0.8980655083015566 -1.3387456481674234
Ni 3.104034522847387 1.0638810396730176 12.733812379028285 -2.8989093012681493 0.6700482528841816 -0.9578511130006214
Ni 0.8615266410953214 5.957291645392548 5.240747895086118 -0.9850397576002711 1.0456200902864894 0.522766464944661
Ni 6.372937815162989 0.5816974834325533 10.28548235519827 0.2350710769403629 -0.2788993869792229 1.2370384635339082
Ni 5.729310501585418 3.6562631535988483 13.157939796630847 0.7087366705933149 -0.8524654510742544 -1.4707980207516993
Ni 4.117984886619365 6.377192373221161 5.117949087482207 1.44708602184674 0.18401436747386374 0.510275788676818
Ni 0.3173760969975425 1.9900927552802852 12.385930729176524 1.3140381181184142 0.13687730477674492 1.0084655927233794
Ni 7.675492130357013 6.183442771868977 5.005971534642412 -0.03881054510929445 0.7645555773351478 -0.2570072148918219
Ni 1.0175639512930021 7.410278958826839 3.592339812189021 1.607253664609993 1.7685932161941604 1.1661654906724304
Ni 0.36570527549851906 8.335143707363288 8.965091409158184 -2.437896620492517 1.620595633134538 -1.5065934331837536
Ni 4.665234383922835 7.612277572309278 7.251803173759573 0.8946341140225044 2.52197940717605 -0.06563846393541599
Ni 7.34262405415944 7.557191263826828 8.137827894573261 0.13960524523086926 0.5442562593873208 1.6958389671495697
Ni 6.543120137489881 6.092638612439645 2.888636838310128 -0.7449066927559687 1.0909067300384307 -1.1840824801621672
Ni 3.470037988987101 1.0119902944482349 1.3303938021908295 -0.09903632266957137 -1.334957384769585 1.6838018334793774
Ni 2.5116755628136014 4.696446862253532 5.723746134168726 2.3399725570505185 -0.6554040206084454 0.35618366268368334
Ni 1.8241371227273413 8.750232511449253 10.49742994614862 -0.22231429149532683 2.802037847460381 2.7052268145769025
Ni 6.563241038699491 8.751960345071131 6.13425060549987 0.5449170328997712 -0.9107474746445992 -1.4580857153913533
Ni 1.7312242631250716 0.9465369842345185 5.149518279850969 -1.0432407914210355 -1.8765916331530264 1.7563002577594202
Ni 3.0939554933864333 7.300282840995358 9.60562720107252 0.0718484494008698 -1.8749196447672418 -0.8092449498227224
Ni 5.475867035425779 4.053785649195722 5.859488830851802 -0.8510598289759794 0.613396308718092 -0.01393692179606632
P 5.10938980845426 7.9365715063939835 9.493989641300256 1.7443729101942154 -0.6754619677005851 -0.6108606867804318
Ni 7.437515561941602 4.137427659579528 3.66197800975035 -4.375340866156542 -1.935025608920203 -1.9409157491523927
P 9.210068490570622 0.9323706064207351 10.515852739906189 -0.46460811143637404 -0.09375887632071594 -0.2905320861221448
Ni 2.7659272092157328 5.567590848234498 0.496787466116562 0.5350008022273237 -0.12097143217976586 0.5337664155995905
P 6.49310585673617 8.088871679677249 4.0086093025832685 -0.5720766240336986 0.40911059258970195 0.8385141311004848
P 7.746621281124318 5.543168941826343 9.154972892660098 -0.24499013582628773 -0.6929534396171292 -0.24122501235690072
P 1.9689871746947667 8.602744261908637 1.14487556305556 -0.4579486971383275 -0.6299925225138763 -0.658442293214137
Ni 3.1062639855852936 8.232040345163169 3.1336371432927534 0.6348940735805516 -0.08620883188759992 0.9464279587653441
Ni 0.34678921311018657 3.90799736499276 10.73638004662625 -1.5801120711981946 2.4596952044248477 0.6874332811298484
Ni 5.26168069230945 1.489141767500682 12.386474160718889 0.8170916995606509 0.4180361772141058 -0.44356183228903606
Ni 0.5790453517172516 6.25905871639632 12.481184524653596 -1.3444033606738328 -0.09339737921623914 1.759752220863763
Ni 1.443289150524397 0.4152588006197295 2.9077804916862884 -1.4116287094803945 -0.09053342740488278 1.8797147521630404
Ni 9.12329594292567 8.185240206523273 6.634611714596735 -0.07567579356675999 0.49947175608277855 -0.8535108616196333
Ni 6.3343216626568255 1.8518567761019833 6.028718986801048 0.639915180944227 -0.19246069846900402 -0.20466032585898947
Ni 6.451962979793713 7.904253586122408 11.97259855593947 -2.8446502828142686 -1.1056162683344635 0.9092606056864275
Ni 4.690092893450497 0.33676963598891 4.460486099730311 0.3612050271576747 -0.39063695926554654 1.3550577550638856
Ni 5.430293101291732 2.1334843670399963 1.574514398334789 2.498491094246123 -0.47105026751729195 0.06677771974618175
Ni 2.959918335697856 3.725868838161917 8.504159277524009 -0.11975452905352924 0.22975506404408816 -0.10622769821168802
Ni 2.348293101837325 4.950809981792557 11.868860725801854 -0.17703845037666283 3.2979077451245136 -1.4543493882773728
Ni 7.008381142606824 4.489134695912414 11.142751651406998 0.358962253870085 -0.028123754819409628 -1.4462635259454448
Ni 7.014697953697561 5.777829184419117 13.143922049666257 -1.8466958740348585 2.159853410866003 -2.01949328974698
Ni 0.5548844782379931 6.557992511837335 10.246311623836055 -0.31030875452843976 -1.5065111578825925 -0.33020806455552804
Ni 6.79611771110194 1.146863500663527 3.5394235141048007 0.8931780983022682 0.7528346893537937 -0.10812028724871056
Ni 7.479578092263445 3.807522910937756 7.067454473618898 0.27738217900374806 -1.1545428188318374 0.7488710767203555
Ni 4.216777954192864 8.878055041755914 11.155993731127356 -0.10719494722096379 0.3192466804480179 0.15498069924567504
Ni -0.009968485266866172 5.110588144675884 2.912593344371745 0.5159669255243243 -0.8396407885057603 1.0402102321248279
Ni 0.6013715631517741 6.616748144409256 1.5450511193105418 0.9196509477818161 1.6100507677391562 -3.5186472359335528
Ni 8.92876602961522 1.998574003112406 5.991900338627323 0.30396558591923134 -0.5697505470036832 0.5101276931347279
Ni 7.578566237826511 4.507759999202011 1.1604353550805353 0.7016895339385464 -1.0086627963358499 2.9580043076580926
Ni 8.876429391842857 4.013302321646562 5.053055000838583 2.282456979332553 0.21174911438497082 2.6362855115204984
Ni 4.893782182842513 4.7431355277565315 3.6522436180709636 -0.9249276227997232 -0.29720615570821074 -0.304480834992753
Ni 8.314929911872932 7.548041177173335 3.121672359932653 -1.4520780757446927 0.805129127882136 -1.6188534536324506
P 2.4568679371733904 7.592035908534699 5.31624679281972 -0.8195131645179499 0.9944096288509455 0.9786168847930631
Ni 3.167434869456614 1.5064479720036843 8.65111802966437 0.2568439498410802 -1.43828436439471 0.4242991274046822
P 6.618838265726043 0.35434337602046106 0.7721948560158147 -0.27128043698138443 0.6762034738523001 0.9192740240583717
Ni 8.80100852530508 5.709013101242392 7.063103305508749 -2.2146194508632893 0.3573396306649975 0.9656107023413821
P 4.710074453238987 6.617472719799076 13.22975357824725 0.11634704603387705 -0.3506714746162025 0.5156681633369828
P 5.266520484336322 2.7198980931060306 4.113311375355027 1.0183268017881753 -1.2848956922265033 -0.16407649089935614
P 8.418507034904856 4.17414876875847 12.879343346073581 0.845574380381376 -1.0557870035171626 -1.8165581741092136
Ni 4.972658716624045 6.010455042263552 11.057708795269539 0.023018572382360356 3.026219016961117 2.044931013093794
Ni 8.024458785407889 0.7633559652028215 7.811714161528739 0.5291176039736694 0.12037827868045721 -0.4155018408280263
Ni 5.207114591799178 2.9471918192356377 7.979923409332584 0.48566364655509264 -1.1029940002202683 -0.18087247941077236
Ni 5.166779895099213 4.6545701204931795 1.36546139317249 0.33275242824393664 1.4263205071646146 0.1227722328339305
Ni 2.1897783011721454 2.843995562754772 10.907417925278814 0.6453335237463209 -3.302400490788545 -3.411516052070989
Ni 4.447703846699644 3.8253957705533095 11.0598704451825 0.0553890182932659 -1.0328224243011892 1.219102704991094
Ni 8.257391194378785 8.132457676203328 10.87583479876794 1.434251589086233 0.5693396847185097 -1.1957637731548372
Ni 0.9388546272168143 3.9837990980815943 0.5281848040659431 -0.10689875613678365 0.22132158856475434 -0.46595794059604917
Ni 3.5287843321309476 3.1854006233529137 1.9665691365669449 -0.682660028110921 2.0752162943408967 -1.4516499870683388
Ni 8.829146202943082 0.09553619409054 4.613822044243895 -0.597852447446222 -0.22583747415723687 -0.5600811422347194
Ni 7.55872401945914 7.582393482193251 0.8254873759370566 -0.978970668588056 -0.5820545611820169 0.3088321699829133
Ni 0.7925665717834389 1.5417385092591354 8.59022211286406 0.8401195279143919 -0.24824643798005633 -0.14398923323117782
Ni 2.7235859960516513 7.731618854783819 12.83443639287529 -0.8122336001374012 -0.43089374990306434 -0.43681500048350586
Ni 0.8695257676103698 3.8855448173364224 7.168228047257903 0.03761961012498682 -1.4665855253322484 0.506194933739225
Ni 4.1938423562766465 0.9377027381355625 6.571118473706761 -1.2398756758723875 0.5124637974670723 0.373612399683092
Ni 6.420397503196181 5.925577537945822 6.907402272607369 -1.5939515481844484 -0.34309186249673174 0.308041812871134
Ni 7.457877988281151 2.0628940031010194 11.703247873144864 -0.1525234959544341 1.9856573150341417 -0.4664847596337966
Ni 8.998613239308229 0.004438488734049629 1.089016374157303 1.5702603752150959 -0.5656285544155097 1.6282662623059183
Ni 4.661732269538705 8.853159374515954 13.589069585116052 1.528812135372638 -1.573073933404491 0.5274720979504464
Ni 2.5127345576141074 5.65627701806282 3.3624580513978266 0.31626908587693275 -1.0599524477487616 -0.6681098982108881
Ni 5.123695527689162 4.8904472781637285 9.240260989698726 1.5129314595866394 0.0288950857677954 -2.847878559943579
Ni 8.055866341728152 2.143749185062443 1.3844684919559536 -0.7426958011475789 -0.15612458304213114 -1.230089800130217
Ni 4.28343889005628 6.7260196868509174 1.9853858020748791 0.9441887850221804 -0.3726140403255647 -0.802483976949805
Ni 5.905075770185154 0.2929337538476233 8.17059449422084 -2.2231719684189906 0.46164337238109526 -0.6693584259060085
Ni 1.329865233733384 1.6302574693821135 1.147963368947561 -0.8109323648274743 2.5759319501331057 -1.7921504346888102
P 1.648148907853816 3.6964120617373215 2.597220048067089 -1.7717461600008455 0.0038589687347739985 0.8558472230622939
Ni 9.20377954776411 2.283573656441503 3.3371425020088936 0.9445487394647604 0.37721605787395035 0.8200978333768263
P 4.7134836733423695 2.069879653013128 9.968218660280431 0.9519892549032056 -0.8954337271056644 0.03462813159683069
Ni 1.3254992025383165 6.737538577663436 7.6304114648537285 2.157196175748814 -1.6914364672065 0.33383897643989596
P 2.0410638471256815 5.217667382091937 9.627597627411786 0.41776646849248694 -0.23883594329943386 -0.37622232650211335
P 3.0171505020655407 3.2734644015002354 12.645356587016215 1.7261641004956725 -1.7591055884186997 4.457231787395078
P 2.693274592244192 2.635782321890418 5.901052518886039 0.1697761123872947 -0.2656108974004329 1.5717837538381576
Ni 3.1994555280298016 1.9999488384674486 3.838780907466018 0.07690220977469338 0.5231176776364926 -0.4799791945758056
