# total energy = -340862.0778309909 ev
CRYSTAL
PRIMVEC
9.35964435375541 0.00000000000000 0.00000000000000

0.00000000000000 9.35964435375541 0.00000000000000

0.00000000000000 0.00000000000000 13.69878559907441

PRIMCOORD
 96 1
Ni 3.378410325002149 7.285752855643563 8.955197001621311 -0.141362337131292 -1.1078158470889439 -0.37454185347589686
Ni 0.16623102252681957 7.257000029062946 2.8873481752313177 -0.23827415725869286 -0.6797994187336744 -0.3255497398479103
Ni 8.94045369028349 8.582484743212436 7.996925754990036 -0.4096569520114751 0.18226910264798285 1.9827285714231209
Ni 5.350562207537513 4.089677756753719 10.261801441754388 0.4795739887175869 -0.7277867452462304 0.6701459548043104
Ni 6.999553659295221 6.201728239191586 2.8981426527363388 -0.660651899270946 2.2092396746086145 -2.165718097176896
Ni 2.9437578140720473 9.429560610408263 6.850064232115001 -0.26955548387047773 -0.24553598102742877 -0.3041471058024181
Ni 3.8654394041435562 4.208666911805602 4.955589907638833 0.13236964671437848 -0.4121182690677741 0.5567762462312025
Ni 6.618325996712178 1.8056344549000276 10.747820615300729 -0.448966291134059 -0.7109683881373111 -0.1640124704306401
Ni 3.94478110691826 6.479953018792958 3.894468340224215 1.5574318559918596 -1.1866065321356016 3.1563052669579577
Ni 3.6592090067225556 1.410620036603036 10.897807975545431 0.2380198751560417 0.2671039370061916 0.9275208374481961
Ni 6.222085465042119 6.309738531750283 9.411161422097008 -1.338231427535166 0.010438421724504604 1.7786727119173495
Ni 8.360923248806067 2.8956679628444393 8.893648918186585 -0.6114705524502888 -0.07008235863938253 -0.7802979277710691
Ni 4.37078530672841 5.281918577933918 12.949667522938608 -0.34936021200394674 -1.3340816670328508 0.2867499933718932
Ni 6.028827534301046 3.498625593427098 1.7658971500397842 0.0112028106943549 1.2846653213832522 -1.1671751628838674
Ni 8.539308705121165 3.0550720609871767 11.248524134427255 0.09649967229064672 1.3351203927100104 0.7773432160181194
Ni 0.9665610833833771 4.820235414931934 10.369432668728283 0.03436485063311501 -0.2302417738725196 0.2659520827899355
Ni 0.07664893317599172 3.1240058395569177 5.337170428803286 0.39541329760826743 -0.5453276380746285 -1.5595082789049142
Ni 9.061333493437354 0.710767626758275 10.929794559151961 0.28943705328575314 -0.41299424391482426 -0.8588325309428627
Ni 4.867595213922144 8.483497147536458 7.4635505263111135 1.9622337939038785 -2.046743897932817 -0.6788545383219018
Ni 5.41728711010692 8.536304259374948 9.748877035366695 0.26385689082380365 1.705976569804204 -0.37085746264577424
Ni 2.248794882289042 5.563999530891807 6.032369223616835 1.36207660958388 0.4566371774157555 0.03722263179688428
Ni 1.6395382112478047 2.5161624747701308 11.756366254085366 -0.2643019487810222 0.679910490390242 -0.25387381146916277
Ni 1.9810435444011159 5.263452000185364 3.602574736424165 -1.4656817825710564 0.37625369396068103 -0.2316473959707946
Ni 5.104525243890157 5.294582176359561 7.561236195497066 -1.9894697468016962 -1.4950880036473155 0.3580662244183769
P 2.4473316522851514 5.030340704997589 8.232873958295189 1.9916281879055955 2.0630932858251176 1.846774549791594
P 2.038287127528412 4.617926708375934 12.479661764430281 2.2956385110198334 -2.399215916092868 -0.8391386520583612
P 8.117338511904844 7.5043847814562685 1.285841005729939 -1.3990956100103904 -0.7084715898573863 -1.3955264046018934
P 4.028512482761424 0.13433897132538913 1.6597859292627295 -0.5219658234202366 0.6916707162499637 -0.32849082475410524
P 9.226484413038586 1.603662695530518 12.882899566006481 0.9406051814359802 -0.0431582805550289 0.3763711933751518
P 3.5821604167448085 0.12573933035459783 8.979266262309695 -0.9837331229737056 0.32449430200020246 0.7030702163361569
P 6.2980389766637686 0.9403166414133087 4.395762452891507 -0.04634721980597179 -1.2714493369136102 -1.3025092915432084
P 0.4810211236133809 7.638686314205382 11.03776834909879 0.6735408394184723 1.192353719032024 -0.33069863103870145
Ni 8.546543709986665 5.554199983551342 8.67164564858015 -1.2687165113634795 -0.32903898394809133 1.5321319437744902
Ni 5.15730427679644 0.5126969670368126 12.523086769053794 0.2596937605850495 -0.026283616286877313 1.018754376243897
Ni 0.19815864037571299 4.439447655620144 13.235190952985153 -3.0461337536071733 0.4178883387823319 0.5327721700071212
Ni 1.4053037587717239 2.3253286918429827 3.125076582838435 0.7695206346499069 -0.7241676604364045 1.7919429466636945
Ni 1.112852320185149 7.916667743060955 0.24865766398673542 -1.16833653018182 -2.337733126197038 1.4506873660447532
Ni 1.4696513117475511 1.5643521904398308 7.649346948800213 -0.24280906901456892 0.04446337251969761 1.2172363412063167
Ni 7.223221073617163 8.603178916249464 6.386743131400904 -0.5259849718819587 0.9007618241867971 1.2459090265506607
Ni 4.1141251470624995 5.732211054103671 1.5509351406666163 0.8062455008747662 -2.141811208652311 -0.02397270876551355
Ni 8.716449328775058 6.534454226207976 12.556115081045228 -0.860730262186208 0.2907411168091573 -0.5833010319946083
Ni 6.671217345347291 4.137524257235527 12.709020778310709 0.4198333783238447 -0.14731444094966886 -0.30284072828616876
Ni 7.484261546707465 8.70751086868896 3.301489026183743 0.7873430075433085 1.1652581483668125 -1.3067629246132397
Ni 0.3506965036292765 6.390240830389569 6.945776888331162 -0.532399874269367 1.0836253658856692 -1.5841083368417814
Ni 4.999397721704776 7.738067014932267 2.4312059215183073 1.7617283707535274 1.5652942894590718 -1.2938192199683782
Ni 5.8184788934895915 8.015730215889487 4.6880940880339965 -2.12972419558079 -0.02819137483255145 0.47068619930965394
Ni 4.915170284725944 2.5949238796125433 3.6165206060872896 0.05905361162904669 -1.6397022720570018 -0.30775153532422483
Ni 6.1151328122632425 0.9487777596518757 1.5717715802934944 -0.9470691918937689 -0.7032658772867307 0.9541682648323954
Ni 5.243122853267038 1.019190361984552 6.239590807344765 0.07373538201093753 1.1582104974914116 -0.2467089182896074
Ni 2.3882442192762205 6.565303613060096 12.280317257151 -1.985518218353116 2.3129371501992813 0.18842715182957873
Ni 1.0193962741540745 3.9106932832181927 7.355548657432079 -1.2793336247576934 -0.7268575485637417 0.24597512544737637
Ni 8.731097171743373 1.3286950720652297 6.871762694960653 -1.4042416729877043 -0.009717998618712295 -0.3470112521557959
Ni 7.875185800546211 2.3469401099987914 2.935403395775869 -0.5303008256484931 -1.4059332017575141 0.08073829569133192
Ni 7.178013992762873 2.6495374027563914 5.302073635472558 -1.6776514976072656 -0.634992803941945 1.5548165298561996
Ni 1.7131518118521514 3.073248489769585 0.5654432411888526 -0.3502248739970872 -0.10316242902280298 0.36719903995758046
Ni 8.66255649822454 0.19811090619096003 0.9446464127597259 0.26906877404204627 0.8370100357511328 0.7424078375935149
P 5.773356049431925 3.0206379304565485 7.099957369118871 0.4167863639674048 0.8977572330325185 0.2539098069134208
P 1.4050791273140628 6.004997880500834 1.5245240970321159 -1.1650995113017613 -1.3879084830453194 -0.9399271815323491
P 2.97315645609344 3.591136315407182 2.778086498260566 2.1899970243289184 0.12420382307413448 -1.327733870437952
P 0.1143561312376231 0.8019567669957864 2.7546340381163437 -0.6553505416626907 -1.4871908602874258 1.3563492201817995
P 8.02033516077154 3.475806781186361 0.9025252065550544 -0.2511425285809287 0.25910112130637314 -0.2722003776924925
P 6.8226376670989906 6.6073377745749236 7.506071389317541 1.0724822047846563 0.9549352249054068 -1.8334714049247842
P 9.378644146671753 8.367334604993477 5.984807256314731 0.5957551985975611 0.8204079084180773 -1.265584650602717
P 7.094451090512954 0.5300076287428188 8.762495969702355 0.4919304534004108 -0.004972770624243048 0.5265567852250287
Ni 3.516661627548468 0.08470571479076879 4.432269744583466 1.6179787643369812 0.059719784458135854 -0.8550509524132436
Ni 1.0393791142418405 6.944022891032591 8.941155663588681 0.8714401924045444 -0.9629480679075546 2.074112005533125
Ni 1.4134840876882144 -0.18210029904616726 9.352694533489865 1.1041168009708016 0.532020122332445 1.2048595648085185
Ni 3.513526146785282 7.904500205770981 13.89371866233553 1.1669069968241452 0.7797006605067024 -0.7074786298164977
Ni 1.763862363419138 7.922152494485513 4.404789829596262 -0.21517510934738426 -1.2443295978786828 1.6128668970317128
Ni 0.06712736726438312 3.9842413663140546 2.560481325402253 0.37297013811340285 2.121243926023921 -1.3900802938856576
Ni 3.5661367060983187 8.457926599939373 11.287127986390717 -0.8086654231701687 -0.6224964712471471 0.014895171944277573
Ni 8.012997199821278 6.928991302657438 4.9549600035929755 2.0070733188160723 0.5298375128588295 -0.5761955312980787
Ni 7.578279171382691 8.210298496800252 10.562023256847224 0.9325774260354972 -0.48594981033694373 0.4541010412574631
Ni 1.631395320907591 0.7155644443437458 1.136834536183689 1.6844721200735249 0.3723335329706684 1.5086271757843308
Ni 7.334273250498355 8.71441828601204 13.133709948129138 -1.7824360356145237 -1.5912500900928852 -1.6103958097834008
Ni 7.7258152408456695 4.528411072497997 4.067471065235109 1.0539129264229012 -1.487332785181929 0.08299752403915382
Ni 1.5725044404241135 0.23145557415193205 12.638636254910242 0.7872190803709346 -0.011828874314128013 -2.4890523174307257
Ni 3.862762545939762 2.4566351384899474 0.9413256110439697 1.347902374966027 -0.8393803357555222 0.44847906708499535
Ni 1.3280492566244542 0.647090224297803 5.165771010821448 -2.4494565574159752 -1.0904698996113285 -1.253893587418034
Ni 6.403494086391572 5.592003585946887 5.627365257204774 -3.1176070790568113 -0.2561862616524233 -0.6026138733906073
Ni 6.384475289642935 6.2278790847209615 0.11206676229829404 0.32713662471905597 1.298433578811938 0.5797994465992531
Ni 3.5970890490352003 2.956496289650244 7.314192134147862 -0.7924116803154675 0.8865608500960668 -0.8250502922860953
Ni 3.966476761870692 5.967203637749358 10.866219176811844 1.1615814708461738 0.449819897383606 -1.8750289166515965
Ni 2.704281960917208 7.336248135396958 2.3325197063813574 -1.3651688753559585 2.8980058156172737 -0.6347783739382938
Ni 7.181973122204148 1.7356617558386043 13.402946661530846 -0.38978283879536746 1.4078736133133365 -0.9935894469424954
Ni 8.089531009375218 4.589800977947953 6.700253769143204 -0.4291703394540544 -1.4726643845364766 -0.1174870731755912
Ni 4.878368164245806 1.877376126690532 8.96404654508875 1.7683273641272836 -0.07450568451805877 -0.9006119288724941
Ni 2.9675032310756357 3.323815521146439 9.784275209236451 -0.5393835046760517 1.2990868961252207 -0.9893820937293671
P 3.4906792556123376 7.4950438566751965 5.861641828079167 0.6547424757650466 0.13665027636760338 -0.5142077767413725
P 7.750908446595224 5.57999516260609 10.647257791527903 0.8280610540879609 -1.4426981771916896 2.149757460082581
P 2.071251793940174 2.359117006932835 5.763996405362714 2.104344322055105 3.007236819431659 0.1699252363706493
P 4.766754408720461 2.9536415982091344 12.55637527915035 0.47826786831165374 -0.46879695270674104 -0.5500402130589496
P 0.15316121554857298 5.2952560707325445 5.052345228204304 1.1037139091054282 -0.06818719849919869 -0.5687485881017301
P 5.5882503686751335 4.705055635016222 3.565204485549025 -1.0523327264199747 0.5845073935978836 0.4475480706302938
P 5.586528194166399 7.696276204163238 11.717885949423618 0.16210831142939178 -0.35413012258876425 1.400456237803343
P 0.9344303612581817 2.317017327909523 9.581136302251512 -0.13143865025967685 -0.035968190564492894 1.1174677683564112
