# total energy = -340868.3984664728 ev
CRYSTAL
PRIMVEC
9.22481333205808 0.00000000000000 0.00000000000000
0.00000000000000 9.22481333205808 0.00000000000000
0.00000000000000 0.00000000000000 13.50144676988878
PRIMCOORD
 96 1
Ni 1.1694941710441003 6.5414627936779395 8.75833490066476 -1.6465450060104483 -0.4425675866965668 0.39812683988468855
Ni 8.733287687264705 3.4002016531993817 5.788515995129746 -1.4130893531863211 -0.9383544377285905 0.3067200087359169
Ni 1.0600325349933237 6.845632566600766 12.90820669868528 -1.5161867332991437 1.591191211830492 -1.7641143544872004
Ni 2.1986512555181292 8.273624459321493 6.925917962764353 0.9451192672562496 0.05943336356596862 1.9542206937914148
Ni 1.7794480592383857 4.161101163397616 12.092247044622537 -1.9314610314973963 -0.8609269515780462 0.1628811850396743
Ni 0.25595720806054906 5.723000447734143 1.3902983826021469 4.116041512796434 -0.5092589173765294 -1.303425889820207
Ni 7.187624074548721 3.6095587937836036 8.206773158942564 0.5904391857012864 -0.30132480586227456 -1.6310255702186103
Ni 4.100798558066087 0.7563525996631402 11.826349177619774 -0.19188194314739856 0.3783987653281419 -0.19979502734688814
Ni 0.9815939464765739 4.542168980995925 4.754183790326668 2.312091514369534 0.7755817532423224 -2.2561273402990887
Ni 5.320032923074943 2.0292467818592335 7.854871433936682 -0.2845864100616711 0.6617672438223119 0.3099837670888532
Ni 8.753268633134077 4.784311108477538 9.702450275175458 2.1447201547689905 -0.5692895482068647 -1.1931229930978806
Ni 3.8882957561053852 6.315390291175295 5.918885670798682 -0.4272636093496448 -0.7015874611430434 0.05940148188676867
Ni 3.582410167886297 2.437896791585624 13.37063183576667 -0.7880981405417782 0.9181450526602509 0.4386641378771026
Ni 0.15288375530365111 0.38523466582046706 11.58637488129204 -1.3119310990777406 -0.17630979974075442 0.30529844579804194
Ni 2.9848452041160964 1.1040164453835228 9.754323246003093 -0.2670851679531142 0.44481755907300813 -0.8488844185912156
Ni 7.610618669144398 6.518170139790512 1.6526852856169678 -2.7341077592773106 1.5601196872366678 0.2876977019971433
Ni 6.332299374175554 8.684460749828604 11.66720823137282 1.1018267193850444 0.04993673692944303 -1.4193463898396266
Ni 6.864534209299909 4.356685657544638 2.6043484024685335 0.6661432614028205 -0.14936026773510405 0.30480942197676536
Ni 7.188961672494732 4.76910861596012 11.179832741432294 -0.9128277542123958 -0.36412760012110834 1.574355885440708
Ni 5.032569287257119 7.4103295201527875 4.1797509686903735 1.1441113390858684 0.694642654394094 -0.2650483400287435
Ni 5.830432624832351 0.8308208284835934 4.5611398097957245 1.6364161451065624 -0.34711049673782157 -1.0816687563799308
Ni 8.744495835570932 6.059484742069903 5.60754268295987 -0.21637375764117575 -0.9504424792413759 0.8051982905571746
Ni 5.261326210465205 6.887919111321545 7.7933862075246125 -0.7667482141110924 0.8624675565922889 0.9692395573432211
Ni 2.295650168637455 9.115241086951405 13.2899193307417 -0.11713740314565632 -0.1970640015689703 0.5113592515489839
P 1.6658168075214244 2.5512328492731204 1.6917449906031634 0.4371595283071181 -1.2573476074049057 -2.206033508966491
P 4.053687435926249 0.05789861895407834 3.5954217672162834 0.20198277902682635 -0.9440879977782578 -0.7053410146482046
P 7.857022660426405 8.87284066469401 9.96938777865074 -0.16497174902011588 -0.2225590605162812 -0.8858949343772937
P 4.895396311690369 6.631321701209594 10.250285192275667 -0.006374793178092247 0.8772742825878181 -1.114115049834094
P 1.739818260782787 6.494840586649402 5.7383173279379776 -0.25587670083180447 -0.27710064320758726 -0.5761387099182143
P 2.231786785325511 7.140005587670742 1.0911330709600848 0.8671737038187064 0.5632142885470623 2.6818572866130266
P 1.8309409677530861 2.32387809770499 5.191603225668393 -1.1637568812309378 1.2715444677305778 0.3312028243686296
P 6.999493229645676 8.435031019744587 5.8045957674034785 -0.1782972624844284 1.350185771683565 1.831554904628362
Ni 5.3513880638921165 4.290765140839865 9.372461171969256 -0.5616795970700907 0.6554238181027874 0.3246907342817246
Ni 2.9854632666152874 5.855394969948937 12.996897744837867 1.517664860506567 -1.9999446781910908 3.7406972180238993
Ni 8.12880411342893 7.020175261335027 11.553079762212478 0.5112165553235325 0.7947693819143667 -0.7060940907641453
Ni 8.455768400314463 8.357985378054373 13.657253246119177 -1.2180326118553668 -1.322726647031348 -2.906390440136543
Ni 3.2328266384930537 3.7858173038141265 2.2501912105812756 0.18813224629697922 2.075571877908103 -2.1892987127103134
Ni 0.9355160034398616 2.4361071777819956 9.943113665065724 0.49283933836792543 0.36996631829007254 -0.46823413822473553
Ni 4.773185983492098 8.90341169637042 6.355238717708966 1.7816793599541574 -3.4877734291728317 0.23586066272119377
Ni 3.8848087766323367 1.4675386678555395 5.489216001211741 -1.5116559353083256 2.4344130328192914 1.1670694905439385
Ni 7.556653510632933 1.573347277791694 6.261647450667271 -0.32467890720718273 -2.2870289149739516 0.7115851957857036
Ni 2.2967202469942634 8.468886084998788 4.676402008525477 0.9734078297882977 -0.07934835732234077 -1.2227228182421843
Ni 1.0674308353567759 4.592582586340395 7.0530072947808655 -0.054653425678822004 1.2383291573208737 1.5231428529020026
Ni 1.5712163458914974 -0.009068914073952333 2.516886101463593 0.002288796034176703 0.16685559630639005 -1.1836294517851484
Ni 4.986389871272778 5.278465913800984 11.972974819498779 0.8096995208616378 -1.0204729015969005 0.3792670268657081
Ni 5.233042932517145 6.20715555530948 1.8715163095843133 -0.06332344264899417 -1.3208746814242736 -0.4137586328846745
Ni 0.22735475156813062 1.0557614463795102 0.693089751704888 0.5172463064573801 2.005434754771385 0.06109840997321736
Ni 0.8605745416909232 -0.08862370501461445 9.19317600065538 -0.29484408323393735 0.3237628231508166 -0.14848403577773783
Ni 7.706418356519024 1.952662380840057 9.752689531546277 -0.41047019194138984 -0.8375121721985318 0.21993884928461477
Ni 2.96893240096528 5.985815382091687 10.851504104641831 -1.2817427484198183 0.2811961534331996 -2.089504171718479
Ni 6.080157548945833 3.4214832977610827 5.94622617281514 0.024633996498596284 0.6670374910823157 -1.4200809540128059
Ni 5.565265363052512 0.2911747782569969 0.10407711245707701 0.9156796218388941 1.2507871805785684 0.8709357419643001
Ni 4.883487077564165 8.954388015333558 9.825812782569983 0.8253788792701076 -0.5851216301431149 -0.7882050984332878
Ni 2.5466112177493185 2.917430267637159 7.693002710361209 0.474685293166718 -0.9297376425938568 0.27647252270528516
Ni 7.285997484867741 2.0177342147101207 1.756619413466023 -0.1263388671392663 -1.2949962709956149 0.5693831363619355
Ni 4.269658767733158 7.648265132714533 12.687363742910868 0.961131840634422 0.4340248393328784 -0.6020770270505309
P 5.538817822975184 5.201042054760518 4.112837862061525 -0.7513753311994479 0.9234867765881386 0.26568083140641985
P 9.1560239870846 2.5759922484944493 7.953242999293018 -0.2501981623897885 -0.05820797579929975 -0.19620782421626207
P 5.095021274115685 2.104096917955306 10.094478093598974 0.12880352662967495 -0.8283104510946057 -1.0896841704852394
P 3.6147615885529136 0.7554771648695098 7.6101989401337535 -2.383102555470773 -0.4213701266833453 2.0237502652511212
P 1.8293358502178734 1.621795997877542 12.006715497066564 1.4353201395600634 1.5699780680879865 -0.5806697650193484
P 7.420827357825615 2.178135270470352 4.040510712436031 0.33670575646472983 0.9375674230509209 0.2788374233930359
P 8.80501983642456 5.08564886368019 3.272305150008552 -0.853464324652414 0.4308996634403353 0.6431797106281116
P 1.1800750320377158 7.774764999153459 10.924628278146878 0.8837519198923618 -0.9192683676314167 -1.199968041044172
Ni 6.516860216284764 6.312798118604061 5.919317392066773 -0.9382924741424035 -0.6372255499272058 -0.1386927607189289
Ni 3.1642493755231 6.262449086953534 3.254659004415974 -0.894731301722001 -0.13743060617705363 -0.3368217132173038
Ni 3.4289277221916388 3.3746027959567635 10.734257648545272 0.5008588662382923 -0.32850316604927937 0.18598254694382807
Ni 3.3174181775614526 5.601537329422953 8.314326181096584 0.4196834830095417 -1.4712366509510146 -0.6663659189365879
Ni 0.24831537262278883 0.9076921212001556 4.39654330889173 -0.30183748383263503 -0.5599495017528615 -0.48656507532343946
Ni 2.9712386043204706 1.842877876319554 3.448809962557409 -2.5404885217238315 0.45765430582636024 -0.19913579649633448
Ni 3.188132417469456 4.115235391069581 4.7403170507925765 1.1296203445585449 -0.21985683109376972 0.86370142899939
Ni 6.351330164262589 8.709404645318347 2.2933965467187623 -0.6737321294936719 0.4961126098025585 0.20842467799742814
Ni -0.013144436643245529 3.6508398338415184 0.48478792977600177 1.1455218462801497 -1.2998145183198646 1.0271369438806375
Ni 6.927345963881887 6.555198540861457 9.330836046370749 -1.0622327591425063 2.2417317336990488 4.3062288418502295
Ni 4.511920817789242 1.512408160334132 1.8249365366975114 1.157455621603258 -0.32327765598428193 -0.20779784304670665
Ni 0.20419770243798868 8.245950019059203 5.80670271478878 -1.219087278372126 -0.5132870646993161 -1.0558597657366267
Ni 0.8285017103896135 1.0502634575807355 6.641374902875542 0.43898295466910203 0.8885958782482245 1.7016108366363405
Ni 8.482640281809147 7.8853520624415685 7.8660915745003575 -0.7414112780082006 -0.49993429754149377 0.3326639822951884
Ni 8.792760059388366 2.95950464164926 11.798725473831297 -0.7561519266524848 -0.2635923243085073 0.22494298736742552
Ni 9.429327534301553 2.7963176922359585 3.084891995589642 -1.477818160823274 1.5414295670263325 0.3873924841863199
Ni 4.161516280001551 8.262213365120008 1.6258438460065732 -1.7729496933906435 0.1018092574290182 -0.10281070211033906
Ni 6.01679230555861 2.5378845442532763 11.901687306345806 -0.45839221243364925 0.555681727615443 0.31888029824753467
Ni 4.933974481416001 3.225880353987219 3.5110922128490345 2.4492056177474333 -1.0374650652795228 1.2177883570550447
Ni 6.905916722305453 3.736851994176715 0.3067720927888234 -0.19862491829818696 0.999475216299311 -1.592293443755735
Ni 2.9389886566014822 7.8307965158711745 9.09225192942552 1.3589128671439177 1.2470904484532717 1.237995428130539
Ni 0.6592964927006061 7.102451372234814 3.2256580359837783 0.3401713464158271 0.07442186655500087 0.6940474440122563
Ni 7.716501077587918 7.746490946018819 4.0083769973661445 0.2573697404375632 -0.29060973343761565 -0.6918545501259956
Ni 6.604652765610168 0.1468488823637878 8.145328521709544 0.5349851184980399 -1.090751178297173 -0.1122736472954518
P 4.43527184307612 3.9734038847253466 7.140915154274028 -0.5623845935569153 1.4346585947166648 0.4463815611260183
P 1.8905978361451619 4.4693298542255775 9.592481274386538 -0.8664131715035982 0.15413274942308294 -0.15820949059561784
P 4.848764879848412 4.182373583145896 0.48897138266231793 -0.9316981087543373 0.5053621534252845 0.3411295965640383
P 6.362630560703023 7.384269422239131 -0.05464963966728554 -0.574768569043565 -0.5325286865377473 0.6931195328813482
P 7.769082514086269 5.634266967439821 7.8897190891149585 2.188939786708998 -0.7795695342454767 -4.271469326881857
P 8.782372919476586 5.409956404300543 12.76279596473379 -0.7526377428516392 -2.7126717008907217 -0.24609905261975037
P 7.538102410843778 1.4643099831582722 12.925516138588002 0.5464059587404718 -0.28579868520221746 0.8741421647167398
P 8.425677058935934 8.817408760848645 2.077103268923469 1.692209855037415 0.26863580026968575 3.3356104018816106
