# total energy = -340888.7349301238 ev
CRYSTAL
PRIMVEC
9.16014888740584 0.00000000000000 0.00000000000000
0.00000000000000 9.16014888740584 0.00000000000000
0.00000000000000 0.00000000000000 13.40680381876337
PRIMCOORD
 96 1
Ni 6.205643718122066 2.3270350979731846 11.25643264018978 0.6943256373743074 -0.055486463103078636 0.99850565329719
Ni 4.932181480471831 0.6835971892779227 5.905281515601782 -0.05890937274169855 -0.349112871879831 0.25352439854954395
Ni 2.798691171232169 1.5399309727658668 4.855099742447612 0.5373875572919455 1.9410129368518891 -1.0317325336711198
Ni 3.613568868281034 4.575366195529954 4.5539424389920224 0.5703375298554049 0.7131445698530234 0.6230682845902173
Ni 4.064568805490319 3.079028371970526 2.751893801897046 -1.4178273820919387 -0.6377184304032243 -0.661259708058274
Ni 5.417632738161347 4.787579367974913 2.4247546517490544 1.8488815688322675 0.8803948304946708 -0.378820940467225
Ni 5.27695116944681 2.7702397483628274 0.31343648322260614 1.1218859520287647 0.22165094687971504 0.3393907594960607
Ni 5.845274295358777 7.99748794920402 12.479039562487145 -0.276874129019078 0.1146442044101574 0.018767510415490258
Ni 2.0699005547132705 6.783566680211455 0.30824817481526706 0.910236853556768 0.44909638895402015 -0.12184072215859662
Ni 0.6847403758761501 -0.002473240236549348 0.5710684225745372 0.8873128977707427 0.7571543997750702 -0.7437671798348868
Ni 7.98700873872027 9.213094685617047 6.980306528924638 0.4613872905062312 0.8808478588716896 -0.10929168184899242
Ni 9.154469731861806 2.6278452317807552 1.354301468804204 -0.7944287107454964 0.711640217393355 -0.14231441663191619
Ni 7.0723220579031025 1.0480859310574198 4.551689958346957 -0.16534918696419265 -0.4602521484605235 0.17712895320794012
Ni 0.8973529308185659 7.563141162920833 2.4387650996816546 0.03423243882030878 0.6686660278246743 -1.4291060403295517
Ni 8.127910151011388 4.139233180187037 3.9091155804592663 -1.3403281621631948 -0.21417160778353436 0.1385148403801679
Ni 8.000529118680074 3.7303149675951874 12.651933711260382 0.03069022999500521 -0.16993860610708797 -0.7648893065254826
Ni 8.563869123522844 7.6695454539866015 9.168095453535388 -0.6538808990956997 -0.5917931286260195 0.4100552158911583
Ni 6.963435366451762 0.9581149473411689 0.13323619958762065 0.573426967414006 -0.15253378036707924 0.08207552644551672
Ni 2.311389563439754 6.8931678632866875 9.083270641540963 -0.0591543988729691 0.25089236024333567 0.06624421584021493
Ni 9.43073982643339 5.3796822407538505 1.4781943163870828 0.33972268891418267 -2.126798280183247 -0.8862502608341832
Ni 6.455944790209885 2.3294991780607095 6.852096503106627 0.8696656170026248 0.18601725683650544 0.9212208633720973
Ni 3.9826862333624877 4.586752260767105 0.3351900051254113 -0.6622524109888466 1.341340148367477 -1.1194025234852785
Ni 6.391668024506673 6.082018346890695 4.795533125372675 -0.33227625993846643 -0.3193598089871145 0.5240520165253039
Ni 5.839714084901053 3.3092870379932697 9.09177034382057 -0.6707486213853158 -0.003602886859909924 -0.2076633743513714
P 0.5590768714868826 5.795919412416081 12.449504493988234 -0.4186069621159113 -0.20351978449664304 -0.7443068543884407
P 4.220584463671463 6.304060359238681 12.325960648083178 0.7986980275448116 0.5421579820973953 2.289319510780341
P 2.6667025839416523 8.793587340753158 1.542533371103658 -0.16169179271726347 -0.10058901186867192 -1.1608242809651752
P 6.54622721899296 8.069367638597363 5.86183034870522 -0.1638846866035242 0.3947430110141201 -1.1313314137123807
P 4.830952673604768 0.9732749939763139 12.65891924090628 0.3110798283665094 -0.1854726971869451 -0.7872211372534637
P 4.309630272336263 6.730163011400037 7.936452960240494 -0.029978291529645144 -1.3373760215134065 1.059651371568575
P 4.994781938903603 1.5769746154199613 3.7619761066826287 0.17702045265453384 -2.5917897431009687 1.0950523767756883
P 0.2784245616220916 5.862880101783399 3.5376532172276027 0.39682817567792306 -0.2181899849143081 1.6677856605567793
Ni 0.786239407139428 0.0807934304088478 4.094438219428616 1.134665620291936 -0.2721947212655377 0.9160246638831384
Ni 2.1458931510185053 6.860447810972042 4.270617197641953 0.6058874019355566 0.20110808973135688 1.757267506768696
Ni 6.345445912530273 5.738448637437894 9.032821120789869 0.32238574029763184 0.4022763432766878 0.573118949255284
Ni 9.025980321498555 2.469988383645737 10.11992470661611 -0.32630101619163804 0.9877838960043116 0.197901152758285
Ni 2.976828589306892 4.996201762002363 7.340211532132397 -1.3834478761708044 2.462732448589275 -1.5509647602102774
Ni 0.7103814650248498 0.46851231011385996 8.874861678985779 -1.0296705089357685 -1.5381082159625832 1.1985572767395747
Ni 1.567484701030831 1.4260520000963057 11.388034669191471 0.048157019321200936 -0.5814642358961858 0.9185492300772051
Ni 4.689977980121455 7.127539436221323 1.3232943643570947 -0.7786511361962654 -0.1153941952023045 0.014198660097885223
Ni 6.071090289104758 8.101822046590305 8.138077916428314 -1.0579086778458553 0.2990018141560528 0.021057592001247606
Ni 5.7817486618755565 3.3536679600157946 4.78138893926432 0.2246002593160261 0.6460439195497841 -0.0491522933549347
Ni 0.90247895021254 7.974917342008251 7.008997031683513 0.0541641447472293 -1.4006236166191426 0.36080007840977213
Ni 5.33636389601814 4.794367038401887 7.007830028697822 0.7530707166239998 0.44694437560802375 -0.4890659873684222
Ni 0.533322196490282 7.747150236520104 11.43611079533038 1.1123906109438197 0.06859111880583671 -0.3231753260784628
Ni 4.733232203813996 0.5954747236347671 10.377764581350892 -0.2435235785830903 -1.2297000208909659 0.4787885167018141
Ni 8.720480191390564 7.538555322939727 4.9487595181759305 -0.9535308883587126 -0.5264976498523191 -0.4384661629336835
Ni 7.771113186367561 6.6124734167363854 7.031855267558643 0.10557592356030204 -1.1480111883609068 0.20549824837925257
Ni 2.937815514612582 5.497188632437017 2.3639816430476217 -0.946865560523395 0.014218971812859383 -0.15968273270703465
Ni 2.5367383895854965 5.7594436990014914 11.191289324388874 -1.634983526425094 -0.10570807826279215 0.9441165370233483
Ni 1.2186570660381062 3.6668442950061118 3.5151430670153943 1.2291516045866637 0.7074554898880462 0.3818748968022004
Ni 1.8644750526952867 1.6070931854117176 2.457976680230229 0.7324710380957773 -0.9815991073498384 -0.011513914176870492
Ni 1.2677188242120259 3.5379060373406728 7.930580388701044 0.13196829751090178 -0.08353179927606905 0.17452751102935105
Ni 3.8391833387484797 2.9374582688006363 7.3216567342688625 0.18578919998609938 -1.557586636402169 -0.7452183104591166
Ni 4.263399000210838 7.398982132257126 5.892733027453453 0.10278576240967459 -0.1797046843549163 -1.178621714157912
Ni 8.570217106796655 7.178689708372774 0.16989511598269655 -1.6309885463330878 0.7751315530787812 0.7779060305001249
P 0.6775075222065968 5.91766695309748 8.045543923015076 -0.34399277704444625 0.2332283673046693 -1.5222607074073655
P 8.773737297817593 1.994631610180952 7.948102837769544 -1.3688828338724361 0.31127343243455424 -0.8226967044522541
P 2.202915078694504 3.6850271908192616 10.329741584076324 -0.9264198910745336 -0.8402771365381787 -0.36649687168423334
P 4.564996906834495 6.408586819754476 3.5530578398416957 -0.7786341669154009 1.137102511868203 0.7607107496677608
P 7.484418842206369 4.089585172475565 10.406964388395515 -1.362506498032447 0.5571030334430018 0.3345570855528432
P 6.620974035030895 7.963485476025978 10.314256352150817 1.1397312077403017 0.9574016841680284 -0.4261580349902919
P 2.3842951895238143 8.827947059743146 5.702476732219637 1.1317173362968898 -1.893626991368758 -0.950826344943356
P 7.196423756883735 4.000905769771735 1.2126306039950476 -0.14709486873969504 0.7891191256071248 0.4818810395842088
Ni 2.9555770435706163 1.6636571056365037 0.2735165537748948 -0.4411573366126015 -0.8377962790978538 0.15752069205870936
Ni 1.5009728589657023 1.1934666562213998 6.86667030020422 0.3258328183059679 1.566149952591148 -0.07345667442825414
Ni 7.008842225165003 1.0379090054914704 9.16868536713255 -0.06624755827432462 -0.0602453179443027 -0.18797335212161176
Ni 2.701538630680901 1.6285279341284788 9.182078421020915 0.8101237528832499 1.1701255037614429 0.33079684717946256
Ni 6.60422012246553 2.401360547156005 2.474453956295062 0.8714491912656088 -0.502196096992477 -0.03833694790698559
Ni 4.735879486882007 6.972513074134801 10.332101238464972 -0.9470781907548335 0.7590043084996154 -0.4314583641572827
Ni 7.4708068607563245 6.282167603070707 11.39697680666895 0.7090575442678433 -0.8342065048640664 -0.29704957552568845
Ni 8.053062573334186 4.123587645653607 8.177989601741904 0.10443409664637497 -0.08437255000980953 -0.5924744709637603
Ni 3.233770769437297 8.471104294354197 12.182454089409562 0.1678925222113367 0.16010516495643395 0.07403980062523378
Ni 0.236418866241557 5.237159482085438 9.99122003275079 0.4118295341827617 -0.408467045468432 1.4908667664771162
Ni 8.831281353987976 2.178228477074132 5.601376167438914 0.3122548225112171 1.357375604563785 0.6748009370778185
Ni 3.654010926223128 2.7305305023426745 11.668947127288552 0.38688597686354664 0.6191411816216692 -0.42651156167496873
Ni 1.293541284311406 3.758546546887947 12.660849284305693 1.0545919547677967 -0.5869322009892924 -0.05260682756243843
Ni 3.2618741066437167 8.780350925413106 7.8421226616036 0.7155081849891936 0.21343498672782596 -0.09133946824594591
Ni 6.030849754441197 8.219007833057622 3.528349253863665 -0.5099698274006249 0.08830248119183502 0.431104837472606
Ni 3.621089350629949 8.766042772637219 3.441848134597803 -0.22050012110472347 -0.17201194369634892 1.0900659793046905
Ni 3.8435527298330503 4.810305697704093 9.456086874798412 0.6674748357300504 -0.6761703066215193 -0.6800904676115319
Ni 5.275943553054142 4.623383696715108 11.322716394544203 0.8559426109895775 -0.11965862690561328 0.002935685589556234
Ni 8.11902480645786 0.009191293530939318 2.2806719197018106 0.6301714712939018 0.7032095701274985 0.9221253774642378
Ni 5.018570845919597 0.49559703874878264 1.6005180304421063 -0.492326660397565 0.3350435382709585 -0.15471921805417224
Ni 6.309483167461042 5.589367212068114 -0.016608266195880083 -0.040357834991756304 0.3293614002845166 0.8699785202573532
Ni 7.9758241967616526 0.28997550954167955 11.35002554683022 0.2037514408914749 0.00410296642478003 -0.23456225562474445
Ni 0.4803499706979071 5.2801114208601785 5.838569066273021 0.17156817129071095 -0.7612951614163211 0.20742117643357827
Ni 7.528699002589628 6.529308423745157 2.678250783816533 -0.06853224054344326 -0.4393686201432949 -0.8569008611377887
P 8.989266444209333 1.8004914117608526 3.4696812474080074 -1.2036542316465078 1.2713254097412363 -0.8472335132513538
P 2.4289234355699936 3.5665681436375722 1.415074477505636 -1.922399178405444 -0.5091128787169684 -0.26903972057632375
P 4.850619513559848 1.2983320422510924 8.358485758190373 0.5864280076593642 0.2808536824921163 -1.1465515730962448
P 9.049915790898938 1.6478375282716122 12.77275607689033 -0.20245714756008362 0.4538966385561408 -0.4924019937201907
P 6.6336242008333945 8.094695450649434 1.2819784281980866 -0.029742264259439103 -0.5435654039678832 -0.9608886142753645
P 2.1340948790752625 3.594240953839852 5.682460890586734 -0.5984576851303888 -0.9012603610897704 1.232087033065904
P 7.412676555048391 4.514771809734495 6.064795434695288 -0.723472948362225 -0.5134009645693609 -0.6571773104587844
P 2.1781643560309623 8.805916901339808 10.223023099899024 1.0231175383085993 -0.23955868039807132 0.2996584739034452
