# total energy = -340896.0997113034 ev
CRYSTAL
PRIMVEC
9.04960432261239 0.00000000000000 0.00000000000000
0.00000000000000 9.04960432261239 0.00000000000000
0.00000000000000 0.00000000000000 13.24501067417298
PRIMCOORD
 96 1
Ni 6.247439669454495 1.9385248155420283 11.459476992167193 0.4785180366492468 0.535648977334284 0.10833754546583924
Ni 4.559905632906347 0.24805870715706727 6.127579468638985 -0.5369877507503655 0.6138920174075879 -0.9007607957455325
Ni 2.677533612881068 1.703425141935321 4.822217467047924 0.7885740517369323 -1.6121670427512107 0.014304589548130204
Ni 3.6189820614223116 4.318733674724018 5.086732879869328 0.5529887541643121 0.6453103838178692 -1.7027446931304675
Ni 4.94392559708898 4.585362170180903 2.548618377868289 0.7279127293011335 -0.11869523455107946 -0.1753682617630915
Ni 7.559713758912711 6.1309350619633385 2.578591572716158 -0.1541538324690055 0.18862975475868804 -0.7876700518654242
Ni 4.857737164453764 4.603588073512205 11.250656464878146 0.45066373344113997 -0.424296813411837 0.6971762194492251
Ni 5.504892476781523 7.695231585320981 12.219594896810403 0.2582958517962584 0.8922730699894956 1.116735518176077
Ni 1.6148747625426718 6.4699332440837924 0.6515289861510052 0.4425105082063863 0.7423055076876958 -1.3540401124326487
Ni 2.738573194792506 1.4417105816864288 0.45752809108407483 0.052037585322529736 0.32990750259597373 0.6889116654475878
Ni 0.5100990531656054 0.013755398740605678 4.804349928052232 -0.20705222312993374 0.60463064671032 -0.047592405066982556
Ni 8.647847245734532 2.286301113964052 1.3079139900416215 -0.06884334402595886 -0.055833562029852235 0.17006253327946197
Ni 6.745077417313644 0.7910775063744497 5.083872299907548 0.8995251235662187 -0.5188313915563129 -1.239323145803027
Ni 0.7676245515217172 7.565840341114941 2.721505640828833 0.12436965922803742 -0.6470106543384276 0.4805934311210368
Ni 7.662671108565258 3.899782237423794 3.628205418262065 0.17219577757238086 -0.3833579091056301 0.5401286103721924
Ni 7.589215469369536 3.8335300833580215 12.621952074458884 0.3721250165042881 -0.3155741166924371 -0.3337656999997994
Ni 8.019325068937633 9.17385550349618 7.130955265286702 -0.41512903086963987 -0.18863052608963643 -0.33989032484029846
Ni 6.8262342698832175 0.7826939528262281 0.4037662010589496 -1.1048076563902391 -1.023720976220553 -0.4856389639647443
Ni 1.850182577051375 6.5588546572582604 9.230765750904105 0.7125750705027986 0.23760824153991983 -0.7532049282090189
Ni 0.19664790436405352 4.675849164922558 1.2128071722360982 -0.7753554961641292 0.3383345503174044 0.9724410949996543
Ni 6.343709361429865 2.3572771615446904 7.093352348940014 0.5072848243692941 -1.3939243502220962 -0.32070269616825414
Ni 3.2579661917124545 4.502359198306669 0.45802400940709137 0.14554475064375577 -1.0167545722050488 -0.035604893687803195
Ni 6.0313441651604665 5.656699591172089 4.548932987529384 0.09843828407425627 -1.0239616314764495 1.6342060248291213
Ni 5.449445550410673 2.8910318807023634 9.308368823812208 -0.5716431360407058 0.3113161127470316 -0.08881927292725349
P 0.23995750126720528 5.5133357577190125 12.276363065428704 -0.3426354916856035 0.12264316345523393 1.6158331787488882
P 3.8856015072747616 6.2109969123963245 12.590124615662363 -0.6877356428616156 0.12291570039033024 -0.8081753709076275
P 2.3089251250505742 8.48738870950448 1.457825212303137 0.7565141950879101 -0.25999252277239093 0.0398803811347055
P 6.458340700803057 7.769709829817813 5.811725649860046 0.0015753149069198675 -0.11077495126273824 -0.005433769421061609
P 4.70762232609247 0.9841263830548593 12.70050807071395 -0.06588708961111234 -0.1467022612869667 0.2513806127336638
P 3.9704777472669597 6.305728171617811 8.23042338166287 -0.18401565302544437 -1.411713298774401 0.20245843311166423
P 4.808181530569845 0.7200028181054742 3.765622756641159 0.40204494399217217 2.44845871227908 1.1481016911921842
P 0.45978868227184017 5.521136516741646 3.58104068986977 -1.1949921850961356 -0.21686509545529747 -0.5962591348171731
Ni 1.3947431346708081 1.03989004558092 2.6877967692703586 0.09989429979449248 0.7489152996947296 -0.2890575584591473
Ni 2.007030321112018 6.485905795910877 4.808455733584214 0.5313351804502785 0.3894313689932197 0.37152980612245046
Ni 5.919681096041826 5.593180417645568 9.18985248925524 0.3265385861237408 0.7289717666932671 -0.497377335447595
Ni 8.561152035250977 2.5461152572816763 10.483280777478381 -0.17327384112790806 0.36029202842510205 -0.7025390264230352
Ni 2.4232759266862938 5.256127900478556 6.965590938492648 -0.6131371415194343 0.7819238934102662 0.8699327546210823
Ni 0.6406920848405608 8.977153301505519 9.184686975043963 0.24303429765149762 0.5259389491353716 0.11706284115397902
Ni 1.374888302541276 1.083862073528685 11.268617214799514 0.09041232844598623 -0.0010284412645143578 0.528700828151225
Ni 3.9785952424448037 6.709132388499376 1.5182892393725336 0.47819536320250544 0.8168183912946062 0.01639078265319758
Ni 5.696454503453325 7.906621295309012 7.914649199402954 0.28144092245415403 -0.044656976587742446 0.6518522987014451
Ni 5.441219459979614 2.774545372420077 4.697859612828414 -0.5476817401291019 0.41104020551224696 -0.07269434234093286
Ni 0.6785293859421047 7.573242917542451 6.853882621351835 0.017964812008536803 -1.1936791227116668 0.6957608271589372
Ni 5.140980733652591 4.55580616209747 7.043657351147803 -0.2575060089051114 0.3691651625450158 0.3075162793849672
Ni 8.185991633809826 7.218290282803783 9.07383927528488 -0.09586538114075749 -0.35262885545288947 -0.5601842434714869
Ni 4.568475608305922 0.4029490217785045 10.476472760062224 -0.05643520016959313 -0.5361616553046443 -0.20431785491790616
Ni 8.288758941769247 6.974883072326104 4.839316694627118 -0.2668943920985468 0.7769387814908489 -0.2979201510560998
Ni 7.209892249888465 5.961092085934597 6.904147744223427 0.4120696752180258 0.6071217885632899 0.450627737996882
Ni 2.4028147710596426 5.102022186561599 2.746365809171148 -0.1002038606151113 -0.23346388035424306 -0.28176282456994695
Ni 2.2430078063488823 5.168364836671718 11.375874936479388 0.35578411325241954 0.7287992456711448 0.652309955064154
Ni 1.0271663017458597 3.216899086788199 3.948430195982922 0.03124867360163651 0.5679978259786347 -0.8788241435734413
Ni 3.710111578078824 2.585861119958479 2.656035372586211 0.09046529317110873 -0.7733304953143004 0.2507560917757875
Ni 1.2464653660097396 3.4455644916418993 8.209933267302029 -0.06743566504515483 0.015148425605664236 0.20365116786818477
Ni 3.7034691684238212 2.656294191273041 6.910756670342021 0.7825121618135684 -0.6480527224496969 0.920120431219067
Ni 4.232201357120286 6.871608986518346 6.205235029252809 0.142711909180651 -0.2914905933806722 -1.7464004821472054
Ni 0.7108518581011976 7.415001534398879 11.317623537694253 0.23130492502971134 0.27637970588116273 0.02824356822672555
P 0.25131927963485684 5.550746822451687 7.9066755929356205 0.33584443690569904 1.0992383898325777 -0.25513056669439926
P 8.755447042462032 1.8421555779178769 8.322727536974995 -0.9451812308424368 -0.7943677756005739 -0.2323289954188515
P 1.6751903760993407 3.261984216081421 10.56594257926543 0.702256719295926 -0.6225784894379923 -1.413255189340224
P 4.050041869456042 6.259629486627913 3.7629341191636367 -0.33224746358306007 -1.3916751491766033 0.5517816212300884
P 6.881500204165374 4.079516431099563 10.422260199736256 0.3763344265999454 -0.17929767872448477 0.7851786529021382
P 6.35587202978998 7.704299288964459 10.103717743479793 -1.0157816667688184 0.13762986667205332 -0.08172277109178828
P 2.37938534517844 8.416964687794353 5.826559761449256 0.5358621217863546 1.0468951003441713 -0.023507339093320805
P 6.923517517555265 4.090556948509787 1.5433883172719216 -0.14587565162061328 -0.39178752793022203 -0.2620452915363616
Ni 5.218970224670051 2.9579537054962968 0.4191052805756119 0.001147483340881895 -0.2042358367270612 0.07979238683829483
Ni 1.3960462777093916 1.0448130303933474 7.143338743995021 1.5335349947696042 0.035587667296622584 -0.26249986257527697
Ni 6.833935483257069 0.7077098354415013 9.216805831103278 0.3165547354381516 0.30366065308430285 -0.09186243062895147
Ni 3.0439792452516903 1.8961545675791887 9.19907041633233 -0.5264148603305258 -0.8121078731928143 0.16578447472939836
Ni 6.350342721480433 1.8992766811091288 2.484353516936357 0.13604195335964311 0.46045526561026506 0.5811114805424573
Ni 4.1171356367342336 6.847410344260203 10.36739968773277 -0.08743010588921071 0.5527198167736417 0.1842010295633731
Ni 8.020700608811694 7.188254645685316 0.11310648102596056 0.13292706187974526 -0.3490732768911472 0.3227696059996119
Ni 7.769347845640429 3.9556906936208085 8.29991981891845 -0.05060496664106124 -0.5977388046864932 0.08864726612576346
Ni 2.869593367796775 8.428873967230297 12.473714124057325 1.1554187936788876 -1.0608060539983084 -0.17611388167986444
Ni 0.18346353566327167 5.106972320187331 10.071943677349436 -0.7541315537883464 -1.2450289379385526 0.27869575560884907
Ni 8.863626013873349 2.295631256136134 5.991711422539097 -1.0639158032718838 0.9846476643681753 -0.5647651779739499
Ni 3.466233788170546 2.5991911872906583 11.657768304696571 0.6497427085576101 0.3518007031246393 -0.2129901858809235
Ni 1.172186212810469 3.1778681428617306 12.775157352734595 -0.4010141887348126 0.01660058467115851 -0.4566893708099296
Ni 3.1075436668003835 8.408874341429811 8.02136394481675 0.2589738516998895 0.360321853221773 0.41893117822454945
Ni 5.727892829259157 7.694435220130735 3.5465110191890754 0.20207456740968424 1.306501443421737 -0.3060144980284601
Ni 3.175759585028467 8.308378484183478 3.5084574325415447 -0.6618945134287955 0.008394908931914575 1.226924515028358
Ni 3.499373439610084 4.350226298156457 9.33541447162548 -0.6378937796388241 0.35409412714450633 -0.8868303017073694
Ni 7.289112487109033 6.13345085199616 11.31637831212405 -0.07135685447643195 -0.9031094984833673 0.025210180717040453
Ni 0.5610012681893941 8.890367594977619 0.34602067516170965 -0.6523469789496765 0.9371354777198247 -0.49066315665221305
Ni 4.553570909802121 0.08322740206421203 1.7427782517796615 0.5556071656237657 0.536846854297127 -2.0126163601214886
Ni 5.772588825561692 5.4142606883689135 0.13122740894582163 0.7335709560281753 0.9889128674024322 0.9693837962305691
Ni 7.749502063115331 8.824522673111403 11.33926566669962 0.6003466746229854 -0.19646493453239067 0.31513882892723144
Ni 0.19080547974106996 4.904840355535904 5.708612647011224 -0.33930771286395117 -0.9467146367678276 0.5742877727524045
Ni 7.8916713487830386 8.893363014045473 2.414075193857627 -0.02955817327309103 -0.07679602321413224 0.3922474982857761
P 8.4201410989509 1.7255604743823745 3.517755901098105 -0.3893537216777488 -0.9019445316409886 1.2302566647253845
P 1.8692681928039654 3.2079580776068055 1.7010704348614356 -0.34314508433217034 -1.0594986480407946 -0.23013121643658432
P 4.9014558034773605 1.0622516181388388 8.16297939469306 -0.6690483508647574 -0.17437298772935775 0.34609568232006205
P 8.452040954582897 1.5117907184280408 12.4020720255903 0.38616683930933493 0.6022444058663305 0.7705439337080987
P 6.3089407811920974 7.604047771037861 1.3176549842550347 -0.3838592742220808 0.21562402395934477 0.04356091531008627
P 1.9440722230604432 3.3534304688931447 6.016771587139416 -1.6436874819569949 -0.5112034426974099 -0.18493559373655247
P 6.991905378267604 4.011228116036004 5.939659002791669 0.2608322450648669 0.34823921102562605 -1.1608854732204137
P 2.553155849531802 8.475026949846804 10.26573100175171 -1.3001227935889026 0.4757929244086 -0.2844912792447036
