# total energy = -381160.18793425726 ev
CRYSTAL
PRIMVEC
9.29689816256312 0.00000000000000 0.00000000000000
0.00000000000000 9.29689816256312 0.00000000000000
0.00000000000000 0.00000000000000 13.60695020578816
PRIMCOORD
 96 1
Ni 8.020852213318765 7.271894115265505 2.268128862230402 1.2472375155540971 0.38965814029204504 0.246050458770002
Ni 2.1076625444049446 4.337579296722009 8.685179719733636 0.49846825451892873 -2.178720680084151 -0.11969410812923902
Ni 3.8723439300042677 2.4327750653697224 5.323718925332927 1.3534636711038883 1.6377479765441085 -1.2060942085465682
Ni 3.3556874207799154 0.45869035056792123 1.0001639991535367 0.33499108776646824 0.3225621179744961 -0.7027850809955702
Ni 6.171150696057363 7.762556497849379 11.087078857354541 -0.8771560118423989 1.9767651547508345 -2.003222320501098
Ni 3.4150945986170598 6.34235307162403 5.22272858238937 1.8518483647700752 2.667034619777897 0.5611970010067174
Ni 4.509664877592985 4.224770737117016 3.9709161497936085 1.173091271257986 0.8684939652920269 -0.3038339454373735
Ni 2.26981903827591 7.980931333564039 3.0761780435908435 -0.7554109347214023 0.19464793592830995 0.5864241510046223
Ni 2.923019087546293 1.9145008959037952 7.350868474197146 -1.6214772644085431 -0.3543766913819316 0.5740887693677209
Ni 1.5949293261113084 9.472144466255758 11.932287739781502 2.124567591080515 0.660233837896921 3.473751403862127
Ni 3.846284725078209 3.995090873507212 7.266791977675986 0.9566699482083266 0.1585193085265528 -1.1174150607416045
Ni 8.797896240049022 0.9588727566424424 13.2763421343592 1.3979455555663474 -2.159769592902945 -0.17761386326415862
Ni 1.1805108035340726 6.329941712874017 1.400549783980008 -1.3276690786382876 1.3368882832437106 1.413443136981314
Ni 5.5837169028151425 0.34652234723099984 1.8402856190276835 -0.7918995165657394 -0.3126268611386551 -0.6176584264285556
Ni 7.452226044609337 5.465423173425498 10.377720896077074 -1.4660558780810236 0.8066759035439655 4.227778313751809
Ni 4.415078237950558 4.088041259112183 13.404913584421609 0.4036526547989242 -0.4229966065431747 -1.1384117175979296
Ni 9.100872847018456 3.3219861657471066 13.093817996481098 0.7334598843716078 -0.20385608479013922 -0.5756969943951054
Ni 1.5354756637844638 8.80644008925596 5.6458499311283195 -0.0747244853970842 -0.2957043743517036 -0.06733616335281306
Ni 6.577945762323729 -0.05281753657721177 3.9208151667944895 1.5655007490429231 -1.0177932978822084 1.1062811556119723
Ni 6.38373356435535 3.857905847503315 7.034371388553446 -1.993401991976567 -0.3135486016219762 1.7088711177431797
Ni 3.3390645672630432 8.434778000305176 7.093031095796206 0.812645233753523 3.239286850157511 -0.7882272099204747
Ni 0.20684854164854258 7.575363457825764 13.099070743817245 -0.3835844232941394 0.318380990013613 -0.9703705856238708
Ni 0.09629169072463795 2.2772007752403374 3.7249574178907157 -1.3403883259771692 -0.743211564441733 -1.0370480323467623
Ni 0.8320416858744188 3.987458120298402 1.7922392504733236 -1.015907136603089 -0.6590814694600327 0.29872002124957586
P 1.5304646357947578 8.419698431846358 0.9959106683459477 0.0795671582013662 1.5883827958474195 0.053109478230469825
Ni 0.885767529380377 6.155178625396297 8.813887834195762 -1.0213295931702409 -0.31547255811756636 0.047506273111079474
P 2.984564551909656 1.7176018944307319 11.29017610068426 -0.38070530197413144 -0.20695992052644355 1.087711620139901
Ni 7.940508421320549 3.0719553925464567 10.004169677464866 0.9133895402531366 0.930955317051042 0.507998562606867
P 8.07066499248174 8.760429741350478 11.554627292279775 0.5463864183564461 0.6334185174762897 0.12716059170961327
P 1.488684376452015 6.407412763408747 11.404801274146745 -1.8156564882305504 1.325810171052678 -0.019169116729283116
P 5.350039373091103 5.539008120621273 11.456507831420117 -0.4128582325575922 0.2472485928431613 0.5518669818550431
Ni 9.361418411789343 3.6140110269431216 7.7183516075238625 -1.4096168212566884 2.144397481322249 -2.8579883946840714
Ni 6.09444199115372 4.224798627810836 1.7299063388544347 0.5801203202737816 0.7353645575934884 -0.004354934534586049
Ni 3.2161502795971777 6.401602202196194 12.527319887710155 1.050217479849185 -0.3877611803796483 -0.26319560309072093
Ni 5.204924093144313 6.222776370318656 0.17110847689747322 1.396293878895537 -1.2247609317181358 -0.027542942615275144
Ni 8.08040814152295 7.3385063890062145 9.13381454548956 -0.3891153804146976 1.077470402027867 0.45773272447277946
Ni 6.578326935139272 6.32491209108843 7.482189946670231 -0.4995283203523268 0.2921822201310581 0.5644990687967568
Ni 2.6088769061508152 2.660446799024468 13.62273432501904 -0.4888636415496291 -1.2181583387999537 -0.11794678642082913
Ni 5.300998236457152 3.4576093128970693 10.867571659470778 0.9989951913390989 -0.34954121766650126 1.1485572906723638
Ni 5.060543268134791 7.009517061600422 9.351199261573603 0.08568895482838791 0.9568013315798682 -0.6822345105377283
Ni 7.249358434658739 3.143736741541854 5.130037580236927 0.662131569140266 -1.7200644153558378 -0.8715456076341571
Ni 3.0004157628975014 5.8513467038163745 10.061277732441425 0.5083454044233245 1.4777690527528935 0.5353409591755618
Ni 7.276245063501465 2.3200222871523697 0.4747637574165344 -0.9989201151267894 0.28311856726689305 0.5284360045256126
Ni 5.087885444976581 0.5589406604354474 10.768458360221326 -0.3708752032575871 1.3344058831414891 0.10618964588490098
Ni 3.6521004178036507 2.517414024216258 9.495052022780127 0.3115050888293861 0.5693648815294905 -0.7531208531356449
Ni 6.325600061535997 2.3128450819426236 8.788279528819798 -2.0285302031382675 -0.9670530912148636 -0.5968995966146494
Ni 0.7214829755709262 4.472161191302682 10.998320443030753 -2.084005610497753 -0.36798168375987594 -0.6849655363156462
Ni 6.909854315682709 1.8514586309720777 11.736456951881754 0.7345322915001802 -0.45117564008055205 -0.08493510738149888
Ni 7.935739112677285 0.647332776980395 9.458504057598065 0.5954644068300197 -0.18290313668755598 1.0554234495301564
Ni 0.18918350587258675 6.79868201011517 4.399276300521796 0.012074414666030818 -0.5697916846542639 0.4612571926862701
Ni 0.20803482582569743 1.753618077050622 11.17937474134453 -0.4333856630869826 0.6002083492729082 0.4086084561423028
Ni 6.21444634976434 2.1710766852542656 3.4572132650448215 -0.5142373444277273 0.9247867263464846 -0.5268619751702733
Ni 0.07981479850542504 4.507247684128563 4.335732003101314 0.39083544842959783 -0.8215278809551335 -0.6610527342537905
Ni 2.441830243963365 4.387578013843787 5.389876580764367 -1.2996872487133808 -2.6619785454112286 2.2419258519877263
Ni 1.6555265068847833 4.779563121691597 13.461395958166802 -0.603939019959934 0.3162485170516425 -2.7331482235775186
Ni 7.924545647557422 4.96982413803544 5.996011084213069 1.7028570503386158 2.9691868066374734 0.20341462637734645
P 4.710970608689649 9.08796875267762 8.773489093886916 0.42157555782593203 0.3867612783602242 -0.8455152450086664
Ni 4.584662953275652 8.351580060639353 12.89798720858135 0.8816045345320559 1.9646398322422098 -0.6135132939119304
P 7.877875219898195 4.831309655626112 8.64467220571889 0.6244798202257632 -0.768265164976251 -4.481208609925649
Ni 7.181100609982633 8.477209042503725 0.38457640987935643 0.8359453419320443 2.0577137666807594 -1.176441932897774
P 5.573825003406892 5.856078824867877 5.565296958926451 -0.16765958026492417 -0.7448820101656204 -0.7838424505892178
P 2.79170970104053 0.9964880057080271 4.391969868430683 1.4318746042136243 -3.8531971223975447 -3.498324979436433
P 0.7251403752205557 1.0470724274000305 7.2685741930111005 -0.0677447116451414 -0.41024084953940315 0.03507190400246863
Ni 1.3889286615549015 1.2766128375407326 1.8448987397855539 -1.0680236547926705 -0.22672887562325472 0.38190215049571
Ni 3.2952110996796615 6.533999325760946 7.760628321216606 -0.8392677214370579 -3.740492043991629 0.4983325002720128
Ni 4.549223178328048 6.525901727655132 2.924487067731032 0.095884407304151 -0.7074937993251492 0.9827077670329849
Ni 6.891827630576883 4.211941017959698 12.97249905650175 -1.3738064964262986 1.0025880508966798 -1.8502725356425234
Ni 4.365600147113425 8.746038143339227 3.863748018168865 -1.2623484030536067 1.1373794196786735 -0.12618665783211816
Ni 7.153572495182041 6.765148099245284 12.561296330921989 1.8593693557374686 -2.4277929563996126 1.4496897780181743
Ni 6.825001528183551 5.641952671511835 3.4579746809861143 0.01737294406080879 0.02360118435870774 1.839129117431194
Ni 8.738331014946896 7.380584149083041 6.842404391437597 -0.2958265017518647 -0.5421407557062148 -1.4334368064944216
Ni 0.9946379230179501 8.304333225307841 8.174783741582136 0.3869129734467401 1.2492077519065905 -2.1425259753311487
Ni 3.470690048298769 7.400488807572763 1.064923401134788 -0.7947470133168635 1.1417742063122596 0.36975703049274383
Ni 8.518887035969126 5.469764824763518 0.22528521995352543 1.0797661400405791 0.20151972334747875 1.640920203624503
Ni 0.10677487284187798 8.924901162808526 3.78214728556915 -1.096355411857828 1.8316274097375098 -0.804071376041583
Ni 2.235680829039917 5.421318689597735 3.539480585226841 -1.0672320121293104 2.184810852142289 -2.4676854217191764
Ni 1.5610328362217578 2.0324692338655357 5.439174311781463 -3.3489048049976717 2.0426080213875726 2.0274220576757536
Ni 0.6649085625361261 8.567110045584348 10.283466155691109 -1.7254087103868865 -1.6211041973398403 0.5862233478477259
Ni 7.791079380729561 0.9037449409271195 2.2067749139646042 2.3814979299878143 -0.33349110618217404 -0.00472105962475316
Ni 4.964227405475509 1.1548792559132577 6.653172541695722 2.0902194526179487 -0.9545547016375369 1.3631770417369105
Ni 0.7264214877566995 2.2436110829828095 9.082788521145403 2.215204891053114 -2.202645566330865 1.1634434637555768
Ni 4.795079644353599 4.8270516763695515 9.109159172152456 1.1169309220163346 -1.2621805100171746 -0.6199341098366098
Ni 4.652000385055689 2.5042868043248574 1.7009372048731293 -1.5926587975149538 -0.1669072754799319 -0.6899475629112699
Ni 8.331554542476411 0.7915081405454416 5.819406281253418 0.1804546751470634 0.03680354198159468 -0.052521209827167605
Ni 3.2642152419474173 8.357241871484865 10.6341172552973 0.4184277562255697 -2.1897309151517255 1.4730117405735663
Ni 3.1694147736523695 5.221175070743582 1.4115173344799266 1.5122377759537247 -2.229250827623219 1.0804762787337263
Ni 6.699763016032664 8.969647132594154 7.752491676139443 -0.35885375331667874 -0.22505894411999947 0.09938779247171915
Ni 2.4226786342067896 3.2151555115175885 3.255503118887764 0.7793494478148707 -2.3637483193138777 0.09833029774148228
P 5.62605497603429 1.2815401934489778 13.367440577894508 -2.4285370336544885 -1.1942277961262853 0.29149085049098833
Ni 5.476821170300044 8.192621699659778 5.83983063633799 -0.11597834984054865 -1.0486951296673874 0.46553782233949503
P 7.431438180815306 7.519126522186189 5.027944625197676 1.0215206261351246 0.14189044172062015 -0.5696577301795609
Ni 2.802875275466572 3.9822890450437147 11.479762162237652 1.525058838977793 -1.2161096838010412 0.1946888164685744
P 5.962500415588032 7.50603648988655 1.6827171442901505 -0.6478714596768261 -0.7216068416877637 1.592400915867877
P 8.098472014220537 3.2453053515372843 2.167627536118494 -0.023292137758721174 0.44968517157795457 1.4553899137267452
P 1.4282731336373418 6.0958365258447325 6.204455903237924 -0.8739781283350497 0.9732430220756594 0.7737205316638675
Ni 2.594513198833384 0.3781829331659599 9.069154620316269 -0.3502104758193839 1.4474927703668554 -0.2753790325307902
