# total energy = -340887.7571148954 ev
CRYSTAL
PRIMVEC
9.12451174029303 0.00000000000000 0.00000000000000
0.00000000000000 9.12451174029303 0.00000000000000
0.00000000000000 0.00000000000000 13.35464525169797
PRIMCOORD
 96 1
Ni 6.43107438387157 2.21855199583904 11.533244863517654 -0.16337123730221542 -0.3901996146178119 1.1391136287609607
Ni 4.586627363024101 -0.14655790508084435 5.919432908403402 0.8950902277233165 0.5024627203903024 -0.42905463981179653
Ni 2.8801703308790114 1.4540821662111416 5.070638904961245 0.5975336306542226 0.07819907420924598 -0.39121288637367463
Ni 3.4711101991803313 4.137765264615312 4.924258015405153 -0.5259901140882812 0.2838173931061306 0.47917058263158124
Ni 5.186956353746551 4.882927627729011 2.480198277994669 0.007164636069239274 -1.397501268940077 0.09282813697633044
Ni 7.293331604157631 6.169474636725025 2.86015115246117 0.2556728123511145 -0.11873251554691809 -0.6318665996081376
Ni 5.028417964954392 4.834631587908757 11.747640774880688 1.4839751815636055 0.6788473392330502 -0.4971621341129954
Ni 5.606665637640753 7.918670881135005 12.597610015415015 -0.13104527147600012 -0.14885735995675653 -0.42647453778944616
Ni 1.7749821141496434 6.820782273673765 0.46810569334189245 0.896778928279649 -0.08198168118012977 0.27812291382451454
Ni 2.8128861824500393 1.8595937100788347 0.48830827444259584 0.1442625414972225 -1.7349238489661734 -0.4269992999446646
Ni 0.3878282404156524 9.40937883684898 4.983419523621015 0.5325826797041344 -0.42587855607666003 -1.5839790103527687
Ni 8.874016368612871 2.0298023491884143 1.2180118900287162 0.865982768834399 1.5949794752283304 0.30475414325879774
Ni 6.853311157474861 0.728792076878763 4.793796661211689 -1.1584292983704372 -0.23877937902988552 -1.477852099385003
Ni 0.976404860216416 7.6298527159299265 2.929381559211256 0.10312077715159015 -0.5869201168044343 -0.7112825769436202
Ni 7.983546158505494 3.815396270311599 3.8054596771953597 -0.8295736340777455 0.22694253429595757 -0.49403515844823953
Ni 8.034634298870806 3.8020927324204354 12.607947174589842 -1.1000500871005958 0.36828867347733346 -0.7306316708941933
Ni 7.837955451652677 9.081662878756363 6.757169828706661 -0.963543021179076 0.4191044705776201 1.0776650345371763
Ni 7.185507250755791 0.45960621080031566 0.371552849101202 -0.5646088549017438 0.7239614579628694 -0.541717552125867
Ni 1.5948003838774834 6.6940245587327185 9.398812652433364 1.0850469288235443 -0.17755549922239744 -1.2147616544135789
Ni -0.13807849646475492 4.7956243008821975 1.1559916723332233 0.57485058723441 0.5615081044892329 1.183150198155885
Ni 5.7943750899706705 2.149214832303407 6.571219582210364 0.1525515209788921 -0.07909227544747668 1.432919757648687
Ni 3.3808505305799263 4.2726711684019065 0.7717265536915762 0.1190392481540595 1.235622299912672 -0.642102675513849
Ni 5.924901228196388 5.674780116623975 4.907377668972606 0.3941506288457599 -0.12093543673550787 -0.25915357181086335
Ni 5.77386318792723 2.489093764339042 9.307773750543586 -1.4108905457627894 1.0630655394564466 -1.2312609376201828
P 0.49337329082351833 5.71298444663104 12.365038989425498 -1.367803227655012 -0.4772412268193522 0.386350930295683
P 3.693155188605207 5.974511197684905 12.918295537331263 0.8693987364944833 2.499532133916128 0.5926387644557665
P 2.570730769491471 8.78355596075759 1.536304965007338 0.1830401764860525 -0.7005651905261161 -0.782971103727858
P 6.494818221805499 7.688039726308494 5.740668214780418 -0.6572187052196811 -0.21135470716002952 -0.1418747579913363
P 4.792093114898741 1.2994399438658453 12.790157283787382 0.11488537388668603 -2.0951819388295463 -1.0981173888542572
P 3.7075262943518346 6.094243038705378 8.535955039285 0.13981041926313983 0.36819122866752074 -0.8880094096171351
P 4.763542518148773 1.220120564656047 3.6149024647997137 1.0549272266200282 -1.8086939408697884 0.6814212706078135
P 0.14713001195723388 5.5503765256719 3.418775650532486 1.1620663809023921 0.6315912344595639 0.9291375471160128
Ni 1.560273232039237 0.903794734375186 2.9691918032573104 -0.08178216357481399 -0.5450533013673193 -1.6054610914859446
Ni 1.8597305777526119 6.361116753548146 4.854640729363855 -0.6511874114239367 -0.0039047343710448875 0.21277755564948517
Ni 5.931361382398682 5.901223120632897 9.285738055065424 -1.3582328103577577 -1.2566115005698295 0.7127049112124436
Ni 8.604852401362228 2.5297525879625162 10.322833691639374 0.3040175222030893 0.24939263576935758 0.18011400397819302
Ni 2.1844171979989553 5.280646838702977 6.977013985937196 -0.4711217441851758 -0.24642532561091754 1.3135606642613635
Ni 0.3582255874799169 0.33184297468258445 9.62338421911617 -0.9155261269801652 -1.268615467009241 -1.503001087846805
Ni 1.5899278946910076 1.1030622055300257 11.312212694878731 0.44081306589930536 2.3384777176725464 1.9691888850654733
Ni 4.2060257357838955 6.939483044885114 1.780908484424205 -0.7665744075373895 -0.38284883067969544 -1.424517906738237
Ni 5.80770600139659 7.987360204348091 8.03304572140383 -0.9371455050221539 0.7347194678103218 -0.520979291137251
Ni 5.516488089644614 3.083400577415286 4.531618420030645 0.48459278208841694 0.2032873567708628 -1.3344747887062114
Ni 0.613168090973929 7.9716204218636895 7.122326395186666 0.6945020150511716 -2.489816449290261 0.8545107636390574
Ni 4.93096818122488 4.508813528225854 7.2806585700170015 0.5304291236962413 0.18455018537267573 -0.8665000747904497
Ni 7.923050646695882 7.390617146678609 9.316627264134667 2.513891487961593 0.3677963072219472 -0.8445539095366617
Ni 4.890473598809938 0.342290540447593 10.506045672208966 -0.5498640924924014 0.39037753495657285 0.6350516822043385
Ni 8.59500705336184 7.402953486341746 4.954346092357219 -1.3294968758756458 -1.9426327318434995 -0.4911030724031091
Ni 7.094243885881018 6.038218537572494 7.309732001280797 0.6306481538200043 -0.13380689338153728 -2.10367917766728
Ni 2.355656906917658 5.297253449787968 2.750776544541012 -2.124315622970709 -1.1016328582066834 -1.6629650992396845
Ni 2.422493954278957 5.274642910079941 11.373670842660578 -0.5656514372336452 -0.4554881514129768 -1.0079691127029349
Ni 1.2171550983908699 2.8904445309239017 3.9235144329864804 -0.4834638106902965 1.661274856021455 -0.5436474221587282
Ni 3.4710645766224055 2.6056685243510493 2.6861795647738695 0.31715328825409894 0.9659696283426975 0.7242249960369012
Ni 0.8883943837217526 3.3829947908024387 8.32592703161778 1.116641930021006 -0.308883592046139 -0.041829277330960216
Ni 3.212694906577007 2.707598443268875 7.379389435173069 0.9100157386848973 0.7358085871094424 -0.8260607358284806
Ni 4.046985498854552 6.602350590836613 6.077699386750323 -0.12877653004648146 0.20195758221584573 0.32439994251418325
Ni 0.9051205259085098 7.712174059451243 11.458512376281714 -1.0239320637900946 -0.577599867844773 1.6272671316174427
P 0.00885716339571508 5.998216678783152 8.08026780621051 0.6573369759651002 -1.4574064299361418 -0.8155783482399179
P 8.549329748366528 1.5192038053944306 8.122802629415894 -0.23080973056084766 1.4332984811443443 -0.15867228916464932
P 2.102460834941046 3.1628294507641064 10.390140651347311 -0.8907224376729241 0.1508291389711467 -0.8763782531361101
P 3.9161856252812797 6.0058173969335895 3.855913664005503 1.4346801919832195 1.28594521653694 1.1501398046681355
P 6.743890014545619 4.208224743075919 10.38672169685635 1.138782213563471 -0.46473383838096094 0.6262615947165343
P 6.222579294150657 7.708277893004379 10.358663823731982 -1.3319093419718804 1.240010915898671 1.8712157135530934
P 2.1855577619471003 8.421723453848061 5.62243918081802 1.1351309899641289 0.08379867978421052 0.7955700234387911
P 6.871833915992736 3.9935888570581937 1.3917544524752288 1.695401879612151 -0.08579308450641998 0.6874489648591322
Ni 5.2154248298922505 2.952281345936533 0.6228847833609663 0.3720537969467205 -0.14802920762850635 -0.23329161644243693
Ni 1.2794937615406847 1.0283050821128077 6.9798717829656685 0.9157395285425519 1.862512529352141 1.3411234043709805
Ni 7.029733588973935 0.691907151246911 9.495726827332827 0.544272714447553 -1.3699267017559182 -1.0916736901114426
Ni 2.999290829623279 1.374060199609286 9.209336694660559 -0.6987253091038998 -0.3242911848504609 0.8724220967018395
Ni 6.746280636580931 1.9348983041911623 2.3124505196596075 -1.2896206085059985 0.19587640901877232 0.8900608928295252
Ni 4.042496239154653 7.134966581085589 10.664752864465452 -0.6682299687285201 -0.4844169186321851 -0.4194001474411681
Ni 8.468997548370776 7.365533864331003 0.4529571792082094 0.516924147231271 -0.5911644939030851 -0.8095493684370186
Ni 7.6848005246957625 3.774226474039356 8.242259822637653 -0.9343838831166166 -0.09622739246586653 -0.21852191433243012
Ni 3.2347032285204143 8.71798722050663 12.573464732858364 -0.09920601547821624 -0.06773905521818656 0.2937115122913909
Ni -0.13456920930910227 5.026812050915403 10.12040366476912 0.45511765544743554 -0.4320862275492688 -0.04054372575031727
Ni 8.52500380048049 2.145638023762024 5.676057548245898 -0.4126273474937087 2.2709032130566826 1.4520739619796348
Ni 3.863217835529424 2.938603703070378 11.61760644782941 -0.7240213646665272 -1.544268064916392 0.2764658378370658
Ni 1.302898133756621 3.4910655060170774 12.671768570872246 0.026996326083185765 -0.44161884963005227 -0.4213243610470744
Ni 3.119186911852285 8.342951545333372 7.733675058550514 -0.14213315385904554 -0.4323263685845329 0.9455607256690424
Ni 5.683567021280485 8.00723339058057 3.5370311455784806 0.30920575127224814 0.01683506927946778 0.3463587061734616
Ni 3.2896054147283236 8.233995752494973 3.7228609485218547 -0.18684103828938145 0.4174959884399197 0.09139577540517807
Ni 4.026163363417216 4.125584041649123 9.424466216755043 -1.0675780826148196 0.07383385526201479 0.682347896187141
Ni 7.5123290067130615 6.204357644515092 11.561410405878725 -0.14882573538787272 0.24901314094275181 -0.3745791344717355
Ni 0.8248941702471466 0.21632939536793092 0.14617741294774317 0.21095361506686897 -0.8596051474428293 0.34083134859732916
Ni 4.924790886881726 0.052218667350713746 1.3767701795500784 -0.8787297840874222 1.6815881136575104 0.39981348355849206
Ni 6.483266590138686 5.820042341059727 0.24746679115229034 -0.5181464496741464 -1.1297211318024674 0.8502450463841679
Ni 7.804322501949776 8.840492913048992 11.54328730096828 0.39143348702491293 -0.192432673444546 0.07980447102315288
Ni -0.06242717091219106 4.60195654248717 5.988476262665992 0.05748523870066228 1.1233566230370202 0.3662724143782531
Ni 7.995946369749727 8.66532966414867 2.4669503996241753 0.7180381504998988 0.9863867585464688 1.317888602212756
P 8.51648150665995 1.57753680795836 3.468428505225453 0.17389167721756502 -0.1797890165386065 0.21396154865525735
P 1.655067782897467 3.3541248361469918 1.5621464942676704 -0.9802040267745247 -0.2235715609411956 0.9746051925305085
P 4.8001044360705105 0.8784751271775247 8.021360871867873 -0.26768757742380345 -0.11242945614702574 0.15447650591574685
P 8.624397105177641 1.6307874575693555 12.365680442589934 -0.03399075512314791 0.047151203764505885 -0.2034778755151141
P 6.517583878210474 7.629104505979944 1.3306822715334339 -1.1371737314257706 0.4542835895819144 0.4864930844349234
P 1.6796035945499628 3.2663835327440904 5.9674834988620145 0.18307642904062663 -0.06653423627680799 1.0685854408334112
P 6.940085262649736 4.062551915618835 6.059149254697693 -0.5679520603423638 -0.5650940220682784 0.041704321717321725
P 2.2472577092859543 8.603675339367742 10.138726596483279 2.9579557138083445 -0.06592514193789936 -0.7076586070377877
