# total energy = -340869.21180113085 ev
CRYSTAL
PRIMVEC
9.27012169827860 0.00000000000000 0.00000000000000
0.00000000000000 9.27012169827860 0.00000000000000
0.00000000000000 0.00000000000000 13.56776014369284
PRIMCOORD
 96 1
Ni 6.220399897657964 4.473973884091259 4.994495845495225 1.90015656495716 -1.0565963867923351 3.00552934982225
Ni 0.5303306770407195 6.637759311132989 7.3286123403498635 0.6002134914792308 -1.3424133268269978 -1.009136907758791
Ni 7.185419553442915 8.016421061642054 4.300233265563674 -1.0905850850329541 0.20366376627367502 0.8009189464555304
Ni 4.309336524948697 3.696479517613453 6.7265429734895195 -0.8960029693455731 -0.7091015101319013 -1.1540121431393482
Ni 1.7373876450326975 3.9092380778432356 7.903193015708777 -0.24618364191375663 -1.2735969793842326 -1.260006128073675
Ni 5.685272859715198 8.504678364910001 7.570443855857964 0.42099500273211365 -0.45546449726389304 0.44999473239857335
Ni 5.591459229392972 5.513061811247216 7.720367678039317 3.2938369174892492 2.4020675266090503 -1.1959098118143985
Ni 6.728096645865211 4.9776010489278075 1.401631257743492 -0.4120478208411549 -0.42601328188231147 -1.944162538224465
Ni 8.035582402934152 7.710683182031646 8.582910774891753 -1.599529042272226 -0.7043004891988321 0.535009286867756
Ni 8.420255367741571 3.0886283759278146 8.975439240720421 0.40035264389141373 -0.413183734217811 1.2086596552808992
Ni 8.429785052718968 4.221668985229597 11.378696937329837 0.1908722709359616 -2.1576466330226713 -0.10172621079690866
Ni 8.131240787449473 3.4572454901702043 6.787624731548431 -0.29795023296308687 -0.055071229942530955 -2.427477739152039
Ni 6.456352302064251 3.341767585731077 3.0338595706603497 -3.610270811078821 -1.2076664381296944 0.06167330864008088
Ni 6.976665685732816 6.710974731319248 13.244371940791705 0.9930615994634833 0.3046569555593011 -0.3283630409269893
Ni 2.306072523070964 2.613145300187933 2.8808691922625353 -1.1522959317791897 0.5041645335727575 -0.21145009508731324
Ni 1.4999056705668101 3.218085623699542 12.563216385752705 -0.5855821147193012 0.07326332747052544 1.8808298396040901
Ni 0.4500810886046085 7.410257082082763 10.402048841043285 0.807332563291358 -0.05489330960376998 0.12441825307778571
Ni 8.99429837604923 6.552900618250612 4.0736659322382405 -0.5316190302392845 -1.357987527116171 1.5139773843526507
Ni 8.86694544587465 5.035706170949519 -0.01147270245916863 0.8792866850321567 0.08014591352297165 0.7264592846840585
Ni 1.0999184649202296 9.407504775059397 12.09558973804623 -0.19601884813390758 0.36234711118191787 0.3164269516110357
Ni 5.844607709317808 1.5200589148672567 1.0327833174739263 -0.1650943906409092 -1.6129234613012609 -1.080999755337364
Ni 3.8971220289468773 8.701770419680836 1.5281229936239071 1.3729318071308292 -0.09843854118457239 -0.12844177241488203
Ni 4.55618132220366 0.5985439396260027 5.146482269726646 1.5142285811315084 1.149753367862994 0.5225044695325259
Ni 1.1367764682958392 3.1334308734917786 10.170284677563835 1.1201915950454773 -0.7882148686253005 0.2127356466679562
P 2.632631095735099 6.782781093026359 1.1743306578016068 0.6880392901449635 -0.5785866572380745 0.6204110494730283
P 6.023613756899051 2.3490673469281265 5.819686841492191 -0.45913500413694475 0.3866360656362696 -0.13646310005746176
P 6.683461010489568 2.1389600414683194 9.896961632058936 -0.263755589359249 -2.1518827339557003 0.6054210038220992
P 5.7544372367739065 8.57034790613556 13.675758902231511 -0.8287822485247016 0.3211837495697307 -2.297112010241566
P 3.1163553095536822 6.285772794993176 11.39955007580907 0.662984918279497 0.09048766176861191 0.5581232471774001
P 9.395917123092719 5.021856609318945 5.751861997000831 -0.44833302842543427 -0.372892490797932 0.33643656196374316
P 9.794625051962178 5.06033688396989 9.468898936215329 -3.652039667485491 0.28411949772758166 0.7221496015651112
P 1.3984071094602837 1.4246230132696962 4.6776347470089625 0.6671632180269026 -0.3877719790129257 0.1963086114601845
Ni 1.103153737349326 5.775452602380673 2.4925057920567686 1.39589921456028 -0.8097172614734507 -1.6804311172349315
Ni 4.312497636405206 4.286976991713795 2.0059393589637993 -0.5042411524469639 -0.33195847158773156 -0.33986615647058244
Ni 3.254100046011977 5.8444501172510614 7.295859146806931 0.3536567824967715 -0.6290733531337165 -1.2195207663651189
Ni 7.695535803380804 8.62174146013817 11.281022301372314 0.7691416540439334 -1.3576656250003778 -1.300384531890722
Ni 2.2714764293592498 0.10319221231797628 3.1123357848394804 2.5641107891284616 1.6049345295585133 0.8393926770506962
Ni 6.237419840866622 0.9224753598362524 11.941053103369981 -0.8744833501062422 1.8613766159754848 0.24166981320380315
Ni 0.7974612813346279 8.698822521020512 8.2771608441233 0.8311420070061298 1.4097204367140883 -0.7035618112605948
Ni 4.3135080796567005 2.989141431202703 12.998076861746041 0.2801754254781691 -0.8734824196455537 -0.09025960491820585
Ni 2.4072466299224238 0.22795228948849114 9.84840288123345 0.5641020904686543 0.5474462270795281 -0.021943851260942854
Ni 5.264001454936222 0.4358338387585385 9.615416915730636 1.5189933495100032 -1.3733817501840542 0.08521844294987259
Ni 2.9338173456529955 7.970116804383207 12.814722200134744 -0.4936325236931821 -1.8287197491724119 0.7262286567304913
Ni 3.1869287450915382 7.216446650348892 3.4602805279733166 0.259052784566941 -0.7210039179964421 -0.41068822148946693
Ni 5.206980937138594 6.987038951773387 11.858968030862348 -0.8807051626462382 -0.10184885241770202 -0.45339990142538045
Ni 5.164514510211112 5.779058679672704 3.70838049968931 -1.846804631698581 1.285566493041283 -1.4389937317569088
Ni 1.8390252579628241 3.5395641697414852 5.24689715362125 1.772608508001141 1.402981832438674 0.5624218745527539
Ni 4.8301968457900895 7.037181039363596 5.733966027303494 0.02622653779669677 0.3274014483446684 -0.4278919869622631
Ni 3.3073476243292568 4.111660452518742 10.945478199867138 0.8636816315050482 0.166395625950836 -0.10131663406331583
Ni 3.7978853775042465 7.515593473520654 9.861441307226357 1.2045127229920611 1.4543753564193016 -1.4754720291886008
Ni 6.553614417611759 8.348856891383686 1.9988022923644828 -0.617689536776807 0.7245499834764877 0.6876361411692739
Ni 4.311691135828325 3.130983561396416 4.254279418900301 -0.26747623274394583 -0.3376470373320766 -0.10324701831680928
Ni 1.2837913263274774 5.394960462402832 11.653647816183016 -1.3461977335700943 0.5747940229648616 0.10106518017414207
Ni 0.44296534328491083 8.518722599093614 5.2261107600173435 -1.1203558885374836 0.10933873303684394 -0.3311879119702941
Ni 4.098747173167076 0.14412536113722724 11.736573688717352 -0.3755615529896629 1.5808283805389292 -0.46333284426837623
Ni 2.5843986531889978 0.022324306772923314 5.9588925491104465 -1.0734929054373576 1.8520249995572555 0.7245908640167522
P 0.7516492675313268 8.102095525222884 2.9793985334291206 -1.7961806388941257 -2.0406167019891566 -0.11508257749915664
P 5.029115114510872 8.651016504066785 3.5639251222240715 0.10436724796418156 -1.1942735617625562 -0.41829817262624086
P 3.264130317554334 5.313930329730245 4.9385970124079694 0.8659200339172636 -0.7214821431844413 -0.0767605419905065
P 5.621791067180949 4.769153095229629 12.907837790302496 0.46139706069824415 0.35928004222081994 -0.020933407718557496
P 7.156478233890939 5.97532569362351 3.108156814034218 1.3155458130121924 0.77710873140981 1.21622795454646
P 7.681862374060124 1.897871989710402 2.0104298058539265 0.9058618644175238 -0.018282857469587868 -0.7085114419563863
P 4.201080045215203 2.1483506746221153 2.079544124256138 -0.7714204227757812 0.2816535526855924 0.1498472346738516
P 2.661377742734034 1.8914941460679424 11.406402549676084 1.08519399592437 -1.0307017784137604 0.26004831571099085
Ni 2.8331252851233493 1.1862696473759147 0.4582239633946325 -0.354469508206054 0.7725514510564307 -0.45503615147722276
Ni 9.074763031305842 2.7755485600313197 4.751646470638372 -2.150068563565097 0.703284389229492 -1.5816490766680116
Ni 1.192860703814561 8.493285385496362 0.8221763524613163 -0.40901931842747624 -0.20403400512890024 0.32768144147893247
Ni 2.3878071849831244 5.688795505913069 9.272329716301233 1.0175253889328026 1.4965923561069838 2.1853181307960106
Ni 7.269036050034464 3.135989427046021 -0.09495107423927483 0.1696465287879659 -0.1995309750522241 -0.5506760468707355
Ni 6.199264020470744 3.0597704874699994 8.059792252435093 -0.8193141611332664 -0.4035840063445178 -0.792960353730086
Ni 4.087882590683118 1.2105110152902052 7.527691909186022 -0.002575988257292338 -0.20923226150038804 -0.3569408525646821
Ni 4.884454867358863 6.466827539442127 1.115123318324826 -0.16490875699266438 0.6145687317596383 -0.44026387826405466
Ni 6.8457622989956475 1.146269072786942 3.9176636913412466 -0.217393971375574 -0.360659696177166 0.6415005231534758
Ni -0.0004940974798591532 1.2223675007825103 6.430915088466999 0.15285953913761416 -0.29478057698585364 1.0364312246983698
Ni 3.2968909271945264 5.088536593795998 13.394078842128241 -0.4347303500403352 0.7853552876893185 -0.3277269500048872
Ni 6.121394999254668 4.0746912076842525 10.354874119368702 -1.0751540951898644 1.4633063403603446 0.5960043384938897
Ni 9.458305041281314 1.0291225464646134 2.82400719354381 -0.9198833755075965 -0.1691816733364054 1.2598266650730174
Ni 2.3299430861223205 7.132440808651263 5.710792577394452 -1.3479625387800012 -0.8327386620692885 -1.234454504856816
Ni 0.3431474552196312 1.5577419590628938 0.6168598458306127 0.6251454788342201 1.7416681096685425 -0.6574318496717517
Ni 7.985393964736076 9.525513422688046 -0.18905022430595947 -0.3292158758455878 -1.3936831807455676 1.7867806857364648
Ni 0.13138636007114002 0.9413808457729269 10.097859998747783 -0.8692750664324255 0.16602692975750763 0.023599127476178712
Ni 8.098897333280082 5.295297385367827 8.173842558151925 -0.9435850899999104 0.24975079043972473 1.0767589777831392
Ni 7.528673615060639 6.180760857810353 10.814942836956432 -0.21624854491722112 0.30661870727136226 -0.5565204214666545
Ni 7.162707755588226 6.475689775666243 6.2568945122679 0.9882469516836595 -0.724584693369165 -0.41706867109451395
Ni 3.9556350363178145 2.2239855965390167 9.634303861424163 -0.19983179412209456 1.8453175056300928 0.053989823952894124
Ni 8.434540625086091 3.924366916250931 2.704733174320399 3.9424406273464103 1.3928398589086657 -0.9504154826581827
Ni 8.403161263560328 7.1037219720170475 1.4653855918519976 1.7783999178719372 -0.43096342679873517 0.8876327430040067
Ni 7.784927585712545 0.7589847147323127 8.280458226366937 -1.1640145057676985 0.67902268846865 -0.07365722047483443
P 6.200543297247865 7.553841995132265 9.871169372805424 -0.4985132488242511 0.9562619141366303 -0.36610966354814367
P 4.286448594784114 4.538299257688682 8.735588750192544 -2.3498882735023336 -3.2012352947014286 3.329205783906847
P 1.302461351176189 1.6523899003267202 8.160980264468913 0.22624216579482329 0.026996583193501893 0.9245589266063947
P 1.1318911142266879 3.5627116633101212 1.2155474723410022 -0.2503467721525108 1.0877746121673524 -0.09711802260093597
P 8.272693572537106 1.8111592725133567 11.874869997409261 0.9633910689822441 0.24491146006955244 0.03507293244373314
P 7.71474349528077 8.480919043317524 6.532618519260296 0.9385141032349062 1.1954488130175798 -0.34984280806732004
P 3.5406765843302863 7.961875666304507 7.44796793664312 0.19617825652990728 1.0112405843653551 0.6442076376719937
P 9.264967385747683 7.346024409701073 12.783489306529837 -0.5319591871875226 -0.22309256442224804 -0.4166863480544307
