# total energy = -340857.7914562526 ev
CRYSTAL
PRIMVEC
9.39993357632214 0.00000000000000 0.00000000000000

0.00000000000000 9.39993357632214 0.00000000000000

0.00000000000000 0.00000000000000 13.75775294879721

PRIMCOORD
 96 1
Ni 8.44272887638389 4.919718398056545 5.092968572489898 -0.021991930890058898 1.9516143665168195 0.2594515626672564
Ni 1.8073158151010047 1.1054227802717185 6.599869092719876 -0.051456001787446866 -0.42626113622705947 0.002640265836324485
Ni 1.1924473646623646 8.152346130542906 7.358059269304834 -0.7952941440695852 -0.057457727896836536 0.10189024717859872
Ni 6.830198483376531 6.2589269245347605 0.6299609836745034 -0.4806384254263593 -0.13261210174248775 -1.098277054360573
Ni 4.71280706174126 0.22067001898676675 12.640733539822197 -0.37673603291373825 -0.04744250975267958 -0.44574007088727746
Ni 0.6025244577596819 4.1926711411674855 12.874725144572457 1.487015768162142 -1.06335684544462 0.2811668428571609
Ni 3.670401435688044 3.484743349027896 7.30590373825153 -0.4151560274528334 -0.3873251212834942 0.2076510330561972
Ni 1.7897849391139067 0.29354676345881675 9.401951670870014 0.6396002208069695 0.3752856736204569 -0.5362393026201151
Ni 4.816911325310758 8.642703061772377 7.265221766034606 -1.4876433744438122 -0.025693033890729945 1.4745598017869765
Ni 7.869060334498308 2.3593175102572257 7.107433542223868 -3.7558204468185834 0.8659562864718376 1.3164359289266294
Ni 6.708356545282823 4.641254767900086 2.1119798799163583 0.7210342570137452 -2.1693991455729087 0.7156675933851933
Ni 0.8705720215990879 6.3815114573753755 4.284577111027354 0.7875764637103532 -0.037698800102354435 0.20832543341540252
Ni 8.594838600364172 7.77452520323705 5.555779938575888 1.066933249941969 -2.0241449295863787 -0.0034985000715617165
Ni 2.822104436516101 3.982046831117669 0.8400391575876712 -0.894085697718202 -0.2502074183611691 0.7314690791938241
Ni 2.841468299536703 2.6208236603704 9.578491822030172 0.3824035156121608 0.7107508728098664 0.24363953533566424
Ni 6.7516714388745385 5.327628512512375 12.075853935763927 -2.255686138996612 0.12360578447881938 -0.6296523655656382
Ni 7.679200477561359 7.276432126732844 11.102946718081009 0.32453235432698946 -1.5363560091581672 -1.9735589891087106
Ni 1.5978852966063417 5.205532776214028 6.619666292675065 1.8368611473326237 1.816409050125859 -1.4502248245860379
Ni 6.335000586391911 8.892929291679376 2.572617041382607 0.12932494635078373 0.7600674596568071 0.12190757084079006
Ni 9.245689996260513 1.647328946843412 0.5684384188833198 -0.28877088045666394 1.1373333969320862 -2.591710553123601
Ni 0.5237473750264515 6.190711607087913 10.45509390097281 0.13921469466066994 1.1695048394583083 0.7732225089815264
Ni 3.745647903396741 8.266621122164972 3.1420922729315444 -0.4163544186363088 -0.5530057234451766 -0.23749331322861034
Ni 6.6672412361313125 7.173841252457676 6.683406301780113 -0.34831788678236136 -1.426709000852285 0.5255481414548562
Ni 8.359116467855614 3.8088624562188507 11.321873989395922 -0.8816970942458622 0.0509626070907961 1.2377676283904488
P 6.823891127994578 6.815487587440977 4.589462074280079 1.6648898270662231 -0.45288696634470393 -0.09211028497369943
P 3.84761838206057 1.1384259468082878 8.318515335066834 -1.3906667625167468 -1.3689419692451457 -0.5518091320339141
P 4.737942483934022 7.406771604715205 0.8715251748565097 0.8283245921619928 0.10316885678070618 0.25168348868606333
P 5.379826343266453 3.5606008124144277 12.384783690403916 -3.5814058072180126 0.9008099038159132 -1.9399803818223167
P 2.8183914627815687 0.41863825856525433 11.539136532487074 -0.7795690200248445 0.38132288095347233 -0.7930685971731762
P 7.314191659623018 4.582298384955807 9.577171131372697 0.6847325943692336 -0.14046245102484195 -0.24357165821220633
P 8.282206211916504 7.548673000908896 8.182010440698448 0.5329619174204241 1.0398934722153577 -0.013230382647344958
P 4.600346257285688 4.244163976908679 3.113434695654404 0.806842768139133 -0.6140817648208908 0.12794812060791513
Ni 9.06915924503386 -0.1462413454930171 12.299981250293886 -0.1939671078112014 -0.270337870562457 0.9319799016608143
Ni 3.734612381461699 -0.00964057180287821 1.0557854914044422 0.8696944133580312 2.259194923480819 0.006530344919350044
Ni 4.4963171931842325 9.163365378622439 10.208541165079623 -0.08342227028139827 -0.846324114063207 -1.037683351937916
Ni 1.644255168587229 4.065114043502649 3.0886978306422614 -0.5778742045520822 -2.0470164348679134 2.0648156678328635
Ni 4.311946897414289 5.707573824790394 6.968412285656154 0.2966325425929278 0.626762702722669 1.002458724407667
Ni 1.0089982623759264 5.461972362167929 1.5517917826705054 -1.6651873037019838 0.5568947740869377 -2.025966299065833
Ni 7.2355236161184475 4.792932094939128 7.2875231082755665 -0.507868464786906 -0.8422265469550656 0.34692949107526705
Ni 0.23109078527057214 1.5963061077774772 3.4095843007007964 -0.382028134550613 0.6280955626014796 0.6234318385772231
Ni 5.147403587418202 1.986976744184869 11.017043545757527 -0.8689469936690454 0.27882199677406816 1.2111682806353659
Ni 5.021124880710064 1.8639880142035328 2.2519655696617003 -0.23483890632489876 0.7659221186653713 -0.2704669399411535
Ni 6.298463044857407 6.519568280765461 8.752462325338572 0.1263229262996663 -0.4410336665505436 1.639822856795266
Ni 4.072530591038209 6.818392166894067 12.356017073898116 0.5100474747160958 1.5394140792582003 -2.149227041500408
Ni 1.5155230792342484 8.88806012612371 4.159408536466175 0.11815427444594488 -0.3820569309060194 0.6763199448255062
Ni 3.288679535977551 5.247428279846465 4.710695836676004 0.10754487436121478 -0.6127653600023125 0.7410526091172013
Ni 1.050950165609395 1.9185170284668875 11.113471823626723 0.03585274803255115 -0.34842278779134184 1.3606817861188822
Ni 2.653620028369856 7.474037528878034 0.8391320640044245 -1.891203212418614 0.07194255177657287 -0.4811585595958875
Ni 6.859610875314135 3.387839434523341 -0.11818160398680438 1.5921304358153097 -1.2138715384991416 2.692071508141867
Ni 8.240470507153654 2.044109540029149 9.888068292095314 -0.45528117760849335 -0.5464280702276589 -0.40694083863189273
Ni 0.6285632135622881 3.9375381459708008 9.911456266649468 2.0631768466778593 0.14755252510240394 -1.575393839786919
Ni 6.162775004710617 7.78517532789838 12.918915171973502 0.4518127594439187 1.4051001643332577 -0.7458623718010187
Ni 6.888684869645553 9.334650966953218 7.943093270791492 1.5352977430969819 -0.24140884623293263 0.23445015552691237
Ni 4.076318764240783 2.259584215767622 0.03559190822388656 0.8085607792715043 -0.7061568256812806 -0.614226260818555
Ni 7.6570636341567395 1.9821075786292033 2.041636417523945 -0.834549232915466 0.8112920621597381 2.4221768957644154
Ni 6.38216005278723 9.017713408960196 5.476768797498379 -1.321153389006957 0.5996586474170255 -0.9638381838219916
P 4.8240082751071425 6.4405148399871806 10.237322821479031 -1.6575182171925003 0.5758600023355308 1.0353714159752878
P 6.72387583549982 9.02157678163081 10.88362088958548 -1.6964094949410593 2.040362934107138 0.18081565803090793
P 2.4921197708179346 5.153137546856341 8.950958841180046 -0.8187768005725578 -1.1787219871812022 -0.7801781143637531
P 1.2782593576308465 7.591085500884116 12.458512068851531 0.09918056155691951 -0.09639914215704043 -0.404624017573258
P 4.873216927006585 0.5237736948402659 3.904243581495572 -0.06981547813124105 0.6310790707098357 -0.206128939984716
P 2.048029312300795 3.480137381610374 5.305663687890899 0.43517823621103124 -1.2295753223876438 0.06527773816188759
P 7.369961465109051 0.9873220157130586 4.286324558665961 0.9089716136910991 1.645366926541947 -2.7281304586479527
P 1.9708934579575634 1.9937916959761002 0.7292637612095717 0.7328016819623185 -0.21750452881150928 0.5578944189960456
Ni 8.349105538672633 6.772257293250809 2.143210218993857 1.1219402023054676 -1.0416009418247674 1.02527058009586
Ni 6.116536731798801 4.656266461707804 5.053718210145809 -2.0172222343246164 3.183104132318357 2.0563724221615165
Ni 4.75834033964019 5.25507042578615 0.07415231544869838 -0.013035750138035613 -1.2926097730413093 0.4580793091789208
Ni 3.0746806497993866 3.641101842952502 12.033589954738085 0.17167075830684628 0.0026747186186857163 -0.3675070581163026
Ni -0.20936189898007557 2.8796226296340923 5.507489660179899 2.501352732064634 -0.26088289579714424 -1.6303907648480886
Ni 5.754629891917158 6.626022527711245 2.8160198595582195 -1.6019587347596411 -0.4499584798439993 -0.3544437971744412
Ni 1.0006981210908819 0.23609248988866058 1.7091391495998531 2.048866086482142 -2.161283201333994 0.5976349321187772
Ni 4.29368282661379 2.3006055255840807 5.1265789747309 0.4386715940762703 1.5014306580358916 0.36498583435634563
Ni 3.20937229699463 5.750221323103244 2.4554703700747194 0.8610853315327816 0.8710707248802676 -0.6732680453730598
Ni 3.603361109929339 0.013802862358957061 5.439389021921813 -1.0498870930929596 -1.0194282623824702 0.5031186088067465
Ni 8.764751798403198 6.263185094412592 12.724009430730991 2.127269049172078 1.2877881832829499 0.794232021353658
Ni 6.692188659653971 0.7823348457862781 0.43693522913302185 -0.6233063687429523 -0.1432891218403597 -1.5780127654670049
Ni 5.145260402579028 4.261459854558147 9.435864750969884 -0.24409899147058606 -0.11226439132407118 -0.16826198973561343
Ni 8.752513084979498 9.03697387271224 9.97161960105581 0.4759538754664964 0.041913609514650396 -1.6972343048351992
Ni 8.687850942397596 8.597818379285304 3.3502603803564663 -0.20104561192453763 1.6681628413905398 0.26060727353825447
Ni 2.655152217531195 7.3319763338147546 9.107536353555323 0.7649576978695729 -0.4837836559235604 0.6044193020304622
Ni 4.739023476287114 7.171322070278297 5.162748038872002 -0.6910878471633002 0.25952201089387567 -0.15898082154400361
Ni 8.586811057150776 0.5626330199505414 5.865755905815 1.9923159580012397 0.12665228461462705 0.8493379611888663
Ni 5.794645408848567 1.714980268279951 8.955031832367826 0.7467357755449074 0.17302778655537296 -0.8254693821013849
Ni 6.410096655164526 3.034072937057154 3.8208859111652838 1.1871336082836652 -3.042541665380541 -0.5007727342823892
Ni 2.3260605455160173 5.794908606986711 13.181014457890852 -1.7541505584062693 -1.2578602853752658 -0.9384624240613644
Ni 9.423245340239225 5.7767291355877575 8.013890749972202 -0.947093360263485 -0.19292349703803546 1.3293552080914588
Ni 2.670295510407986 1.6441329694516624 3.489021258766088 -0.2574345322372276 -0.1631614352842545 -0.5201665654279687
Ni 1.2961568310246456 3.1649106115152876 7.5106878696146 -0.4625142050218228 0.8618013837631997 1.1866404706973306
P 1.2711248081004405 7.403998624331186 2.437970513868188 -0.6072269466825865 1.216427472151776 0.8140549696168562
P 0.01788337349354114 1.6165911642815831 8.101500010226868 2.1871063330446847 -2.534010113088339 1.6476634358856073
P 7.673974114532498 8.308949022738647 0.8078124255586271 0.7243075284483784 0.5444858588996235 -0.5827513301387254
P 5.738791003960986 2.919327948759831 7.199363011917499 0.1392164944328828 1.4151773460636015 -1.3569009789202116
P 8.40866351736124 4.752643979936072 0.37799670606240304 0.44124912499545943 0.3492769082615211 1.6721151411700688
P 2.4919035723473164 7.365129899287406 5.831278829704824 0.03459624991763074 -0.3997682321428534 -0.7712715559027428
P 7.958340902930189 1.8852412638586689 12.51058488048999 1.1000526582037573 -0.7519134630911051 -1.059541328353272
P 8.638059494620835 3.6500975793169275 3.3460228903323466 0.16210445477464985 -0.23095011279345387 -0.36468372973489455
