# total energy = -340859.6735411417 ev
CRYSTAL
PRIMVEC
9.36210189317863 0.00000000000000 0.00000000000000

0.00000000000000 9.36210189317863 0.00000000000000

0.00000000000000 0.00000000000000 13.70238245642875

PRIMCOORD
 96 1
Ni 6.462930578757425 6.18856481469266 3.598478415798794 3.0356205127806755 0.3881854124012605 -1.4199382577873547
Ni 4.8163053376723575 0.5333823617409342 12.728171009627333 -1.7277365871891146 -3.2400360696187103 -0.7744065019872985
Ni 7.997585078758258 3.7004925613025037 6.666154665194682 0.5646569345308599 -0.21046150592179882 -0.5955022020464905
Ni 6.229093354672063 2.739510229418526 8.212221567652177 0.6018800805483764 1.3297359884696454 -0.02822737027680945
Ni 9.156678853124133 2.5735107971305187 1.8642913062176873 0.2312157077500147 0.6463411390752287 0.4691098559614695
Ni 6.650603277400784 6.8402701037908775 1.134008958006252 -0.6473415553152851 -1.2317257930717431 -0.47184833793855513
Ni 8.798306946939901 9.369685400042904 5.68822880093493 -2.526856018542061 -0.5076517207904095 -1.8780255373860755
Ni 6.919829247414107 9.020413457097291 3.8172510813993203 0.42725898136395446 -0.5006194965339765 0.3264786794200829
Ni 1.0202912486706526 4.919691031133328 9.778979651955012 -2.5037312595991397 2.6705063803765814 0.9363075825018908
Ni 2.3210710761777333 8.608125204934453 4.957522349498486 1.5446609294794365 -1.1541952056844316 0.5407040232596881
Ni 5.135122362495313 5.244808750667795 6.830158097315536 -0.4537703973909217 -0.983829539342254 1.9018732905379503
Ni 2.914618987047249 5.638419609146432 0.7423201390882005 0.7813016864452351 -1.0802307383818235 0.37791642637508466
Ni 7.230538691820762 5.923879464196549 12.495476898208057 1.1636864330043184 1.4980673979906134 2.057836408301553
Ni 1.1278056291565517 1.345118743040102 5.2094265582113035 2.3227245686033484 2.5221138758713852 1.9583462859240142
Ni 8.589578880679614 1.4826761091563783 7.8640440544417425 -0.9275748306145831 -0.09527402741366173 -0.7064782135764414
Ni 8.174238583233043 3.8966473244460564 3.8315975666532904 -1.331339328401023 -0.5173370663989736 -0.3953647037585191
Ni 5.040967701702323 2.732806964316828 4.125116319188802 1.0289125477238215 0.3688571443862938 -2.3550086254480345
Ni 5.688431958550443 4.288086175238108 13.056191917022188 -0.6906762135471782 -0.5002621131945578 0.7315223010292627
Ni 8.198523876073553 8.012498907399328 7.740380047837925 -2.1498255943163556 3.161828253658716 0.342632663472126
Ni 1.5228676134602763 2.1071002327429347 8.029624064555788 1.8914083864508848 0.6908870440064038 -2.40922882024418
Ni 0.058559948618887074 6.7378674310501285 6.252397499212772 1.1756837145755108 -0.0990661474662423 -0.7851729964751832
Ni 2.7147381072689534 0.6660255604663146 1.430282040978802 0.2217036544945214 -0.9395335456383561 -1.2121041621860738
Ni 4.01330847868106 2.5995093546548427 6.176965170194051 -1.066601063413531 0.43822499345715493 1.2814668690506121
Ni 7.129062867187649 1.92984755373392 5.277733391323735 0.9497943041344159 0.7893623519661824 -0.7722771143491215
P 2.1584981732573536 3.719741043214643 5.851040437458793 -0.5027226589199083 -1.8030215730753594 1.5344299957800478
P 3.838518032523647 1.5866890634578705 10.026074548820423 0.673844229591504 1.2588072226695675 0.9913782982237894
P 1.7201739151618023 3.185904619521988 1.079663827751589 1.1271034916739622 0.22596602931530116 -0.688988284321794
P 2.0485309220219503 6.518035911702393 8.310508660310933 -0.10184988085896653 0.3403227843920268 0.40143199299852156
P 7.516110892096047 8.619893367270814 13.554903606066027 0.2904863204858739 -0.8448845534032029 0.047154031977983304
P 8.881264533624465 1.552657822334025 3.9054945109280466 -1.017340012394874 0.5700876186281278 -1.2290433611435736
P 5.22230225722578 2.17476014460044 0.031023197719969 1.327578061586378 2.119378847790724 1.5406237832955854
P 8.970195141447137 3.8123509571615704 8.484008072589123 -0.6504801009442668 -2.2206360893710144 1.9734224635308466
Ni 1.40977342012436 3.668417999517003 11.931336286236508 -1.5619965925444066 -0.4331468076032992 -0.051425919880459824
Ni 4.622537910563628 7.822616752660995 3.542326399839344 -0.7617636164123075 -0.048654527782909754 -0.13931599612522458
Ni 0.8944655326925582 1.3997653329822994 13.678129466291688 -0.14886044528055006 1.1080120222601497 0.3078916604465149
Ni 6.225910239958966 1.599861541108834 11.261413282667068 0.11572638173074264 0.9020090663303368 0.01310414148212582
Ni 1.3086533553709467 6.820459895752897 12.725005682908222 2.079835281170147 3.336703377835473 0.27587448410997
Ni 6.688697670834877 7.947806781906679 11.530815260199821 0.667813964237024 2.3186136317587684 -0.8379603154795439
Ni 4.770974039317018 5.740157572638269 4.707070202820967 -2.7265697990290527 0.04259058097701697 1.0579107347283845
Ni 6.994997565153683 0.4606968734775745 9.373306661134158 -0.21318584683149736 -1.0434426230191967 -0.23810317889846738
Ni 2.6141704065392837 3.6415019559871387 9.800601426748829 3.6522075605219233 -2.8016922911955042 0.10757958425389214
Ni 4.863874178428963 4.05733844484487 10.950711327942091 -1.3366442855537046 -1.4823613001092666 0.05279297543131553
Ni 2.9875216760792673 1.6656864809552598 3.3840085723222075 0.3393408800947317 0.07055261340758172 1.6073279694913545
Ni 2.545115541469274 5.902496423006215 6.227596354546697 2.0647403345102373 1.2634858590921594 -0.5728914066255101
Ni 3.0273948689118555 5.4157888212715894 11.92569093867181 0.20350564342925595 -0.4670547732046537 0.14794307567260329
Ni 7.658901673284739 4.3317791057264134 0.7048352185006447 1.2748655616840108 2.2120342066346166 0.21562685217282218
Ni 4.787441976906247 1.0448761287782782 8.04195582543841 0.076437611433449 -0.9275856292478605 -0.6322949453948078
Ni 5.312103540543505 7.6931576048589205 7.730650951338364 0.4144744280047765 -0.020199357766010374 0.8673300268909128
Ni 7.582787783233332 2.3126264600859288 13.684596806420535 -1.2783902870078176 -3.9376252082356378 0.39117714803973275
Ni 1.0191490722147767 4.801822165727767 7.345244102927631 -0.21741711130402558 -1.0615581016729845 1.116456039262445
Ni 8.443773502615578 5.976691082127666 8.309180178023322 -0.507848410182248 -2.192813410731791 1.5517330058348695
Ni 4.978082461914463 0.7290409334733277 5.14468294115712 -0.47618887429543794 -1.4259435834411698 1.7115283528603686
Ni 0.5032860121286024 4.738899477531517 5.025582023115548 0.5165338537713878 0.5451936835999256 -0.33127147282303593
Ni 3.7195818874789883 7.774589168901619 0.36229088212218136 0.41457418680743435 1.105169410605032 -1.0507180736346873
Ni 7.664069553642473 3.282118942776393 10.169401778459292 0.15195733903831893 -1.0321328544333321 -1.6216420721211815
Ni 4.10985983761097 6.561485427536167 10.136775788860259 1.0489730659191223 -0.5705519598590562 -2.0992139428070753
P 0.2860946055723176 9.060745392932649 9.263303833910784 0.05580425145381357 -0.13333740994428647 -0.34787488570767183
P 4.608176445946302 5.5263365228370285 2.250177494255805 0.1339012528675565 0.48359905071658005 -0.03353695541518095
P 2.9305813711232207 0.5422014619166323 6.547244734035896 0.29951603478830996 1.014845270997478 1.7889242144420288
P -0.006733223828409846 5.5493298455881055 11.855630583836547 -0.30317754280029724 -0.6531684464097074 -1.4016487154495474
P 6.588223591126181 7.345533391882439 9.351875873223127 1.3989115190240424 -0.06508953341048145 1.1005334544949175
P 6.770868840943266 0.21690492623210603 6.327390745643127 -0.31901553827381834 -1.4500037097141674 2.878949827427087
P 3.537947744688416 7.995768830951373 11.571593768305224 -1.1267826179994336 1.133483684168693 1.2902039918132941
P 6.279555084976747 3.9478112124080416 5.2955185766780595 -0.21121638180995236 1.6123331360154298 0.530036773353829
Ni 2.30582021186116 7.590792380526561 2.093614124671711 -0.865571135218277 0.007624606424793321 1.0355943306193713
Ni 6.12437824271327 3.8943348852280124 2.140969509500496 -0.5681819169649828 0.3943100372417596 0.7901789343302069
Ni 3.84827334290908 3.446863853383356 1.9777056834453326 -1.2701943814605867 -0.27835328466776577 -1.4277734375610573
Ni 5.062107328238127 6.833669821812251 12.448066276976897 -0.5328369618067855 -1.6306787284021529 0.9810139242703299
Ni 1.0788324730853451 0.15564869220918387 3.2995333888876623 0.3168041324447963 0.46435897154004546 -2.020158434134805
Ni 8.146526761024905 3.883353139467828 12.281144677632302 0.9330217126617673 -0.5601988987595062 -1.3411005215528453
Ni 3.2108546216114098 4.117705279168544 4.156357653887639 -0.7853889691407313 0.687706332285577 -0.538662310239311
Ni 2.885119003338518 0.06377463948710771 8.948464766268991 -2.056938836187948 -1.2945314155440544 -0.22779845453834963
Ni 2.1530307056325046 1.1075834886262885 11.590132602878384 1.2815524867858832 0.03979964849544113 -0.8094447245383543
Ni 8.839893404456301 7.345233804615324 10.589351974978596 -0.8675434284532993 -0.2592029369915601 -0.5759299363415178
Ni 9.003617845934656 7.154930355282612 1.2563510357939245 0.6346415912501135 0.5951034239461751 0.009953254557969957
Ni 9.437092535143783 9.263453627544342 12.150574248311273 -0.47662493339159206 -2.3542365231687006 -0.6408726597614899
Ni 1.780166265401583 7.296607046321719 10.36674365614879 0.6856756750087933 0.591652232172781 -0.76400021905231
Ni 0.4560635691495989 1.8280066071190113 9.911330753094955 -0.23103264520493116 -0.058266082730744816 1.7379837188384195
Ni 1.261711775454864 4.627874308759114 2.6872706359255556 -0.3983680093612172 0.817893883746972 -0.38924265002118125
Ni 0.5588763019622118 7.36227283043249 3.8101808218954063 -0.7476153499363835 -1.5945873819962344 -0.2970115231989014
Ni 3.4237581854071104 2.996518656194815 12.862741865174556 -0.009582758592428657 0.12566395255942872 0.6446843201980962
Ni 6.633479992664742 5.349392793197226 10.470470130126103 0.03205574288396414 1.5119896644986606 -1.9202181115937254
Ni 0.6370966649855215 5.132323093968206 0.24759670553782906 -0.6668917095330709 -2.337978923659257 1.1131917666888764
Ni 7.031640832762688 1.7674806170596817 2.708316641440385 -1.2115961122014036 0.13765840591714357 -0.44007695906422917
Ni 8.63810265585015 0.202770024485536 1.863784816494221 -0.6514087834061233 -0.6966951660477485 -1.4957783448461208
Ni 7.2584283939687495 5.843833491264258 6.1332965811712 -0.5295158678533526 0.4346886981691223 -0.6378251311844176
Ni 5.897188111117021 8.988366981618082 1.2084695008272681 -0.8765019231981679 1.7324049391990617 0.6083613173973458
Ni 0.9835356358364798 8.735084671476535 7.0564120187020505 2.7328638595678805 0.38607453670584474 2.662219971998073
P 1.0439960911811277 8.563187114867201 0.37945161526661303 1.1596557145783706 1.166146721619353 0.8679530051868923
P 4.946307487396078 0.514637560921632 3.1001636798838814 -0.3512893107058595 1.5811094021144576 -2.839548699921645
P 2.5920477592832594 6.506586060837341 4.189777549744528 -0.23847418908464088 -0.3332805328332647 -1.6003556519385793
P 7.96987325655012 7.355794255781128 4.796313504853689 0.04590344740033385 0.27888344613962296 -0.45464380113481057
P 4.567338956597688 8.087058688502575 5.893929163376936 -1.4095474014713336 -1.3477856468825047 -2.0728863606561396
P 4.944406980670316 4.538831355711275 8.90342462928888 0.20974031148505812 -0.22644631138582935 -0.5261091561646488
P 8.579683138762721 1.712768492402803 11.691215219223407 -1.185937788203351 1.7619744253260625 0.4085701467051996
P 8.127643401094561 5.530193708901134 2.3380239706556036 1.1173906352615723 -0.23497337502023402 0.8136852449822632
