# total energy = -381173.2342379623 ev
CRYSTAL
PRIMVEC
9.19901605616354 0.00000000000000 0.00000000000000
0.00000000000000 9.19901605616354 0.00000000000000
0.00000000000000 0.00000000000000 13.46368984898401
PRIMCOORD
 96 1
Ni 3.0238453558955123 4.454899483907222 8.672312570428033 -0.19498886420749648 0.6683675227476489 -0.0031822543827235514
Ni 8.613461865364236 8.666438998691694 7.949299347175455 -0.5919466234847484 1.0511546469514734 0.8437725512859469
Ni 1.5467869487084902 6.501128610033271 4.881085297155094 0.11136167700414369 -0.22505894411999947 0.5685228452441693
Ni 6.262009387301206 6.394548810288187 8.590696140488598 1.3636534671526968 0.4107234456027765 0.013159163089777338
Ni 4.779633948847771 2.7865751353858506 2.0628526679972152 -0.24312942846846516 0.06518363578618451 -0.9499637398327446
Ni 2.1116249310965123 8.550099042936811 3.932460686311628 -0.18111159200477195 -0.07293808292062277 0.6771110732682338
Ni -0.333306108079032 5.819591910265123 2.7236639846455906 0.9079768538779976 -0.878785577026022 -0.6072814540696058
Ni 2.022891222453229 4.794987106604938 10.737750161930201 -0.9392468676358728 1.2497116881262025 0.7049574060565408
Ni 7.829310141760735 2.470920099268744 4.45508070452305 -1.3530224698014117 -2.239692077561201 1.4404541183525192
Ni 4.711046085314253 5.470148888263009 2.4122892506881066 -0.618069031603413 -0.6643640580152106 -0.14754609734450075
Ni 8.083920507490445 6.692155376950792 6.855078229989391 0.15780454184771533 0.25716893728066675 -1.460888217837155
Ni 6.8032886896316445 3.905488251404623 3.1235626896808313 0.9565421643812106 1.4496044173932197 -1.9956967015480145
Ni 0.42364044551185787 4.749148409718201 6.007336468262478 -0.9750165690363144 0.12817489190674056 -0.1718031701196525
Ni 3.710708285946104 0.985039835707172 8.203305337551871 -0.9772667985230719 -0.5223131794573262 0.20519460109590468
Ni 5.996562580685969 7.466712526833067 1.0890107945056213 -0.16161106007799908 2.030396052702413 0.6929457263076453
Ni 3.413202908459849 0.47050851229256097 10.63891317397913 -1.9721461679215844 0.04035449255764663 0.040385088685265934
Ni 4.269576106929452 7.830404824668526 2.6611382726770656 0.336584143285201 0.8639744801551186 0.36151844463303545
Ni 2.256077079844747 6.467460211356678 2.6388968917152438 0.4878745381634823 0.10000177190663423 0.5457575265231955
Ni 4.166206763779486 6.016404858266682 10.58893583977966 1.398168984431063 -1.1846794903162177 -0.5002731689381513
Ni 0.12029185304216813 8.118609996946574 12.09556356409948 1.273960533371238 -0.3010011039742687 0.3996396769847892
Ni 1.0092332478709534 3.865877288371451 12.88597613801426 -0.546210297789898 1.4209044783553657 0.15433483813156001
Ni 7.3168421576420695 6.632665340272779 12.589923285159438 3.384812574637874 0.45799729098807573 0.6624799536186203
Ni 4.850484770325125 8.817330458662228 6.702709408044141 0.6330595914749743 -1.0089502456692818 -0.3109224768530387
Ni 6.56431665115609 6.657364698318313 3.546968560283877 -1.0158477441200635 0.25222984810783655 -0.6191836048238304
P 0.4793570458136033 8.473802403968598 6.041427101774934 -0.5123825506071756 -0.3384705616746364 -1.6270336754503978
Ni 2.4752436368037163 0.34296047540446484 12.862522326739443 -1.6018600043982476 0.9171420653170334 0.5832434392837955
P 7.548510177388331 1.9105620376882357 2.2148176531386667 0.2435040381990645 -0.9743727648047283 1.2748115685176238
Ni 4.403504581337243 2.705228236616148 9.715170061698627 -1.1457792137065945 -0.03320322622484605 -0.36202700883833777
P 6.519830209626034 8.899036119057174 8.640645877639972 0.8157678385429047 -0.30166727680335786 0.09368380010840639
P 5.799096502546147 8.352890537245884 4.726333930057595 -0.3660924371569631 0.11645863191107686 -0.1101342323549458
P 7.766149697686012 5.167197693285896 4.771760511026105 0.9739477614521677 0.3166046148394806 -0.1486868958171633
Ni 1.9099365045980696 4.342285129645242 1.6523852134429748 -0.25827296897812296 -0.2717596906106481 0.9686438327407512
Ni 1.4389008886868833 2.478500088478993 5.3558961892457555 -0.751857670152505 1.2964252901326576 0.27677822687116205
Ni 6.108413416617306 1.6867591766492112 7.844120557572023 -0.195225919918967 0.06402509670170908 -0.4420749633308645
Ni 8.539115417794775 3.5857304541373085 1.341150304529175 2.1693562081501154 0.4928732769296545 1.1468115116258508
Ni 5.537218914151272 0.8476028565848307 10.422228511545555 1.4054999708748375 -0.12763521735318664 -0.5115032333260159
Ni 7.7967180279598685 8.950486215723345 2.412370202029187 -0.3673849307161415 -0.31138476120143793 -0.39765375690301197
Ni 1.2433482058816885 3.3330150857101604 7.705255891161537 -0.46572782686311404 0.8223673461372933 -1.0960131980270609
Ni 3.244198585922591 2.27378518570607 3.7291191966322605 -0.79079702753018 0.5566456341906091 0.7772673684748613
Ni 9.088913008970712 2.3057333683847054 11.598483693998903 -0.14425199997426125 0.27072173626443696 -2.4549695168144043
Ni 2.8872583658545143 0.554127568022132 2.2388096068513503 2.541148523905333 0.01248244873772689 -1.8551218933150242
Ni 8.224545865569427 2.78801018188682 6.768358185955481 -0.328320360614512 -0.6297043018494961 -0.27359108739243204
Ni 0.03273745825416912 0.5904866788880428 4.105119777918342 0.7697018974227776 0.07444192115965889 0.5910135701475177
Ni 3.2785937068657 5.119969944978347 13.068638239654017 0.08616615157512257 -0.23691018703163072 0.09895044782398443
Ni 7.837248892596227 0.1726130965265555 10.61558078971593 0.5651809253551299 0.8039217378375961 -0.43023580460409133
Ni 6.984454111363016 5.560529220775995 1.2576903917769553 0.6329755164016002 -1.6271228927300947 0.007505050127793526
Ni 4.661647369223186 7.971738506981961 9.080464632647056 -1.3518904130794975 1.7087839573460117 1.133231973169203
Ni 4.995093302345902 3.832917213929311 4.226023365526629 -2.2177471978589933 0.06289355420042718 1.6083281286210944
Ni 1.4505928380633721 6.545467867306816 13.928726000797282 -0.07783911976666594 -1.1788677687304472 -1.6023731965892405
Ni 1.0952072517046794 1.8280560628985194 2.3013619959663676 -1.1872202544602004 0.9023967886870587 -0.5190926156374995
Ni 2.9603905433077697 3.051350413830762 11.88163860647546 0.0007749304928115686 -1.2306181618298613 -0.4950126918701604
Ni 9.294777788747618 3.965392243804069 9.71679920743787 -0.5045401717446214 1.3354865178001776 0.8165813355831355
Ni 0.9345464367083145 6.0868693210707 8.460622973699758 -0.8237495711968007 -0.5509388136138189 -0.6766755283927121
Ni 8.272693515480162 7.296052381410075 9.818476851539575 0.5904625827400541 -2.0580420965544555 0.3621797323661182
Ni 1.8171644279168018 2.1560653775464087 9.51437209995207 1.233597041952527 -0.40295562873189955 1.3537621761809138
Ni 5.2739798713836805 4.257828963456771 8.190730282636325 1.3399707788237762 0.32089090091966027 -0.04878771092666437
P 8.650497103908489 7.371603900079708 1.1636442513752752 -1.6880544381081446 -0.9566956592399394 -0.6936568934420569
Ni 4.557919264447977 8.723675276441902 12.591525753752187 1.2243588111837107 -0.7428534097713658 -0.15236408755843436
P 5.730177474435483 3.4074903195040664 6.261841045307823 0.9684669408432547 0.1318204590791278 -0.03255607955915038
Ni 9.082814061341592 1.1542097405330038 -0.03683010048674185 0.4071449842228988 -0.06929842928550646 2.0165727736660752
P 6.9183499821581 1.7810214939276396 11.800775575949036 -0.08521715739829196 0.5968528025371139 0.7414783838007101
P 5.280474376702171 4.32626964273378 0.5911545274519555 -0.7431411162151137 0.895405187860574 -0.966370206215226
P 3.420249354740251 7.690837353433206 0.6706597832120806 -0.6327320329322265 0.021865175504207503 -0.06582152648049953
Ni 6.692918895281436 2.650797658755656 0.3964582730393266 -1.0055743872185132 -1.8407219158396104 0.2443584157795598
Ni 7.762368902096918 4.131940429060822 12.747703888236227 0.6966167474013293 2.0604651041736513 -2.701594617140954
Ni 5.806685690772429 5.644194271585725 5.646590615262023 1.084046769693804 -1.0371364782955106 1.7343548638365807
Ni 0.2848484513280241 3.619674823294857 3.738300734533656 1.268645291805912 1.867115575341791 -1.0833952521527341
Ni 2.631580914265109 7.350961308104223 11.614990408366465 -0.6668294888365677 0.19383083934365328 0.07712692419098977
Ni 8.611640460189928 7.414195344307202 4.330232578840303 0.09690642081076213 1.0464359013195654 1.2072424632183982
Ni 5.6233401022415075 0.7794703443448893 3.229831562684038 0.3501564826529969 0.04521644863563825 0.44490986167649826
Ni 4.77254150748721 1.9339827325053411 12.7972773856319 -0.6170896984092791 -0.07922443014996679 -1.0727866233989523
Ni 5.243807098799192 3.9157451542801422 11.417087376965132 -0.10492672001207737 0.45720564832471583 1.4257106414947576
Ni 5.485934399773675 0.6041416982857298 1.0000259527246687 0.14673799962090858 -0.6225193540652828 0.74155011757891
Ni 4.260220707625054 6.49319905821381 7.481395076321513 -0.5842726518792583 -0.9623109485441879 -0.8930909379051006
Ni 7.48006029909529 0.08657010007259042 5.799793787961363 -0.41103172087181467 0.3240818970531322 0.3334502256419096
Ni 8.705047268977394 1.9284265268221 8.95787762510494 2.0980088667553805 -2.3489606194817414 -1.8749073034720678
Ni 1.059459875404887 8.658371461631756 1.2724520528032743 0.3241978538057062 1.3849702263526018 0.9148494126281148
Ni 5.124919015603485 1.5211584900437396 5.338191762990845 0.6537644281224934 0.4506925297965464 0.32896570750799475
Ni 6.88737689517884 5.260402123720661 10.618556671402237 0.9603779931875331 0.3668339433086779 -0.7779978188829827
Ni 1.5695913094514613 8.58344547605229 9.077462073814258 -0.2058916271629293 0.6914118061616221 1.2835132100566797
Ni 7.024285850780953 2.8124243704353655 9.768836201326872 -2.514923528770533 1.8756691213387569 1.81949848768446
Ni 1.1209277005297489 1.013473994261639 7.229718276804361 0.022485068476393533 0.012677081247036232 0.3498973154543394
Ni 5.259748993582399 6.335067972626206 12.721665153456456 -3.022559051611027 -1.7279273630436822 0.04739880099893772
Ni 3.699273909018507 2.8940380406699924 6.861311483252576 -0.7216096699012412 -0.027426728752385023 -0.10674243306457745
Ni 2.8668273512477622 0.8688912194857519 5.697335147398551 1.0231213949633413 -1.596030285090348 -0.12274086537536281
Ni 2.3452339432254954 7.943699906116865 6.98673914694533 0.7297757506518012 -0.39160986470177717 -0.7829407647105548
Ni 7.904990446654814 4.770508524944169 7.952261430337712 -0.1747396270401571 -1.001506902017359 1.0460111550773212
Ni 7.26866691068324 8.931646630890103 13.027492880746731 -1.0258953581640524 0.7343312312329675 0.01951827253858574
P 2.461757879301015 4.521141598352617 3.8565927214904985 0.1253621050482938 0.15870417084384927 0.6778178695272714
Ni 2.903200260637721 5.128525029887974 6.236151873137262 -0.4945411515503805 -0.988918009608755 -0.5948391145411949
P 2.364947434581763 2.556572137541355 0.5709792454908891 0.3838471900372228 -1.4482103652591705 -0.6208239686407308
Ni 5.999911022521564 7.656046674800727 10.972732587152741 0.5803941427604584 0.2918166092615232 -0.8181594787035328
P 2.760219954454583 6.784623886103009 9.189641314617932 0.13684542309754497 -0.5024336669245799 -0.055824820279103855
P -0.09898693191238965 5.941672052023884 11.653644673732325 0.8694193053197736 -1.5054012126478653 -1.1717751235497238
P 1.1316169571587655 0.5293785352900267 10.89063044916682 -0.1485280016417958 0.18389326851496715 0.8346847300520656
Ni 4.084896661073911 6.869310027692275 4.887817137087207 -0.8224233961862094 0.9088181188323704 -0.2858195111378239
