# total energy = -340894.7861563065 ev
CRYSTAL
PRIMVEC
9.04842291926586 0.00000000000000 0.00000000000000
0.00000000000000 9.04842291926586 0.00000000000000
0.00000000000000 0.00000000000000 13.24328157095569
PRIMCOORD
 96 1
Ni 6.5706479294204065 1.9099139355356858 11.458682827797917 -0.975635690677552 0.4749028084941627 -0.07378166186784067
Ni 4.562350492977092 0.5343111749559135 5.848312338741111 -0.44103340944022756 -1.2550966065871998 0.8100471340090435
Ni 2.666470661176138 1.719924202384074 4.703854252651879 0.23761209819466175 -0.746274776748089 0.7862988825495104
Ni 3.3425326177487835 4.335750841249903 4.752987188357611 -0.07599923834444976 -0.5507279831545934 0.8780960071581652
Ni 4.909285119280807 4.698049689437289 2.4636873630531944 0.9285739613030589 -0.6861922096338956 -0.5484150187507008
Ni 7.38507836717391 6.222817509261284 2.4589858025757176 -0.1703589814739582 0.8232039831059758 0.1523705153163376
Ni 5.150579409605808 4.395108494699184 11.766655850445037 0.07514048988858028 -0.3415926522433859 -1.2433546355599232
Ni 5.88169197038355 7.852375113322495 12.278495267422095 -1.7824401493795818 0.20901346062136264 -0.19359866872818915
Ni 1.8594146879898867 6.596924549179053 0.36637516265063313 -1.0282690006025517 -0.5470847299750513 0.8609966284737172
Ni 2.879352903965964 1.4869363641728601 0.5005895129323183 -0.7403134169583315 0.3601341626909991 0.1558456183491316
Ni 0.5535264055755622 0.010231956481775625 4.809654745713833 0.1186777510495827 -0.11152468494456924 0.06280125159693702
Ni 8.584428710069554 2.248822610831853 1.331400310447899 0.6805342400171699 0.5615147893574522 0.2779542494571342
Ni 6.98219734280969 0.7485615392703631 4.999921360602571 -0.5270254973313311 -0.25175985044995347 -1.395205788037681
Ni 0.9418865210593844 7.373840226078786 2.6162365324178487 -0.5582713427194902 0.6360556979888208 -0.33252051473878863
Ni 7.605760350401736 4.12402679657616 3.87160747044081 0.12813375425615997 -1.4531054885679426 -0.6653757871091767
Ni 7.601543785385369 3.8410373740721515 12.696797518733511 -0.08152968124437572 -0.24480733039152033 -0.17043225791405486
Ni 7.9194510714047395 8.647993880112422 6.886612519068504 0.49100871291708986 -0.24092316484576573 0.4289849629161257
Ni 6.73381813744646 0.6643397248586905 0.33184457163033587 1.625060353774111 0.46012127930961405 0.15935208884049332
Ni 1.722873988210974 6.443589976716929 9.345611894278395 0.7035319864639239 0.4638285529578721 -0.40762089541805274
Ni -0.0370388138154407 4.79987159100204 1.2438432473988175 1.2158181207025511 0.34636616237262935 0.46186937234897235
Ni 6.309166607868981 1.9915488058740123 6.94280322454412 0.21774672672930245 0.39006231770899924 0.9414035089675593
Ni 3.3671533761383414 4.270566003529075 0.35321151718752103 -0.19644128038330683 0.22137892416525098 0.13783529781464002
Ni 5.980690764040348 5.589952723049443 4.541398870025597 -0.9190104859843399 1.1577253303248771 1.284786934562781
Ni 5.342614086306131 2.614134583805613 9.390281243025814 -0.16057927637937508 0.964402540965894 0.153938888244722
P -0.0017825392880348409 5.685078791755586 12.25110840618811 1.7273339524340574 0.024150114883642278 1.4084729374602323
P 4.091081489227252 6.127836215319651 12.628912631654565 -0.008549432231907857 0.6249328486027819 0.031049927327269102
P 2.5678247560078344 8.4618587750659 1.46319692216226 -0.6405155335323873 0.5586382391406056 -0.6796960603865907
P 6.3137903519105345 7.727751186347349 5.748061243371298 -0.3325914771860401 -0.3473465240080276 -0.47459479033544066
P 4.749625699294135 1.0267516783308503 12.717708423782488 0.5690679191143618 -0.36791766329115994 -1.3150148802093868
P 3.9673081139936044 6.227803190214112 8.155080144225991 -0.29479600360482133 -0.0590096457649887 0.593367672201991
P 4.96598253643221 1.0897196524701114 3.7932861325252163 -0.6937710504224182 -0.35637649542077976 -0.6800151342889063
P 0.203195906201799 5.594639806050467 3.5831157020431266 1.2498093900463316 -1.3439367054500597 -0.7619070839687072
Ni 1.460062548510609 1.0066641797550262 2.6254939737660132 -0.26638274256945094 0.9453717495866881 -0.22959257032429492
Ni 1.8520945139593274 6.435916914197875 4.827070245042161 -0.00279067537125971 0.5150498130266936 -0.27053610261619215
Ni 5.975297904062334 5.6270241111868975 9.23799628760639 -0.30086972060272704 -0.48779123442105665 -0.2120548185508477
Ni 8.689209445883987 1.946921984713668 10.207987209826364 0.33214667633913764 0.9844476325422271 -0.154066929182154
Ni 2.263444862047408 5.232739088465486 6.9790367287319715 0.5669992095107912 -0.8515190280005851 0.04564479442230849
Ni 0.49664621028396516 8.88552402656015 9.088320897317267 1.2871996577693317 1.5483751451062302 0.4986214922673413
Ni 1.60753374301006 1.1507784094023912 11.638235205270604 -0.2540496749253947 0.0932261437456975 -0.7659820253690292
Ni 4.130197820913418 6.8638982633590935 1.6451335590379785 -0.13429591720281386 0.6410922319714637 -0.6204287900848412
Ni 5.796564408851409 7.6813689711673145 7.9600070071555065 -1.3322479562582217 0.7107200195719308 -0.6312793596460999
Ni 5.368546865999064 2.904281308730106 4.839611359017878 -0.3191034700019343 0.6810708292469303 -0.05580707966729098
Ni 0.9711581687588398 7.4691472632405675 7.099378942046721 -0.19005080347593076 -0.2757477287241186 -0.5132446414971548
Ni 4.960435853266904 4.627852025495287 7.087526413044707 0.6036338300146895 -0.07088557126696825 -0.3615773228954289
Ni 8.23487908958187 7.103355723859368 8.992267365275978 -0.7769372388289523 -1.0665748381612856 0.5623501407745541
Ni 4.663104680653579 0.34681609196527213 10.42624964480231 0.015377510897334806 -0.6129767046821701 0.00016172238884488277
Ni 8.229549568563328 7.106133589653411 4.5779635464872666 -0.8778630652117526 1.2180477813640185 1.2266614911749583
Ni 7.345536759616995 6.088448430950028 6.8883606743499675 -0.5309803682140211 -0.03049148372063781 0.4785740866981629
Ni 2.3635837569747253 5.137251082848066 2.572493742163296 -1.2593952339625536 0.17751796111624266 -0.27366667782537385
Ni 2.345767412517159 5.443449709787655 11.583713028955971 -1.52223782458923 -1.239931468810987 -0.9457551010680357
Ni 0.8548470277934272 3.2981682008491147 3.8020404815667073 0.4671599313239503 -0.07992222754793978 -0.7377556835334843
Ni 3.7033837182910654 2.7522949512624857 2.8157470160205786 -0.33662142428103964 -0.7761877622574375 -0.877798016301772
Ni 0.9535137443341294 3.182384582931887 8.48683785099762 -0.04083940261386515 0.6682803623504814 -1.312433749745772
Ni 3.517076693211688 2.8182670017653386 7.078097051663685 -0.46230954521018447 -0.40992074719582305 -0.6136727023079303
Ni 3.9967245364575703 6.7723282248062375 5.932182169506567 0.9161339357674931 1.0803970887563585 0.0817831920160785
Ni 0.892066810064506 7.740826157267199 11.34653848552357 0.31208847213668184 -1.189021312224681 0.17164170484112376
P 0.3807793468771441 5.485579166260194 7.943134413194093 -1.5668711470278884 -0.5744523233547268 0.49345614601631793
P 8.326177675451268 1.4375681694747986 7.884043688216876 0.7123866086410764 1.233185151226089 0.5819375759881784
P 1.9751530637932047 3.388009990650627 10.452220427870927 -1.3424863461567784 0.21336890937658093 1.195439042825567
P 3.968873491134874 6.1142997748379235 3.7120258668900603 -0.3726073554573454 1.4095373741690047 1.16916005452438
P 6.887044128835201 3.8632060098878136 10.296426494096682 0.5211034754199413 0.31384453559584014 1.0039389084976194
P 6.378377993727756 7.694643007388366 10.087473981321036 -0.19951246310946283 -0.4186704683639951 0.982377637387076
P 2.4430017637314863 8.561662878350287 5.8548814936807725 0.11937914799198149 0.047547410761660046 -0.4033582634869569
P 6.922079621846728 4.2894500618749065 1.7371605429413206 -0.392267295780118 -2.2451217332172044 -1.209501434455904
Ni 5.247343242835477 2.9091222149184244 0.5914067227097197 0.6699616067076463 -0.12093286563234658 -0.2890693855336892
Ni 1.3030995585129421 1.1283111756349267 6.979977764701289 0.39471344332776537 0.1689091364013091 0.18245242230338254
Ni 6.902381205450526 0.5899200668466532 9.27000598803965 -0.5667395280915014 -0.1321413327536563 -0.5441084209555468
Ni 2.723005206717467 1.8228138178370898 9.191526302725373 0.6390464051860284 -1.8864744394843769 0.2800489272026338
Ni 6.4708438261360195 2.1250492355982056 2.515203653319679 0.38714642961378487 0.2114063863335714 0.941888676134094
Ni 3.9367787355274646 6.667547488991804 10.385262099284848 1.1419295009432011 1.3628296856998205 -0.2777277352686249
Ni 8.198070105705089 7.330253973538361 0.2612994482535093 -0.2638774596490939 -0.7229659268188194 -0.03020917659352862
Ni 7.646885431945484 3.830061637237704 8.202702898169424 0.02999166126608383 0.14799269796361608 -0.27865384662732007
Ni 3.07083562687659 8.146457902157115 12.393102590377675 1.542394502042763 1.0329990590883693 -0.17923725780019456
Ni 0.06096012912395699 4.759551819085881 10.25641798792422 -0.24177291444057072 -0.5103354382701598 -0.17713178142141753
Ni 8.557618233366776 2.609040321779401 5.937943300291805 -0.4710371548911694 -1.1458185515849622 -0.14289857127016037
Ni 3.7476576509629154 2.4720200555930485 11.449161172504521 -0.01567755863625687 0.5744356111841784 0.1381057778672073
Ni 1.1190998812429496 3.4149471452723517 12.63210401036974 -0.1893229241709707 0.090583821026844 -0.2737479246852705
Ni 3.0719666797243277 8.462636939425144 8.13867173435329 0.887848972779871 -0.31143695459561205 -0.7656724645484104
Ni 5.743169666015401 7.870562443114119 3.523004314976112 -1.0962091160879508 0.5098307307195995 0.8207544931242189
Ni 3.0344881125616867 8.434858281484702 3.6080124373275324 1.2295033314991277 -0.4252092979237774 0.7129442809167592
Ni 3.5660377088845636 4.270394083496219 9.347200797318896 0.17904776749720774 0.8598568584423191 -0.3033222959082776
Ni 7.132346870452584 5.957173913230183 11.381686178977592 0.1503552846585217 0.2090569122647883 -0.7724830597123407
Ni 0.6024394646076938 0.0734822414118322 0.4688413119174562 0.2248270306148515 0.007087760084716825 -0.16934648104904382
Ni 4.796478432458826 0.45477825322982296 1.596424994360718 -1.2908434251695058 -0.6004988839301335 1.7299590487617305
Ni 6.049033501312059 5.754805937712929 0.2957875116867316 0.02326771227868896 0.2476555984735928 1.1296776801590416
Ni 7.927522264526197 8.776038110899128 11.497300591388798 0.027633959667184665 0.5039411047080418 -0.7148420121601045
Ni -0.06637199078981303 4.907810226367358 5.735161811853417 1.347334675388015 0.1886580368934622 0.18232129604215697
Ni 7.846629364855987 8.813534774907332 2.5632896865095445 0.5209067860281029 -0.7300986812088587 -0.7565471052083745
P 8.482326307398564 1.4545158653453025 3.573672768027933 0.4643728554971164 2.0627811539013376 0.4346755855429998
P 1.8134487002578208 3.2517678888235175 1.5759773685581742 -0.44519653967898165 -0.9347451231107773 0.10864993449993547
P 4.628983078343024 1.1458922611001636 8.096147766647459 -0.10098136221108416 -1.0326169931586024 -0.4700753051985324
P 8.558414494571585 1.6399361449920538 12.450101320007715 0.13451446097152317 0.06526385420481663 0.16183603160461163
P 6.201680393642759 7.829247344691951 1.368891545402435 1.0862332358221616 -0.8369781540719328 -0.5744515520237783
P 1.629014698694297 3.172630383172996 5.949927936266435 0.5496103246103825 0.5810963110338057 0.2932160607122111
P 6.802287552637118 4.11361206195419 6.037122157561963 0.4499476812107219 -0.5588637248878504 -0.1061114843487979
P 2.555573191561138 8.728416261797973 10.208702940068411 -1.1127377098705933 -0.3998888168811177 0.7619312523384233
