# total energy = -340854.75479901297 ev
CRYSTAL
PRIMVEC
9.38895078059130 0.00000000000000 0.00000000000000

0.00000000000000 9.38895078059130 0.00000000000000

0.00000000000000 0.00000000000000 13.74167851707994

PRIMCOORD
 96 1
Ni 4.653042040089645 4.640179177272576 3.2940589888790854 -1.2596731702142887 0.5366396233823274 -0.07797718800642699
Ni 5.413631568518805 4.371110620621798 8.102230910122968 1.626588103272547 -2.088983009107686 -2.1442622412959653
Ni 5.541781360190466 3.2608671694404703 13.03613966264144 2.2777539174299286 0.07180474064712794 0.11734746227393338
Ni 1.4364531633829682 0.18959014786773298 7.789814505778668 0.18040093909099253 -0.7043812218380966 2.5483566116179985
Ni 1.110957011454391 6.4802821203865175 8.632618383301015 0.4971011989680729 0.5210942194485606 1.5119636963567318
Ni 1.886165136530395 3.601122752280312 5.568416875172761 0.4473722071740618 -0.9123343595157449 -1.0680959027915025
Ni 0.05586519711521366 2.160951564316644 6.969972246727433 0.728569646158842 0.7003816137604002 0.6583181089314468
Ni 7.338347737696561 9.279334958890363 3.193717392164793 0.8102019144193531 1.8280312077458194 1.0481611115407885
Ni 6.645076987660384 4.495185607576227 10.569110174774513 3.2992010100146407 -1.397769434999799 -0.9793059404402877
Ni 6.311252836229077 3.286423893957304 5.754973452984876 -0.30519945832633244 -0.4093309361306241 0.9412271312906951
Ni 4.665660790181718 7.217324159804576 3.4381268080106433 -0.1762033560698772 0.5248475158434058 -0.45451961685212044
Ni 7.799345229899549 8.268210663008158 7.213158282263018 1.7406846627093506 0.5083788287644212 0.8186492738557579
Ni 4.538994452761952 1.5546976117903903 4.581654090350008 1.5530383549098543 1.1802391951566769 0.11233021156500009
Ni 0.36870222646258344 6.788277267723111 2.435354922903669 -0.17256010289033508 -1.3239584625559198 -0.3538928097669776
Ni 3.7165786822522087 4.579554720915047 12.915295413712817 -0.7834799250434765 0.5186398443707971 -0.14655262308297987
Ni 1.3022850541450726 4.235121054897397 7.761258950324774 -0.8114967219713766 -1.5377392626589388 0.9192979353177716
Ni 1.0980002591277083 2.0029636864897666 11.79694272558616 -0.6457531277822428 -1.017392462899364 0.20982258678621926
Ni 3.4372198353477756 -0.0729821936128769 6.4282607597948855 0.7236475262668763 0.4882743447050623 1.7786948234045366
Ni 9.055643202235858 4.109299723064154 5.889504914624976 0.14638498715686402 0.19165594317952153 1.3353281378454422
Ni 6.481925186804757 7.326573993191011 11.26509808721891 -0.35696065005902394 0.2229208147310741 -2.3563815945361615
Ni 6.211692400234769 6.640729903365272 8.183897883375106 1.675792847131972 0.3416430458653471 -1.121664580046578
Ni 3.0650793750431413 0.2997572817630932 3.636941600197917 -0.9456365732123003 0.747854462530383 0.2340182101958163
Ni 2.9847099548138627 3.1437963399032194 3.378913510982607 -1.5268516692121576 -1.350613603249603 -0.004081369158225229
Ni 3.8408226703239428 6.914474157594809 12.416788123524084 1.299299269246343 0.8255624560358235 2.3118446884660506
P 0.8010042678423525 5.612264215057427 0.5612649162046843 -1.9961520439178786 0.9268220116089586 0.17592799092130346
P 0.5929770369717884 2.0952476854890163 3.734506884112934 1.157137319031891 0.5378027904524931 0.2797005427242796
P 3.9061979358679224 7.198461757323195 1.1750553796676249 0.8508453989723284 -1.6581879895660154 -0.27137762468088106
P 5.281313082620297 5.228781901991464 11.685415132696498 -2.0893342217995174 2.1480196514558685 2.350346186975359
P 2.6203341569542755 2.2289651250807667 7.1017273955682585 0.6066443347062391 -0.24436124399303719 0.8005829032723503
P 3.4648045732722643 8.542593365903068 8.65812346858756 -0.4902687494272718 0.23962784307310991 -0.35179247559452315
P 5.451835209980596 1.071316860495511 10.404058989139402 -2.072447216236192 -1.2735273024885616 0.40875603746376055
P 4.357797088158583 1.6262977518217543 0.35953767142919574 0.28896936962071523 -0.4477213629833644 -1.6875096213482679
Ni 1.1403538169144227 9.362154895320558 10.446369357751696 -0.8450539891015317 -1.5052096654623497 0.04280064010529403
Ni 2.3363559461768517 5.5600804256141645 3.72697694544192 0.07411667660975622 0.18803608703874714 0.6611131551780808
Ni 8.943370126639865 6.09346672972927 7.0666174134482365 -0.4428606924569534 0.3285687291798922 -0.522496756223042
Ni 6.561487157251357 3.987816086575062 2.0788132657262444 4.196414454728547 -2.431837301672315 1.4674761554673177
Ni 2.5756896951329886 7.774642899920199 5.072740353698879 -0.4671912987825179 0.015502980731605559 -1.0183139462723687
Ni 1.75771489842797 7.7404295626169874 0.6338593461428569 0.6371545874799543 -0.12594317436274438 -4.338289726940515
Ni 1.6725852800612802 1.0792129682540184 1.6126546671797957 1.4650760306662574 1.884685465904754 -0.42919579337535113
Ni 7.999142106357381 6.307788313324332 9.569100519040372 1.05347069667916 -2.078427345079027 0.13654794646178417
Ni 6.846958211231639 1.1678540542802587 0.35186408180847273 -0.3691700476410223 0.053011004979392574 0.21242042942038256
Ni 4.010875350136173 9.258913990549395 1.4533063303586173 0.42140586501728716 0.25657784066388717 0.5419530651754408
Ni 3.7861508088759184 3.682722125085529 9.501175214415285 -0.1484894350943765 -3.580980546755136 1.792369749788468
Ni 4.952540186806204 1.8015894662704255 7.761368801051022 -1.5283490796932904 1.0766664180693328 0.6442042952378841
Ni 9.021720922412449 6.112592022837569 4.348320819953278 0.03048505596273459 0.7386224024091538 2.064871203661147
Ni 2.3536785607005686 6.36061994038393 10.791862097437786 0.3629217527384653 -0.8026202454173532 -1.6841455899720414
Ni 6.5994560749391145 2.441681198061436 9.502604212751606 0.2414782660182873 1.7983048843259803 -2.323438306840921
Ni 4.281070580902314 6.382749697799865 7.085718295284037 -0.8584394092695021 -0.18820449429581135 -0.38055720643204133
Ni 8.219585285979253 1.6973063879425523 5.066158699074962 -0.5676090751806482 0.03870281588683657 -1.071763838561393
Ni 5.79162134527237 5.610358258012271 4.824882376164919 1.1062035082965014 0.7873859449661019 2.651102521928673
Ni 4.793021909972625 5.730621330876385 9.62428689500108 -1.3722604920954173 2.9203119353136415 2.6436195832880665
Ni 2.985592516204231 0.3453134107227288 12.893212601051689 -2.1232337027604404 -0.9334109776803861 -0.09316238038729761
Ni 9.274114702155844 7.442903095602315 12.045364979072897 -2.102218533961354 -0.7446364698137176 -1.1752314575294407
Ni 2.3151744728080135 7.827897029773057 2.6323285418074187 1.7714381418421234 -0.07193535268772126 3.3224540670053107
Ni 7.110017839267144 7.73177294983061 5.171928048340019 -0.2564405437550745 -0.336856165999665 -1.69074509756643
Ni 9.248886590922659 2.9775180183774577 0.20803098645094859 1.7447927713404532 -0.5785560611104552 0.021754103847639955
P 0.35954142700958025 5.539650068322237 10.772871066328234 0.7347837453893539 0.020852160858660863 -2.449966150062542
P 6.98116387627338 8.556310623257621 12.909194473378124 2.0963253084053703 0.007982246874528188 1.5040297862216354
P 7.675993192169144 5.953946918443397 2.263598148491951 -0.020129166649707268 -0.8672819472617967 0.5919623072140322
P 6.326519270492255 1.8890099886716887 2.8070400190866773 0.11577343291859415 -0.14073755906309957 0.649708512885565
P 1.856007826042493 7.906698495191788 12.119047588427492 1.6853581222229037 2.132915963045211 0.5254224145102693
P 0.06267312545729892 7.842740961242973 5.888254306356924 0.712799784919095 -0.5140411692565212 -0.09998865928051166
P 7.665186509612615 2.8694605817631156 12.654176481841027 -0.9949115081880285 -1.0454503974778446 -1.3284049283630477
P 1.9124354213202925 3.809810965298557 13.794309658407856 -1.2120779369338288 -3.3086264170935986 -2.092775900491215
Ni 7.631114006573823 0.8504793449332615 10.739822897839328 0.5891335795159854 -1.1302872887185824 2.337526666613187
Ni 6.236591898184307 8.934591457490988 8.587999271647321 -1.6880948044277766 1.3035762993551419 2.3884936445793574
Ni 0.14453069441395347 0.2664997396677486 13.113176005279435 0.1503200605452121 0.7927217553567186 -0.13577455863086937
Ni 8.818806914235443 4.691621239589891 12.35353569979247 -0.2613611209851434 0.23880431873054997 1.1894211187662613
Ni 8.523740352372648 1.862861760244289 2.0279007402431506 -0.047558466505253576 -0.6121572941046683 1.7358216781900944
Ni 8.96536843874234 3.5827955200037294 9.849719363163821 0.46420007736467794 -0.0939347397769479 0.041589907626644496
Ni 2.0729770938086607 5.984132395784183 6.35401481338261 -1.0636604927279683 -0.6742417221402388 -0.26568057429610376
Ni 1.9510146208205383 3.8771109657896154 11.225027922306001 -0.2066357044178054 1.990570950285675 -0.48968253790649857
Ni 8.883093061467905 7.875226731569294 0.6371642568812571 -4.08681295494862 -1.502503579385096 -1.5608632502709119
Ni 5.648449232062525 0.2417936541080146 6.299034055447957 1.0714833312064966 -1.3366445426640206 -1.9161861076161968
Ni 4.421820344764126 8.30105321347101 10.642655705445073 -0.49676875532931863 0.7982329149829349 -1.88265352307639
Ni 4.5821179045274985 3.33250486527568 1.4747572666200464 -1.8456211529134408 -0.5761135131072336 -0.09201566837736411
Ni 8.459078647101732 0.986675467578812 8.547571387702783 0.4192286548603103 -1.652177007485245 2.072417648549837
Ni 1.566415022590173 0.9069463738050986 5.738539033222104 -0.4245225562693979 1.4211495044866362 -3.336402301655286
Ni 7.152155451181746 6.363380291966571 13.099612726720647 -0.03633842941971806 -1.1174292018089917 1.9497963394714741
Ni 0.3545849997970761 4.175379159930237 2.408173909870519 -0.000395178555889642 0.05650024907957366 0.2758089209793573
Ni 2.8066860556354345 5.084915006410479 1.2915422164550796 1.3803543248471453 2.13207058432578 2.8227578536165514
Ni 0.4171313744163966 9.03776663960542 4.1752439590363934 -0.48386130323903115 -0.25028660833853666 -1.1131786540627537
Ni 3.658376575242712 2.4212696186714298 11.954202020818434 0.20446055114335754 -1.0390033563009202 -0.4637215950663627
Ni 5.2403866453797106 0.2646416662724946 12.430901594609207 0.549097389529706 0.7726810346557597 0.07607662854960445
Ni 3.254492071737704 1.1524655636545826 9.908519546349558 -0.2361666239973868 -0.14265483069047047 -0.5240990677131554
Ni 5.593955760682768 5.5805577276609 1.1893481797161098 -2.2074573858972113 3.044069929099609 -1.7082594523011094
Ni 7.81986947670109 4.218652834911165 4.223724746220493 -1.8053270812800846 -0.6340803194300048 -3.174136124491792
Ni 6.627547816215516 7.749489900294704 1.9036483021155515 -1.0124528595059015 -0.9428795792924535 -1.4887867440196358
P 8.404528842016207 8.260220665740038 9.729397139908647 0.21174525773022884 2.5805429665425557 -0.23911593643369788
P 4.867354234733746 7.826113129090397 5.589578631744579 0.108527035768826 -1.3777474833519177 -1.4916111008423085
P 0.32363995632351555 9.080645978645972 1.9922959604074646 -1.4332984811443443 -0.1254340959368098 1.0939884542875482
P 7.233313543291779 4.839769496809258 7.1110027402229905 -0.4391122811581147 -0.043631363536705506 -0.5472086571474254
P 0.9504528947698685 1.8874044780572952 9.410301435850434 0.494340091283168 0.8575783468207876 0.2812511750408511
P 2.967687786720909 5.240565035447976 8.596725362670814 -1.1433819171190116 2.7353154064321665 -1.0805945494791453
P 7.054538528036441 1.4115161096295847 7.100064612353001 1.2662636789476127 2.1290233128590237 -0.05107702118147332
P 3.7502568493506225 4.666712352689391 5.437417536884325 0.5904949786398862 0.71105811963764 -1.0224966168951486
