# total energy = -340866.8460055937 ev
CRYSTAL
PRIMVEC
9.28128422344367 0.00000000000000 0.00000000000000

0.00000000000000 9.28128422344367 0.00000000000000

0.00000000000000 0.00000000000000 13.58409762759396

PRIMCOORD
 96 1
Ni 4.481254527913887 0.6828621198942667 4.843926270444755 -1.0182273000958333 -0.17519934028539502 -1.3605372901212183
Ni 3.9334267376077996 0.5628374828513308 12.5331638130371 0.7559513806059045 -0.6298246294774443 -1.3272718431998691
Ni 1.4854602288979066 6.135801189404699 4.678987643688152 0.2755047594753771 -0.7351251878891726 0.8641819681802343
Ni 6.480563766257049 6.087018760504255 2.3820666076593158 -1.5702122955859796 0.16909502715987007 0.203615686644559
Ni 8.106078571278951 1.790795911159485 12.131332476895738 -0.10776470368150472 0.48900016712749333 -0.05464751214155105
Ni 7.919023572789686 1.6338401168034284 1.1394567443697603 -0.11827614473578986 0.4929118434770737 0.4000726507571497
Ni 6.460878162813776 3.797613708288884 10.830450999905924 1.9069980133590254 -0.6252768622057618 -0.7543873785528943
Ni 2.58249872083165 8.143742021902622 8.167003704085495 -1.2149436885173979 -1.1214601773452557 0.260866440736912
Ni 9.295298776271908 7.6371416952905555 9.701531297303795 0.0780016134864592 0.6013483764146225 0.033666281904193636
Ni 1.8099339188445531 4.303443688325848 6.947695432500176 0.8092025266205612 -0.9588592425501615 -0.20887462105065316
Ni 4.848329311592086 7.986192225368172 8.046838919653595 1.662418996928227 1.1213493627990043 0.5874718755428463
Ni 0.7738103503049125 1.4720023670437123 10.330026439692327 -0.3416312187908052 -0.358094506553151 -1.1269029456273818
Ni 1.7133157520154747 1.3297295640347837 3.871535423132965 0.0521442861037231 0.1400796137641265 -1.962005994163789
Ni 9.20026770901322 3.8002681555235736 11.367240559106358 -1.0711354609487747 -1.0844380915949516 0.1197758692097679
Ni 7.928397669667435 5.713363546443555 12.346314859053464 -0.19306619326348684 -1.880468085389297 1.353253097754979
Ni 2.0125350680964225 1.8772696345357123 12.320341185674868 -0.8859700105896033 -0.08641169192702537 -0.7793713021917416
Ni 4.720925125611034 3.403019917439866 3.749374234504625 0.11336713746994669 -0.46314335396538947 -1.0566789192038124
Ni 1.4536625497858584 0.8130655411409923 7.863154883526704 -1.809839367328141 -0.23159006037029792 -1.2019362205141364
Ni 4.094902517290057 3.8690331889564886 9.328131318554124 0.1913564096612317 -0.6414416448910825 -1.4803044175802378
Ni 6.614743289585387 6.026217068775407 6.826077198988022 -1.367900929575141 1.1972514134439576 1.7498208206826638
Ni 8.53179250750529 2.1220913448736027 3.587696122830352 0.8539782881743551 0.43740378310744027 0.39609592549758876
Ni 0.3897851575892539 7.836949178047175 3.3441199608102776 0.1530282035049945 0.7075778743985234 0.1807362109432242
Ni 2.3972164475935234 8.463742132943253 13.402137952962434 -0.8006196700475567 0.19622762171060398 0.47863887849782727
Ni 8.530038344822225 6.606603603484608 1.6185584826358896 -0.24218351961542803 0.8553006065302045 -1.1349080753200453
P 8.157385509437564 2.4968324691666743 9.585441924692706 -1.1073083113249058 -0.23358060843776546 1.4556102572676675
P 7.340613951580447 7.623396113631203 3.6520033555401152 -0.3448152729457416 -1.2430337618853948 1.1383273854142397
P 5.514901849872355 4.27751178072542 7.343169089075936 -2.5584697887926002 1.1085352417534715 -0.8696113667259217
P 7.7230214164883915 3.496139040186854 5.11517365269386 0.5591087510191209 1.4627751504472226 -0.4018662523224627
P 2.28491291074128 1.561576039288423 5.8267223652908475 -0.03172407057615827 1.1379579178899626 0.9615601864210923
P 8.404184133275415 7.575866658075803 13.02863031131793 -0.6379274610902368 0.368247792937069 0.2797761331572214
P 2.9223236545761155 6.139133170374117 10.042750279910674 1.350683280145274 -0.25238642829035884 -1.1353474768503093
P 4.835994485106414 7.886010045468741 0.1436176610659443 -0.575224682744377 1.1666789399737392 -0.9380852432276037
Ni 6.232966951991983 2.7330504292019175 8.520339403003168 -1.5387625617171306 -3.6352125686258234 -0.006107141339002385
Ni 0.10199017402991158 8.71147816646888 0.9453906639186618 1.20670176022358 1.4885967394960171 0.6327243196227426
Ni 3.8525496285061096 0.871161738572944 7.184465628935643 0.2094011829780845 0.1029531412254743 1.0740310373290147
Ni 3.6951297699481844 6.106973521184612 7.676046981718427 -0.2726310374720079 -1.9114377942979337 -0.811921468213621
Ni 1.2973378827443431 5.919816428570935 8.5825277185672 -0.16505145321811573 0.49011319768601397 -0.3395080018002153
Ni 4.532487215800199 4.333858456116327 11.797869863358892 -2.515632896132732 1.4935409708751697 -0.8759223965456141
Ni 4.112369893848398 5.281189836527204 5.018522073242249 -1.4549944780605395 0.22371400005633083 2.4102924856220036
Ni 6.893664437476594 8.558550449385043 0.7617010590213489 0.2936351505275007 -0.8887252047372372 0.6911523818526484
Ni 6.16918596808714 1.5767695012576068 2.870401367285826 -0.8992528437414384 -1.1564865728217697 0.4296331380230859
Ni 4.083319474811414 5.774536489533896 2.872126757988374 0.6160111206331197 0.044797101710032525 -0.9424239798122738
Ni 1.165729275094359 2.965463062781837 2.1371994190296424 -0.7642745557596192 -1.2412057075377205 -0.8564141513093573
Ni 7.308649209355726 4.585464785085539 8.573127634094146 1.7913590491357665 2.118184827482623 1.9304968678119143
Ni 2.9945227631028595 5.405624011616297 0.8645562487235438 -0.06885337132828788 -1.006565804597505 -0.30990303444958883
Ni 7.660159279703247 0.4639676765147849 9.942105892066182 1.6746494775561482 -1.2318180956752331 1.5240388823537108
Ni 7.954487359096498 1.1512504719960535 7.75695471905744 2.104943903312317 0.41197968660738077 -0.5079617958316608
Ni 1.0193541445409107 5.167651888897989 2.3605358849494116 0.21198051366948656 1.9943957233484042 -0.20917235479673008
Ni 6.4264538803191495 5.288419956792319 4.770231947059591 0.24414192889337952 -1.7612820272447278 -0.9395697981929302
Ni 2.2409381869721954 3.4158095268433697 10.545334594919767 0.041365964541296506 0.7264983654521101 0.7092097535749915
Ni 6.408930816056585 1.838501711111595 5.539187257684552 0.20617007763529654 0.8634522891030613 0.22540707148803762
Ni 1.144419446944545 5.625247035792712 11.089309724221941 -0.3322214954411311 0.8883624220811798 -0.04794721730324
Ni 3.6978306236030605 2.9414709435452213 13.416550858944074 1.035863525120358 -0.5993331457568066 2.581540297458819
Ni 6.4692777248676 0.08256537466808846 12.129905943539192 -0.35793535526746745 -1.2329786916422378 -0.2504385605353687
Ni 0.41097896968860076 3.67643726389691 8.988923590198144 0.9901333700730948 0.6806499396594279 -1.5087261632560403
Ni 0.8869454902069047 3.676585764441508 4.6058919631233985 0.585054010129973 0.9225742920761982 -0.667392046208257
P 6.017204941975116 0.6034542380556933 7.536049949555462 -1.9674215087524052 -0.01941825662561172 -0.16666019246613234
P 3.199008013014316 7.213794486493748 5.653130797426199 0.38310362700297895 -0.33861480056198456 1.0485382923745492
P 2.615178121927249 4.0822799709992275 3.292758263075845 0.8672870894681193 0.34599000998013313 1.0489054459059808
P 8.47754340230683 4.611331723697703 0.894784462704872 -0.13533052911491533 -1.259324528625618 0.10624749570602993
P 0.08027846628127913 8.059737120080335 7.319532443017953 0.8986679177722458 0.451787305522622 0.6317305882509057
P 5.160737332290145 3.8118697605702927 1.5621579757975665 -0.408279097827342 0.599245985359639 0.8319117952926188
P 5.629562832870092 8.02301107914444 10.208788738825707 0.9193830388324102 0.6141766385275422 -0.6873564051453259
P 8.105141161591176 0.21164854493150276 2.9830817242699865 0.30468060970838495 -0.2071185575914949 -1.3798586161576494
Ni 2.897087843278492 7.882037655900745 3.522492318082578 0.7065363205078864 0.5924163640323152 -0.02789801196184873
Ni 6.2155923882740165 3.811832635434143 13.294729365311504 2.426127909992364 -0.9504041698042729 0.42053426104561126
Ni 5.297070113515153 5.76749199494953 9.653199010679163 -0.12008363025817384 0.7293417484381761 -1.5558539699817784
Ni 5.339893958063604 7.320900504285061 4.595051423367743 -1.7361332958932425 -0.10416053127001415 -0.7895742108666723
Ni 5.514372816682225 1.1594551270850932 0.539737295010707 -0.25333927912193144 0.9770461978718336 0.554885971187025
Ni 8.832227671795135 0.3984501643665477 5.321325821218431 -1.0809208224703126 -1.3891585534023367 -0.14313511276099866
Ni 9.20949330534637 2.3740039562160478 6.2459134150957185 0.9475918971664583 0.9842920808009693 0.6987060258301903
Ni 7.338191536446692 8.128390778104801 8.19448465799176 -0.34879482641877996 -1.0836186810174497 0.19823822438272956
Ni 2.979904740743993 6.6276071492611885 12.3425243826526 1.5692802706900133 -1.0627012141384924 -1.7729484078390627
Ni 0.14181894821950092 9.011337891148406 11.899111965895392 -0.4812228371749196 0.6628303949795036 0.2408403753239723
Ni 4.933763531156128 8.36607518101795 2.334250360427161 1.003626005242891 -0.6433838562191178 -0.4915555865594954
Ni 6.481547582365011 8.783538055735061 5.739362279289051 1.0867765099201414 -0.3211189577700663 0.8831189142940533
Ni 5.505221470621374 0.9625990926523597 10.133641894488692 -0.9468794444804659 0.40894192822232145 -0.23798850769747398
Ni 7.160445665846914 3.7371925492055698 2.7030041283877217 -0.3559234670437612 0.9232322373751712 -0.9258791880797151
Ni 2.3669780241997542 1.1809227370635427 1.1173542945631545 0.31073941430795515 0.09913042504527443 -0.06775988115379299
Ni 0.9260577492688087 5.984005788973423 0.007811128645855196 -0.9473098471496653 0.034674925674366086 -0.7052641386636821
Ni 1.6337937103832414 8.848636981973215 5.307415960831615 0.8190537083830282 -2.0562518374232526 2.0292351996250924
Ni 8.776122309789198 4.777271801001939 6.867861539724286 0.3855690578243359 0.16889679510613492 -1.3765637474564616
Ni 3.316973133129358 0.8247710965689301 9.701762401276325 -1.4166536734988118 -0.3908650161159527 0.4048371620253286
Ni 8.470907284220107 5.591323942636105 3.7302334424343457 0.27674403119911695 -0.6557038112370513 0.9196378351556936
Ni 5.723173863671061 6.464590676428726 11.710238763863204 0.46019275597749776 1.351957261761691 1.1416248252185888
Ni 3.9012949322704054 3.1297881966635694 5.997799633309771 0.3996229648142408 -0.32817355062400255 0.7248148071021001
Ni 5.260910230905537 5.815439108286611 0.3154959038972932 -0.3743096828604328 0.09722189516865191 0.805678829738019
Ni 8.405669138721395 6.92886834783036 5.750229734768414 0.881860873517236 1.271466563304791 -0.9112377840174566
P 0.49153216197738625 1.5547357329528773 0.08095321563079633 -1.2109165696358757 -0.21035454803028933 0.5079219437326608
P 7.9550720799908525 5.917542513981778 10.272471341119754 0.3244359379584412 0.02035722350011333 -1.2099716892241033
P 2.2452725466176497 4.224060865954175 12.563877438173582 -0.601333464016287 1.5919810547216389 0.38388010015768725
P 5.305859489498547 2.2223106499091827 12.012729732567326 0.7733402655063133 -0.6509979211209498 -0.18804997099581808
P 2.3601655617163204 2.5003964822370266 8.6234024934678 0.5037621559280163 1.412839184848728 -0.3376390669122766
P 2.1146013486554405 8.823159857290618 11.176791395044626 0.9784009121275151 0.3843069032824607 -0.7662681891508804
P 3.762855299568913 0.7922448366599478 2.6788245272135516 0.36640971128706573 0.606942068452316 1.1320693203196697
P 1.9750386805854254 7.440146441597262 1.6303225101532632 -0.814646580454268 -1.373879515756079 0.4222543290605115
