# total energy = -340874.7697339046 ev
CRYSTAL
PRIMVEC
9.19503579860831 0.00000000000000 0.00000000000000
0.00000000000000 9.19503579860831 0.00000000000000
0.00000000000000 0.00000000000000 13.45786433972470
PRIMCOORD
 96 1
Ni 0.17216692633863742 5.605247702743641 2.0578287294500135 0.2904937766850416 0.08340710077274667 -1.0030595912164597
Ni 6.004744412757836 3.175542311097249 4.243439029082669 0.9639924500116687 0.6435484068214401 -1.2172006028723745
Ni 6.540015017864203 5.804200687174721 5.079576714762849 -0.8934935726601579 -1.0088972809441592 -1.8711043847862099
Ni 4.757695299918167 0.8837330287504832 3.990619687328756 -1.7480249051245056 0.37073456391466475 0.5198901718381305
Ni 1.3650949793704363 8.723578502581004 8.13570953555565 0.9147704797610632 -0.5453348371634802 0.06834275024045648
Ni 5.641926699596051 3.5267099142033813 12.947111199177892 -0.22948869775657896 1.4359474887314172 -1.7511156282346874
Ni 8.114683247738553 8.294988700052139 2.7538285561608205 0.006115625979434628 1.063042656638311 -0.20700568616271442
Ni -0.08442329949879915 5.888859379583879 11.325384616309995 0.02404829919845536 -1.037681295055387 0.3870960359918237
Ni 6.885729964882724 0.9697912055720095 4.510672508581842 0.16264927153452632 -2.1270294223574466 0.30688995865487795
Ni 4.4989469992345885 6.881757709520418 11.203779351513607 -3.1021310949083993 -1.0096562705973708 -0.8854467910962814
Ni 5.7403503602398676 8.152373698502661 3.1878985998839795 0.7719359289596189 -1.0775457353504927 -0.03959833111791245
Ni 4.7286573776168614 2.4921672682115505 5.979207959998119 0.4377855919268912 -1.4331408725205577 2.9106481869716325
Ni 8.848787301813708 8.147721010508848 11.731448420721781 -0.3349304097318619 -0.4825955491527301 1.3003418515782446
Ni 4.955682805615353 8.56466989801762 12.834751542637983 -0.9211735550739296 -0.15314750269167818 0.42874662165307453
Ni 7.002791962608476 0.6589263628328356 12.40198719396447 0.11068881930683518 0.644344163249858 -0.8466483301718452
Ni 3.349273312984795 8.7477982262484 9.850927561992501 -0.4629181253284608 -0.41264585943647 -0.1324156694609655
Ni 7.076766023695874 4.492436914057475 11.30717660689231 -0.9925931444674969 1.7585754269468425 -2.655611722652936
Ni 8.84521962801608 7.374427714873159 9.229080180058974 -0.5154534762230154 -0.2736975310633093 0.021588781914369273
Ni 3.1832109707550353 4.392284586728209 6.878220379340141 1.7545228541440232 -0.5674398965926356 0.6275553738272934
Ni 9.412774002976748 3.287997596006992 10.414690823791412 -1.215313927372623 0.49585138572137183 -0.10697357523877707
Ni 8.926043990596346 0.8447423999580652 10.487188162167731 -0.33826873007647545 0.02867962732287964 -1.137940434388466
Ni 2.757287728538829 6.831672350820224 6.533348617082554 0.5506693620025161 -0.8106667698709137 0.18996158619623413
Ni 2.125239374154045 4.8357243716879195 10.893616089987727 0.9769035016463821 0.3612700760676552 0.4761245967164058
Ni 4.8456917902359296 7.833214014184003 5.651845384455588 1.0396656724752675 1.1320803760632634 0.2735499497418515
P 8.602728150204163 5.113846612298304 9.321603386383364 -0.8841653532806967 -0.40884808295693464 -0.9308288187755066
P 4.406251845745208 4.552875882799237 11.260100783331197 0.5292003934954628 1.1050249146073678 1.0746758700018653
P 6.561558986183379 3.910207262341619 6.256211164780742 0.4811531602792487 0.7661038956588742 0.6966627701479163
P 7.84243663485158 2.671626777253534 11.823379466756052 0.8365554647122174 -1.9062207688733688 1.2963548419060382
P 8.523329018135838 2.0667589479867545 3.576252765805482 0.6697191516795369 -0.6535800800258292 -0.8663051851708241
P 2.1625252433534734 8.512625996742957 5.508855225455226 -0.6578486254941961 2.056589423268329 -1.416753946522102
P 6.8365916948453025 8.408565779300309 10.197642928880047 0.38293496263559856 0.15869979996847508 0.9175462427339877
P 8.316036136451027 0.4024952111106025 0.8584862196109346 0.17991371504192888 1.1439177350178233 1.0600763749211355
Ni 2.4712117821682718 6.353787962649402 1.6905091268776138 0.23195772812236182 -0.2635239329644171 0.3263025588535348
Ni 7.034735516147024 2.166230842684514 9.889376603190382 -0.6544501413356084 0.8450092519065253 0.936476246869271
Ni 2.6256056242712553 1.747019976427761 5.173755027488202 -0.7181643916651179 -0.7009076614671993 -0.45831045135312043
Ni 1.334080124423538 0.707148807328392 2.816838456845408 0.3274837236458295 0.3670175200743937 -0.8079023197518991
Ni 6.9065475253925905 8.11044433634498 0.5947569681640192 0.24926048106686752 0.5743561640964946 0.1520748384527897
Ni 4.145443857095989 5.434734963302409 13.64654353266358 0.2855199776195341 1.2202031371441244 -1.5715114740133773
Ni 0.28067018496430773 6.99431413982133 5.629101463995715 1.5031962345767467 0.4194019472133809 -0.2737623228629737
Ni 0.3273184393718391 1.184706771736803 12.803071886620032 -0.6925022110123236 0.576592252515865 -0.2358848310909099
Ni 2.4068097530997647 6.11742037852104 8.817632682326284 -1.1236150189047294 1.7352760900992694 1.1100766180986625
Ni 7.980748359758559 1.154289594101363 8.028275659565713 -0.6524994453671408 -1.8239238704456653 -0.5713073499678418
Ni 4.074881154201683 2.436482132854772 10.294243213972141 0.6368954202812966 0.20677094444408906 1.272918208149653
Ni 5.20814170197528 5.8041822971035995 6.943167674017409 -0.6081512582690687 -0.302033401893525 0.9967012530985996
Ni 7.899638951075906 4.105427062334976 3.0712457812406884 -0.9199993322601704 -0.2431201724970845 -0.7363271786170739
Ni 1.9634895036023454 6.596408170959171 12.713482816143122 -0.583660472216556 -0.4111448494109113 0.39053694335257255
Ni 6.3040979904783265 3.9417830144577315 8.483460263447354 0.7760815756968763 -0.2487143787554104 -0.6793404768193849
Ni 3.3146999792758303 3.2350066060695557 12.621592228265321 -0.49001575287620125 0.12371917012823208 -0.342124613487456
Ni 3.580454897056811 0.24295122958996138 7.045192110586873 0.11316787697494703 0.06653757871091767 0.25906075498674097
Ni 5.071494278504822 1.754017398489602 0.5822057446233979 -1.0700813086526473 -1.7864477278770783 0.5446128713957912
Ni 8.78006360603158 4.805656605403794 5.244556801307092 -0.1705731543672933 -1.2785990605845141 -0.09397433476563172
Ni 8.012958569328374 2.410533742501927 5.688975857554038 0.6468530457146409 1.1338647216571958 0.8358779790292186
Ni 7.318089731991557 7.988398629345224 5.322276000378442 -0.44357083115010054 0.3265982357170827 0.025873011112019954
Ni 5.386415051429907 0.8542804103453813 8.910397718085926 -0.305370436686558 -0.15121043356996539 -0.6619320515349503
Ni 7.748022009712313 4.051369448272475 0.047381098741734615 1.8462492734157432 -0.19568871848799846 1.327091608868263
Ni 5.984386604026015 6.276384153297789 9.452574714402083 2.023697300525998 0.45416557594681134 0.6139640082961039
P 1.5676156375991432 3.766121055102398 5.7951987473606055 -1.309044778668881 -1.8071649058197716 -1.5698523411433996
P 6.054820576422469 3.5360244852265676 1.6624633489133287 0.9146324115213023 0.4064464154939774 0.6057225942229181
P 8.044828562582435 6.374651498337071 3.6627054096525704 1.139798056422495 -0.11380191101452013 0.36305365033063924
P 4.189046715725753 2.8066834595719556 8.248499519759811 0.4650775948736248 -0.1926782137964488 -1.6411991683175027
P 8.580218703151093 6.588877436834798 13.555164188762964 -0.1188279034742018 -0.4665014718043449 -0.7442091524683118
P 4.060582873904492 1.1516506188953861 12.14920739086347 -0.6743265685445612 0.36287444444029765 -0.4940649832449104
P 1.739250171378805 4.053052139780119 1.0857847401655847 0.3635578436605674 1.0605615420876702 0.9845075392458851
P 5.071135672117948 7.14269442866749 1.3296582318223038 -1.9009890881607843 2.218010478822709 -0.35046321526013835
Ni 8.728608187032812 3.3437011214348926 7.793462036447143 0.08199505091656846 1.1128814345373093 0.7172015135312164
Ni 0.8279265189243008 3.786037502127296 12.728474402121606 -0.18022096186970255 -0.3885677354413437 -1.0143395350056532
Ni 9.221793114376965 0.23024736845902918 4.716133739182923 0.5327153486272568 -0.24767796707109604 0.21376125971899315
Ni 0.7511295819197078 1.3646812027701958 6.649153653447132 0.9256038229311414 0.49960031124084286 0.287853253738401
Ni 6.653665657396862 1.3351007733707974 2.274876624361378 1.0069537840645433 0.10600658333981743 -1.02369063720325
Ni 3.905039652356396 9.1194063934064 1.7216242077121255 -0.5467548574394584 -0.4349247254393284 0.09672181560378182
Ni 0.030968879769093554 2.603537538925108 1.4078408606859236 -0.5173229253315864 -0.3554370143256459 0.7989962755115207
Ni 1.8326625376419345 5.258824737986932 4.084838458210577 0.5948416856443562 2.3321844284646676 0.3094456351971961
Ni 3.447991214766561 7.6101884266545 3.7284342823525147 -0.6577537517875447 0.24421700510568908 0.12018518883304462
Ni 7.576957568137426 6.118450222503861 7.149719435836013 1.4532520414481358 -0.4865020832959879 1.3912300912193845
Ni 2.0403048306780605 3.313421869332866 9.052741466086358 1.904569606423191 1.3745217773257683 -1.112199063758304
Ni 3.8585955277383164 3.7074475331883283 1.6569187424701093 -1.0690662371245718 -1.5992562482268136 0.6714749580283791
Ni 2.235414290244686 1.8415357469581983 0.7175750581508905 1.1894558286589385 -0.8442415205025654 0.4840461655563276
Ni 6.613750008027018 5.891038603011812 0.7967673019190967 0.3081747389045725 -2.806089648932251 1.136446880562075
Ni 1.1234034696523174 7.5733898943398 3.3400939089843535 -0.2438997309755864 -0.16803598976773643 0.04201491097920506
Ni 1.0162905004034544 5.190312528022704 7.211464099627421 -1.4550924370909843 1.0236975791817853 1.1003593908108984
Ni 1.2547361625685771 3.168324208181947 3.616666786102727 -0.3264252004743281 -1.1347057295012521 -0.8325887667549855
Ni 3.77457129278286 3.802616151243589 4.347657401136963 -1.074033608432176 0.28134476319592194 -0.8090803992204001
Ni 1.9643538369450695 1.5597079070167739 11.13090501667929 0.2609209481239313 1.9767672116333634 -1.5669125417887855
Ni 2.3239165075182986 8.935698777935285 12.312128708945627 0.14795284586461616 -1.529629746177927 1.2481178612765214
Ni 4.699564285102191 5.602691482857713 2.7120555096076755 0.6403432696205811 -0.3224361339195931 0.7960533908331129
Ni 4.2890151423438 4.890204957386222 9.152545301567866 -1.381845564680691 -1.4951805633611217 0.1509155280373659
Ni 6.427844779056848 6.8011632228291745 12.070492369440874 2.831476721546788 0.2631639785218371 -0.5344441583929054
Ni 6.367902342235374 8.036893246893383 8.022717260569152 0.531656054124807 1.1947307039046329 -1.2091777325678983
P 4.218213368524911 7.268960656989696 8.317565270864803 -0.13851432615953563 0.6895091898222705 0.37977173441626855
P 3.249185350904455 1.8937359638373976 2.9020001176997474 -0.5410794043212359 0.5159376149482856 -0.3760102104913073
P 0.9925029434074195 1.5858677831875194 8.829839092033371 -1.0355341668053972 -1.0457830982269152 0.48087753802035893
P 1.5290608534923116 7.434701172974824 10.693887964058865 0.6403720659759874 -0.0316227691116036 -0.6243049852107958
P 1.8554662258329537 8.40363724023967 1.0919307019344868 0.25365501059013734 0.157591911616277 0.1533094821908392
P 6.04928516501481 0.5124641584046794 6.5001885603393 -0.7464958916199596 0.31744999355891135 0.36100319555951377
P 4.264133376116019 5.904233479041696 4.833674798261396 -0.6754622248109012 -0.8764193907866906 0.4902286402179557
P 8.673768994947636 8.343327001995762 7.071300494558478 -0.5899388490261 0.22527208857207012 0.6720064050518167
