# total energy = -381171.7387547278 ev
CRYSTAL
PRIMVEC
9.23611377151751 0.00000000000000 0.00000000000000
0.00000000000000 9.23611377151751 0.00000000000000
0.00000000000000 0.00000000000000 13.51798610529968
PRIMCOORD
 96 1
Ni 2.2496309219864354 0.9844496265196646 11.603406013196306 -0.7068541088586213 0.2400803572294962 -0.9788580542695915
Ni 7.173255235491919 0.18706639501631514 4.460286368737145 0.02259845412580624 -0.3500513245337003 -0.7870378175980639
Ni 0.42096635060937293 2.1861234057607306 7.246951108487341 -0.241597565204971 -0.3937971021610831 0.21621074970075022
Ni 4.05273270211017 0.2939226862062033 7.861141570964058 -0.5273638545073562 -0.35495776069638224 -0.08925147536866564
Ni -0.11557425869504273 9.069835720054332 8.732375842169139 -0.5413588832348676 -0.46117183206131546 0.051784074550826946
Ni 6.837467094144953 1.346283607854484 2.5290796947724377 0.13747380071016324 -0.5725178253361752 -1.3056920601465642
Ni 1.5131709421596415 5.65673158414235 5.725759525389595 -1.3124921137875332 -1.2116606468907518 1.104961151248968
Ni 4.103568270653841 5.250712035962887 -0.025954402464492946 -1.683468875619991 -0.09222109951995086 -0.17332757718397893
Ni 1.784250872529688 3.120411700020098 5.451249302476467 -1.541292784338152 0.9662496214769616 -0.8371349913647711
Ni 9.118269899095576 6.731076303073998 9.263213151405294 0.7298307722594528 0.06310824131439453 0.41166781179391687
Ni 6.429129281484302 3.1869486614642484 3.927880767433638 1.1498307580681486 0.7518558703802923 -0.22096060568090978
Ni 5.553804335622972 5.922648527082181 6.779824509973252 -1.5645964920610989 -0.22438017288542003 -0.8581779280779994
Ni 4.103956187419618 8.928855684034966 5.309999571943751 0.5665628933043211 -0.9868513568877132 0.26360183739020404
Ni 3.608891269267492 2.6932506881058127 0.2592697120748446 0.02417891123904868 1.750348925271992 -2.0163652856409593
Ni 2.024371350545377 5.037126911949009 8.449782172746307 -1.2765007832945887 1.3561556161137547 0.5438178862983215
Ni 8.872700114132074 4.9290736204532966 1.2093434478672767 0.13599181684799802 -0.14165184334725284 0.9616853991450469
Ni 2.0759273359397756 9.079515166971804 2.69390460493955 -0.7350069171437534 0.7221524297785885 0.9917282253640404
Ni 7.377835148871698 4.77004621871185 5.757418151533698 1.4111648824700989 -0.041193443519174214 -0.49837132392974814
Ni 0.9734217070354454 7.870480205294455 11.290167842888474 1.0677724580138126 -0.06315297850940091 -0.5788373397962998
Ni 8.163976183058304 0.48730011755716424 6.567253511218475 -0.4001616109265302 -0.40832666323582584 0.865749055557038
Ni 0.12428483730942062 1.2718867138466228 2.173259346918502 -0.08323612241252117 -0.8533977330805368 1.2751470974801717
Ni 4.2570355320858235 0.40091567187546034 1.2988894151900594 0.10739009395090537 -0.38486149023435007 -0.8795144847722467
Ni 3.7328953287273983 8.714152990291112 10.210513282322422 -0.3060561498996729 0.8864302380554733 0.7533525095304767
Ni 5.858614552388636 1.5333426139800224 5.710402639521579 0.2952282060462335 -1.6173876677202017 0.27017306284981857
P 8.654496933382761 0.8685188538446463 13.064457567039828 0.3392503772634545 0.49500960654636683 -0.7974762393225685
Ni 8.085432274102022 2.6178193493892135 0.906737891387108 -0.2262974445127909 0.7526878793632843 -1.1274616463443292
P 0.7151559604948844 3.096176138272534 9.178063574094644 -0.4853635988161706 -0.036254097236027884 1.6430321077611831
Ni 8.580164692169197 2.523934255957816 5.181835566976566 -0.5694376437489548 0.011015891494529414 -0.9181748774569218
P 5.752482372494864 3.496293809944111 6.14136985379721 -1.4891754948176223 1.8968010182213657 0.856251657589564
P 2.433337218922048 8.261528013537637 0.7739881560816347 0.30517760394946153 -0.9051638099092345 -0.4475748101031711
P 3.9163891950531813 1.7010242540436749 9.910859587707545 -0.4804929009874305 -0.11779072045893907 0.12012631057065118
Ni 7.931734109833268 8.528497873413148 11.333141631645738 0.20667504229617306 -0.5980342244397249 0.501334263212814
Ni 1.0536927692107803 3.235853882292507 1.5458630894011345 1.9827961914362628 -0.7881410779645717 -3.0213688879576672
Ni 9.162390813145924 1.2916335244473436 10.694903100524915 0.43502859800704435 -0.2074908533292491 -0.39993278274517574
Ni 5.357426091005324 2.265406203794682 8.03787552584051 -0.5288550943409022 -0.06437116718721816 0.17039651958011298
Ni 5.816913500067657 5.491811542006489 2.4308582460664665 -0.49466559294338674 -0.02425758699578403 0.7572708707482765
Ni 5.14536492571414 7.267214217831083 0.5261509052610336 -0.01674739466166793 0.25415688992722035 -0.41221545676727067
Ni 3.5182849961182536 5.728292991314655 4.62478709132143 1.4756957151636327 0.8199355967673493 -0.123820985813419
Ni 6.411876221520716 0.8172916740898107 10.285915989087261 -1.167804311827434 0.7658421573570553 1.5296248610819205
Ni 6.184501580094828 8.31918906993628 6.348059295493737 -1.4662713365259392 0.2007818167401897 0.1495042495121361
Ni 6.865628004117637 8.937131241704867 0.31321969808089284 0.4259865424094341 0.38133805046212393 -0.08610907308494203
Ni 7.376218829014296 6.522681874830749 0.9440490189753834 -0.10422352329746566 1.0917855330989583 -1.192811375394733
Ni 6.2213444367301305 8.042133374150582 2.578975026964774 -0.33227780260036327 0.12714953596601974 0.6073457316486379
Ni 5.613201781354139 8.28404565817962 11.459615427847755 0.2912257697550597 -1.854815417818199 1.2596027219876693
Ni 4.727107527185773 1.0018597004122554 3.527302213699864 0.1141531237063518 0.22541889856257952 0.06425701020685708
Ni 4.797357406245213 7.420552173674474 8.672396521289308 0.4223255486180791 -1.9918199922014277 0.3412185567334188
Ni 3.3742662787669713 7.596777218698682 12.438371914023975 -0.35379896450159065 0.24418280943364398 0.2756947639989961
Ni 8.066987755500694 5.56715975570185 3.373129313198707 0.33009339335453475 -0.1464577493763284 -0.3405593258828651
Ni 0.9630495516076579 6.126775870901888 13.335087698683843 1.2857595828886952 -0.5344878671466473 -0.42913305845821575
Ni 1.9436938993773238 0.9364772531519637 9.088601655404448 -0.6454854759431529 -1.2900039599873463 1.019823698048676
Ni 3.4427335879265337 1.8288428283670504 6.0717923637984486 2.059199607197667 0.008684158037559238 2.0554108295791957
Ni 4.4293444649983815 1.0279794293078768 12.268599217870518 0.7398364773219129 -0.25728463692292464 -0.8190053716435959
Ni 1.6430122253331376 9.241470416683518 6.722332474451124 0.6622634667324401 0.8264286606908605 0.45788981887593405
Ni 1.505643509680882 4.3391168725014495 3.339010186425965 0.19873624706507062 1.173012595501251 2.5005893715360483
Ni 3.4153854559392864 7.063188471259555 6.796370083644969 -0.3329000095653944 -0.23162862691771724 0.3234720313832752
Ni 0.24477825003904893 8.245918981771867 0.20783656698960856 -0.08193385866132986 0.6448640403090701 0.14685035682905676
P 0.3779168257216459 6.932100312767491 4.177949463268802 -0.776256924932476 0.4255869929781703 -0.1588851765064038
Ni 2.457074030542185 3.9684439305750066 10.826676578636519 -0.31115259058597383 -0.38594341044461916 -0.8672613784365063
P 5.079068103220232 3.236675896391415 2.092165347032913 0.45691871321191624 0.473387657401217 0.5042897462967121
Ni 6.90183356892345 5.958983397476585 9.747508761250383 -0.5706943989741914 1.0327401490000279 1.7441607941834092
P 6.626015512342847 6.104950934770221 12.065059290867557 -0.6534432973376488 1.1204296791982125 0.09804233418741824
P 0.013844934092834747 4.392464663909196 6.91404371093194 0.07468540462903266 0.03112371798799801 -0.8486905574128545
P 6.147649487346055 3.024263758788337 10.081754471647713 -0.050736350012602946 0.6286390938097753 -0.5987811299080785
Ni 0.4424855713851539 2.9607285342222194 12.287537868542538 0.7002777411926843 -0.41866558326798864 0.6812865448021621
Ni 0.3013697644977661 0.14421729379090606 4.671328790712493 0.7956070473243136 -0.213930952527638 -0.7843523003461008
Ni 3.4173158036546982 4.380605494212599 6.700527857769094 1.9473471066000334 0.4415208905996073 -0.6184680668140445
Ni 5.91584151145415 2.0458545504786216 0.3142458302875066 -0.8228494279800344 -1.9746360242229732 0.8194476013873371
Ni 4.154043630772148 3.472861790068513 4.434453882970468 -0.5203902514030007 -0.15884326752487485 -0.14577923525206507
Ni 7.546061719630131 7.091580284069011 5.124601219020276 1.50357855761683 0.22512682124345743 -0.3954179255939577
Ni 7.565088113380125 6.58147897318631 7.626266281788476 -0.9080838117695069 0.2487832843201328 -0.05792412601029379
Ni 4.660986190847812 5.834221976712068 10.931102848372221 1.271474790834907 0.4284270335301267 0.5899491334387452
Ni 3.4547128270982523 5.1369508263421775 2.416529339627758 1.0187716026350777 -1.4576262592564315 -1.3528280944024185
Ni 4.189584195408057 4.145250850747879 9.303375467222027 1.4352095821241282 -0.5051595504961751 -0.4731727131769335
Ni 6.420881432154814 8.95965812246032 8.418028414633454 1.2123193635206735 0.002915630984898205 -0.22011137030673703
Ni 1.8785608271807457 1.146718904089387 0.37860399256387867 -0.7703282181528669 -0.5467443159164971 0.0763998162169781
Ni 2.507706404589497 2.780227168660999 8.06687138047096 1.8532334180430596 0.6096257859320662 -0.20871341288244055
Ni 2.2108577176357214 7.698790091984445 4.916802520095898 -0.6043426831562559 0.9945790645492742 -1.233771105636546
Ni 5.050907193247548 3.7032658767128463 11.872657193099121 -0.06875978317321707 -0.9442355790997158 -0.6851038616657233
Ni 0.4005489981706668 5.289808504285082 11.111460130563295 1.0654111568704876 0.7248065795719839 0.052222961860458446
Ni 0.17642546868652534 7.422186965758818 6.824636285311221 1.3870111680420305 0.24554883654323517 -0.8044022770184404
Ni 3.118195032787089 2.371261300284328 2.336029221838346 -1.1034112902633448 -0.531440338569575 2.8000814950649584
Ni 7.942946751586904 4.520532613296286 12.660878200039368 0.8247597576288698 1.1697971738877468 -1.2432013978115104
Ni 7.671700571174382 1.8659627684064783 8.773551359633627 1.2024239587838323 0.33431385919378553 -1.3214855755353951
Ni 6.75052755804365 4.329206522747205 8.142802392926333 -0.019941990339565653 -0.9575814042790023 -0.5084240801800598
Ni 2.143092353099945 7.769326290561482 8.7628587110684 -0.5106887078445205 -0.7710771805037494 -0.20991154695559977
Ni 1.6530980612433281 6.533829863790089 2.3668778408310525 -1.3166138492653905 0.9435411241358524 -0.4253414526262675
Ni 3.860917097547133 7.535227758528801 2.5895863977314573 0.5876881053187105 -0.6807823514722341 0.7027398295799316
Ni 7.288595820516148 2.303495935748552 11.98416756186698 -0.3733048957450022 0.012153604643398423 -0.014535988832645935
P 2.1118004006606363 4.192447390584027 12.849994088634869 0.4813997290724161 0.6057791584924664 1.8778602154528046
Ni 6.14907184882057 4.2230373983995495 0.3597604738606089 -0.17957304387305847 1.6272257368565461 1.3477285683923241
P 2.813551066063899 6.593818420783393 10.55447815492515 -2.52974439583345 0.2813846152949218 -1.3274428215600944
Ni 8.121194505461233 3.8770248794403313 10.1343125753537 0.821932829703036 -0.043535975609421795 0.32703840857829486
P 8.774474047369369 3.5132882587305128 3.0853588021754508 -1.332370597879015 -1.1860763706637445 0.515304609349977
P 5.450073545231626 6.973090184351215 4.64932190314545 -1.2589609746386126 -0.010156114597395412 -0.794184198834858
P 2.4728585484639023 1.087284513904336 4.467180203831803 -1.285488845725812 -0.4391382493000437 -1.1646454544834781
Ni 8.583092540139463 8.314728027129851 2.4122437829772743 0.10057744190444613 -0.8317575291029417 1.175881946629246
