# total energy = -340860.3379253104 ev
CRYSTAL
PRIMVEC
9.39286990589508 0.00000000000000 0.00000000000000

0.00000000000000 9.39286990589508 0.00000000000000

0.00000000000000 0.00000000000000 13.74741455312055

PRIMCOORD
 96 1
Ni 0.5288195229764195 5.460235037559139 13.187180017934095 1.100302569431034 0.6802437053599446 -1.3460090145980563
Ni 2.8888429332818 5.491128187146252 1.9687258369853569 -0.18423419679415365 0.6085546643550745 0.18064570811194697
Ni 7.582582203462769 5.731651410459483 10.16129135350732 1.5170778776548453 -0.288225035255523 -0.04378434417480201
Ni 0.9583263523637642 9.368655228786208 6.8725526136637685 -0.16615419936399128 -0.6620122699535824 -1.2846545227499746
Ni 4.863825361005976 7.010274631452182 8.1787495439687 -2.9338709049449987 0.08174231147581407 -0.7982159457020704
Ni 6.941941501854659 6.930886093808435 2.0854688795220775 -0.3998451081273759 -1.3878927993160355 -1.3075890200589608
Ni 7.617082215148225 1.610539069870725 12.355186828425824 0.03481325102444327 -0.5934216653683779 0.47494857413043357
Ni 8.415570097909098 8.115110970821052 6.8195148336520335 0.23888993646582082 -0.5524776188558485 -1.699029191952093
Ni 9.20109582000405 7.402652384827698 10.792036666520104 0.32634601049696055 -0.4505048392657725 -1.7175653030830678
Ni 7.136862341085969 0.27428777327394643 10.258732987382878 0.22115960906559332 -0.03764326427407065 0.24366241815379971
Ni 1.2595463019256796 1.2888520564747201 0.9713674131380872 0.11483369471314417 -1.6112386173996702 0.4365699743522352
Ni 0.6526729681393015 5.684602524390206 9.724150938632153 0.5014463633106461 -1.2382489389022415 0.5462360088215108
Ni 6.213308393639047 5.157662514710346 8.463307481352876 0.06762078447276743 -1.136378489217985 1.2238466474339824
Ni 5.301420390791455 6.501162289122988 -0.24632050270671316 0.06324528111289107 -0.0456008285582505 1.3329113008738334
Ni 6.27974416348692 5.136744593113962 4.216414278667435 0.08784045395375195 -0.3384327664581655 -1.5040539545913516
Ni 2.2148011857838235 3.1160658526073886 2.078897627636658 -1.590393655629861 0.16159383368681846 -0.6612653644852289
Ni 3.2975830662805317 5.295258668040118 10.796394958222269 0.21747701800768354 -0.6558827600170769 0.0014328757917846289
Ni 9.753838043705132 6.902453876173837 2.892744731499643 -0.44496102662940784 -1.4176144947501843 0.5353152481439492
Ni 9.182563687399801 3.0871827772104976 1.29954677831111 -0.9308331896508807 -0.7152284489652456 -0.7977906852391938
Ni 5.945367382656379 3.156530336773179 2.7698014554443904 0.21010592235459297 1.2863758763164554 -0.5894737364642235
Ni 2.8239569869918095 9.203190430024701 10.909150727423711 -1.3426205577417976 1.6799850308364486 -0.5829413346623444
Ni 0.9681606873037787 6.184331389541678 5.200454552073973 0.46262270557522905 1.9245139107556017 -0.05966861950522626
Ni 5.556915848960829 2.097155488435512 6.172809155854081 0.36244738420520806 0.5948504273951045 0.22494221603647713
Ni 6.725548561694149 7.495341226459087 11.671678946493705 0.6505682897826989 1.507167817629985 0.07654379799401011
P 0.4766768834802375 1.0995387606619287 12.770647559943733 -0.36049308869231467 0.5202421558609105 -0.4752969586087879
P 2.603609648541188 7.831784438700137 4.242383685775508 -0.8908309382263304 0.6927004430660586 -0.09977114395306688
P 6.893990900260796 3.3050597908385555 0.4992526466400512 0.7355923573335783 0.5280292560054971 -0.405359867298018
P 0.4469456319180332 8.996303074352534 2.257242869094669 1.8955203517367292 0.5169051210678774 0.8520106229250228
P 7.485403569948547 2.9760839102854817 4.4302420260179 -0.829896307524487 -0.6282876240076276 -0.49385286723410426
P 0.7500385197674739 4.218337938453218 11.345700330772873 0.014521590654942731 -1.1553221202000235 -0.17718320348464325
P 7.795011352463121 6.364148493736176 13.16639359651838 -0.269771970756658 0.1465891327478701 0.571327661682816
P 6.4979874990468405 9.473085157977307 6.024543641437045 -1.7913109695066507 -1.1003956433654727 -0.1647082109460841
Ni 4.0551556071133215 4.528405971600132 7.858063810519786 -0.8484537588117 0.11432693028005472 0.016825041977138765
Ni 5.475226058155379 0.46135241599730187 12.48065960438494 0.6171436915756662 -1.5173213611242191 1.189380495336313
Ni 0.5325916995876038 8.574131137185493 4.5792091878275025 0.38359470770678455 0.3994242185398734 -0.25866223399674165
Ni 6.198185872862139 1.0434539336066977 3.66073020806739 -0.9749206668883984 0.13579512745615968 1.3249092565049634
Ni 4.2790158789618085 7.685894381118184 11.60355997433327 0.3045957633040625 -1.9621142376068785 0.08786410810283578
Ni 8.049163630215665 0.5186451661406758 2.378275635382206 -0.580477189392568 0.5003659857622736 -0.4584071248319847
Ni 3.835287305035136 1.0338638132879254 5.22871957662172 -1.328343221887177 0.11759043152267491 -0.21553994888597072
Ni 2.1653101535021264 0.9777695933626467 3.5003666770288286 0.04406973662570474 -0.4773749241837391 -0.6053958070111186
Ni 1.8072351615410631 4.096540592543793 5.323246602921456 0.33342502883092895 -0.7245641245438748 -1.1874519108550323
Ni 1.4858111485063956 7.652042477466023 12.559583194961323 0.919578699782984 0.6026490975039169 0.7455283855003676
Ni 4.616933771800358 4.014118157874617 0.6790209079102993 -0.18137641563038437 0.5268162095340024 1.0363715751050282
Ni 6.07678302749472 5.95584982562969 6.231813286920159 -0.10746748415606008 1.7128231604123922 1.2490982229119196
Ni 8.291584213278544 0.7642696571768492 5.277865890572664 -0.0678048754591155 0.8101682329679403 -0.8156521389006468
Ni 8.592109090456924 4.657163434214954 5.189992773414767 1.0266497198315738 0.44092130934239543 -0.5624853808008378
Ni 8.195128830758 3.8229638595324626 12.442042697757547 0.28429561829412975 1.7178625226085122 1.4128019038528894
Ni 7.0931197452735075 3.859849660210053 6.770120547931829 0.47613848067347686 -0.7564298629042198 -0.2373223348683848
Ni 1.256230618798817 5.2525023235826716 7.48743336916587 0.644828044864812 0.8707992163864358 -1.29778591792561
Ni 7.027820512701415 8.644568269673716 0.3000946837301927 0.045212849091212454 -0.08263319872119962 -1.039852334564777
Ni 8.702907385540412 8.7955962271718 12.201339131339399 -0.575846375488776 2.456174335755783 2.421555717240649
Ni 3.5692154751919736 1.718942183092031 13.45251920391353 -0.7427852755375918 -0.5964277991845534 0.1221651953775509
Ni 1.6986160123086582 3.2827047601248647 13.473717033037337 -0.4092445470644049 -0.28673610941482236 -0.7902946339724647
Ni 9.188312123869036 7.640151103985547 0.724924803120753 -0.8479174266922558 -0.4661363751554424 -1.3341924815791022
Ni 5.997723240302645 1.4687067321494078 1.0154622415773404 -0.7649278730729019 -0.5238033908496076 -0.2557759135878821
Ni 5.635881707452427 9.431286886264733 8.001476968270143 -1.3861909861335804 0.8214024111208628 0.251784790150618
P 4.0460257374268895 1.9813414007465158 2.2771350892818347 0.18612627161054396 0.3838417907205841 0.47616213482256065
P 0.6588243587335857 4.616567449868496 2.9712841536910717 0.5906119638337248 -0.6043897343441075 0.5085027559367953
P 5.780212548606451 8.880742594154828 1.9775795562923841 -0.3700082272716015 -0.4713071207231044 1.1241786047176832
P 5.514657326615915 8.131980565426845 9.924148624124282 0.0835287139522755 0.7863708734380264 -0.432230723546933
P 3.871769212300672 8.732128604259021 13.384867996681477 -0.6073665575842443 -0.7781471999766535 -1.6462457296024744
P 4.591319415180092 4.280236952068018 5.7304444266583445 0.5931591557356107 -1.6896765470925998 0.2099650259013545
P 3.6272728049572356 1.5875453239937856 8.749336342186535 -0.5594514790705203 -0.10692318161681585 -0.15228464047075063
P 8.381830908697511 5.791220992302436 7.650161085595455 -0.06613031597016998 -0.12461597091088862 0.40327238864136994
Ni 0.9611254276379995 7.670001644997358 8.50159375895459 -0.5139005299135988 -0.1681807428757168 0.27097164749171404
Ni 2.849618307962315 9.015126385928264 8.097612053922058 1.4993508926887273 0.07795584785018833 0.36120605559893915
Ni 5.721723146818991 5.519832798012236 11.440254596395748 -1.1243884067356442 -2.463559315365944 -0.13880794614055447
Ni 5.283526973350455 2.852887026738939 12.540942105064518 1.6110984922773801 0.8748623307122159 -1.831833355100729
Ni 2.575139859426399 2.8969771587431685 11.223347866243627 1.288252524513878 -0.5027673961149147 0.39240767801272414
Ni 6.946187079116251 2.0026068585346657 8.310257238933508 0.2156718464781447 0.24362590848890942 0.4164865733387989
Ni 3.43755561573239 0.06510480016210374 1.4204104729377873 0.9454347416141395 0.5020030071450645 2.8131380711386003
Ni 8.731085995683719 5.248190996230745 1.3046170495628961 -1.384800276433641 1.0378085646618707 0.6209496955853177
Ni 7.490372398203816 3.199934789263921 10.418890814567396 -1.233145299127089 -0.3279061558952288 -1.1828496361963308
Ni 3.6484725126550512 3.880636081625766 3.5356284504751594 2.0346283456162055 0.4520981518948214 2.71108918689495
Ni 7.0028260855043 7.523538622342491 8.41394043495581 1.657515903199655 -0.5958806684318319 1.5079152373189708
Ni 2.044057594055472 7.720356821323449 1.3431062131576408 0.6178839121758004 -0.6812400078349429 -0.33836900309976564
Ni 6.718297266017271 8.15424166744006 3.9196352780641046 0.5749770855099452 0.6140118308149038 1.7035515053024788
Ni 1.72892680395281 3.7209760765537827 9.208664594688543 2.207797285735133 -0.6686058640107002 0.8288976910566435
Ni 9.535172028993063 2.445555824247373 3.5396842917617866 -0.6270429529672492 0.6800840398536288 0.0388326565964815
Ni 4.966273394616996 1.2197111400530898 10.53285638543099 -1.1072676878949574 1.9326378254143168 -2.5065587017456057
Ni 4.339195997357867 7.276910033498211 3.1431398612330788 0.5151472578365064 -0.17906267989554323 -2.1963944432148303
Ni 1.010419209648693 1.7659065333308779 5.52200630814129 0.8159596428387366 0.5483648822390557 0.23809212315487385
Ni 3.6185562215529057 6.142908832631017 5.354232741922043 -0.4197089369308385 -0.266848626462276 -0.6162471479033257
Ni 0.9692878317095109 1.538664828265194 8.427921722021916 0.44694437560802375 -0.29703054936229484 1.3865756231665087
Ni 9.087207270674847 3.737272706086663 8.436815830670149 -2.6722303050462237 -0.23163068380024623 -0.33088015092188827
Ni 0.439678368362074 1.8241611133671434 10.686965204304741 -0.7697903433715259 0.05673139125377327 1.0354238664797781
Ni 2.3982627235568543 2.7542055340170744 7.146442129247689 1.7267482551339164 0.021669000333001395 0.004805134698127208
Ni 4.712722260547511 8.284389274821951 5.094241856147805 0.24127746286139093 0.7712129347506653 2.138337134060782
P 8.989277207556803 9.35411506595226 9.32590264147678 1.134585401873304 -0.5983049616026084 -0.17124575495428573
P 8.749749628468637 2.0314053981011266 7.104333892823539 -0.20176372103748477 0.39436094508435304 -0.5430465553499357
P 2.2170085102450487 7.093316995544511 10.634271203336755 -1.2527479038493652 1.28903208299238 -0.9589366327553163
P 2.7928384085235494 5.09949247050451 13.60672383006177 0.2639347952495906 0.7564614874731036 -0.3403127570896977
P 4.8237084130319525 3.7003493339288815 10.405802789442834 0.6586518381217817 -0.29463453832629255 -0.0013755401912879535
P 2.807162535346398 6.958059666856632 7.119648967436428 -0.49620362685446795 -0.10319533914326742 1.5871599791839117
P 8.118755404399588 6.8783329858911655 4.922743077667614 0.860720491994195 -0.738416971266567 -0.03733935988040667
P 5.23487190650301 5.419066088139766 2.330709202173297 -0.31505141141974774 -0.2790713937807129 -0.6446077013238899
