# total energy = -381169.5131228521 ev
CRYSTAL
PRIMVEC
9.25936982871577 0.00000000000000 0.00000000000000

0.00000000000000 9.25936982871577 0.00000000000000

0.00000000000000 0.00000000000000 13.55202369576834

PRIMCOORD
 96 1
Ni 8.381646314033356 0.7507608106404406 10.556876900573203 0.37806863568223276 0.31142049953537976 -0.7306036458697353
Ni 2.234276661503871 2.581753030143011 0.8955180935769091 0.8098422170870893 -1.1913630729839806 -0.09007088594616745
Ni 6.145165922528789 5.483370988328207 13.427656527803283 -1.1560021769861832 1.197818598801337 1.8205752656884062
Ni 4.065178139182883 1.4095631165375564 2.3120562933477604 0.48704638583523213 0.9063742852775681 -0.4421361555861031
Ni 6.846016878338343 8.307580615396521 10.081539746918898 -1.1717339858991433 0.4605763645691616 -0.19317109427246731
Ni 6.917471434705445 3.990380950335734 9.868231645969185 0.16021932193679503 -0.10516531838544468 0.5848202968526122
Ni 5.967886029279529 5.920913246533603 8.704139051210824 -0.40570130979783686 0.8623783393125921 -0.1447757336882152
Ni 0.8817947816692142 3.774859860015575 13.02919992119006 -1.4727754561930442 -1.5217287461632953 0.49717833206291145
Ni 1.381525744932064 3.1904825163016253 8.343709750227259 0.23592905406528403 -0.5647862610198725 -2.0832731032071026
Ni 6.9310549301299025 5.543640226036314 4.9344681420036105 0.5114132447153708 0.5502446157602717 0.12538550208706148
Ni 3.0622217265132234 4.276588069333677 12.284489182744807 1.684334051833764 0.7497251971905347 1.1272541583192135
Ni 8.045383042162463 2.446464378713734 8.163752973183035 -0.6228705667571144 1.5361374653894575 2.382046346292117
Ni 1.0817906867281684 9.015311282930936 11.545619254738375 -2.0473555633748868 -0.5984931663540144 -0.763270282864821
Ni 4.163151530516343 8.932902892148611 0.9936738944944599 2.8097694117766836 -1.891124022441246 -0.3779943308008716
Ni 4.232837547261038 5.212293679503109 10.30475537350199 1.8148221652547132 -2.7660907399418107 1.5536510487931887
Ni 6.681681584000733 2.185526079765787 11.749930026101211 0.7909322675564637 -0.5424071219937239 1.0706073563594465
Ni 1.4680730739930077 1.961847484695153 3.8403856419312246 -0.08662663615130886 0.5738360299269666 -0.015970664396643464
Ni 6.158453118121219 1.3378678165569329 0.9050163550673035 -1.3232802055419726 0.3389323318024034 -0.21084537162377884
Ni 4.16390153946616 4.388524590251378 7.0768529662263635 0.3037344437450317 0.32681086594852105 0.42609375741125965
Ni 7.691564005244008 0.16472696567806877 7.754128640713346 -1.4391410559680504 0.7597506997473367 -0.014906741908503359
Ni 8.83165168392336 8.422063462995698 5.949243214223222 -1.4729562047452827 1.55695234525228 1.0749900588081744
Ni 1.558944528727586 7.863204942315018 7.281258183160659 -1.6048008321941265 -0.6144275781960838 -1.2677775444889778
Ni 2.9649335285413247 6.8588966616617375 4.520128012519827 0.7163610199077921 0.4215179651151192 0.4302682005039235
Ni 8.62523255406826 5.578640643694426 0.8313330684011783 -0.417604488993326 0.05747778250149455 -0.9358296144242078
P 4.786010814914714 6.443993562497103 5.8811988837353475 0.4165099703775666 -0.6381650310223397 -1.103669171910422
Ni 8.33454390011092 0.7593312832818025 4.229464358860813 -0.9372110681527666 0.9826720286990431 -0.3719103293903208
P 7.437181340079645 2.1419700044579155 2.438442986698596 -0.4069824905031055 -0.7751102129225425 1.6697132165967954
Ni 4.445164155017163 1.4701286540776903 12.84643755511134 0.4492249441120844 1.0988136435903333 0.2839590608903174
P 7.687397288856139 7.095316149509505 12.428222379386836 -0.5985826407440271 -0.18842638049863034 -0.08853825135172494
P 0.8674612772949399 6.773080822811109 9.88172902925496 0.46363957687551766 -0.3529576995472179 -0.12008491580975449
P 5.370091858796637 3.2123253695438168 8.6107796038242 -0.37543891136886953 0.2597061018802237 -0.9528310340782107
Ni 5.479991318369157 6.514077732141084 11.455742256315034 1.4965031388272874 1.3784830759663613 0.3481003714549166
Ni 2.0332835223227534 -0.018366885837732765 1.2924052370173664 -1.4269198313115103 0.2944622744144864 0.22342886471574422
Ni 4.414386009965427 8.92062496785902 5.4468566637158355 -0.033776325119496665 -0.6176203741017685 -0.19170582258085048
Ni 6.382233566259114 3.0254527692327047 5.188107279776983 -1.3684519169826044 -1.7436393744623 1.728007067241682
Ni 8.256524450590483 3.2412886781243917 4.231375492777382 2.999225261981093 1.2129554544427756 -1.2910288017074347
Ni 4.351570445575843 2.4027231160108458 10.567624251042984 0.5720997639621501 2.099825608249145 -0.22728063436166662
Ni 0.07321568849370867 1.44638763003658 1.8429664364643348 0.24369892781868996 -1.0102836197687246 -0.6725792468361513
Ni 2.0638487018702207 5.57339984041546 6.702438313171153 -0.45168857516122857 -0.8186567300549257 -0.9242956456426792
Ni 9.229499024006978 3.0178600860370297 10.641035312238433 -0.37411890700586536 -0.37820336148788414 0.26874944302941456
Ni 3.682858762171396 6.802812659081002 13.196377842041171 0.4150285007360336 -0.5514707748578889 0.2504781555240525
Ni 2.7304214708622268 7.237697478167911 10.948368609259855 0.4725944720759603 -0.9259529787404439 -0.13498368729845786
Ni 5.249794126993942 9.24075841762398 7.63319108646087 0.522214706206249 -0.2974576095973845 2.4608010358945167
Ni 4.331125757166025 0.1885198421897839 10.427970732713169 -0.14516242760367257 -1.3954785820830935 0.09103170719754
Ni 9.073358271898847 8.361627556632076 1.155512862747247 -1.057511956628069 0.43068780453984534 -0.20610965671100634
Ni 2.3128516732093565 1.9650697453684394 11.840755183987035 -0.9479078857449804 -1.1639461144236083 0.8877692685818711
Ni 9.150525859402208 4.7020190719049975 8.999654614619269 -0.15507840116580388 1.2219951960475406 -0.2992625240166072
Ni 6.610921480364944 7.445375882309124 6.773856757996228 0.19909620150765064 -0.9013230960069057 -0.46029380033173634
Ni 8.82829053270381 5.80703225796823 6.751251858623543 -0.40118208177124454 -0.6968648588563934 0.05978277648558737
Ni 0.37937304555677526 3.710979468104646 1.9547575852769477 0.09968655465906058 1.3292379657873044 0.9630557971300124
Ni 3.0201101128864796 8.986459086787372 12.479502620940844 1.1046029965786008 -0.43570762635193994 0.9816029640045804
Ni 0.5479120937612579 0.9367056221025206 8.299096254893842 -0.055434269708904534 0.2438362247275026 -0.36194987574349924
Ni 5.776393003462756 8.606593442759854 12.64952687205336 -0.41728310109816524 -0.06734310533134855 -0.03092522882394674
Ni 7.925307535233788 7.614581605135666 3.4883453299419043 -0.23678034632198575 0.6523708902090766 0.8055942404440126
Ni 6.270982238702974 1.5161384623695306 9.676158057669033 0.7720768254128574 -1.206066697742742 -2.0781208695822015
Ni 2.740717890025142 5.533871590949197 8.972740404564552 -3.2729544176132856 1.2263832978129072 -2.319194701073219
P 6.308390092496299 0.6412678373999819 5.79809789209566 1.3805731257261706 0.23316049018121135 -0.3108337737939743
Ni 1.0523829283995538 6.979342543380445 13.262524927667103 0.446668753349134 0.0124258844681786 -0.4813110260133517
P 3.3679290782063998 3.339604666138632 2.589669791279965 -0.2824354251569394 1.7686124994678702 0.8710105610662935
Ni 5.078810605175243 7.539182557254713 3.2033326696418176 -0.26440273602494463 1.4996167447556046 0.8690223269916709
P 2.622697963181151 1.6979091499479395 9.36221264470855 -0.05371523013526878 -1.0132090209456357 -0.15488402576681068
P 0.9731412420720096 3.912111497832026 5.541408717926367 -0.91112465547836 0.1316055148548443 0.44267583013965695
P 8.26010782668405 5.279951894272373 3.084088654116767 0.2621545634207163 0.18745476061398036 -0.018202896161271877
Ni 4.05502061056623 5.669095426790217 2.5574157026899473 0.21931561387831905 -1.607447525788354 -0.7864917152866069
Ni 4.056946559474402 2.1693221827018467 4.590964968924549 0.6748305047641733 0.22983811067619772 -2.1033637033093906
Ni 6.348520200996367 3.978593772642936 2.9864726744556895 -0.3387209871225457 0.2661947949283609 -1.5639395752033904
Ni 4.770269886338314 3.6529602572459883 0.8168004875772613 -0.17991500059350948 -0.15536919293334533 -0.010403711831827244
Ni 8.880531896837955 2.0898582715002827 6.216923260286742 1.5852578770651924 -0.21527718214288732 -0.9771382433650073
Ni 1.9942645381927846 8.821651564592472 9.284952463507683 0.6720830239260231 -0.769146796250256 1.8442384136333012
Ni 6.809377552234335 4.30519026249397 7.205827653422554 0.19118748818353523 -0.17448174539308015 -0.2786553892892169
Ni 4.797279467901466 4.592962214979802 4.630495996201739 -1.8238714199411752 0.6791003357841208 0.4111780166416919
Ni 6.035025719342747 0.4765177232975361 3.5181734636572064 -0.29557710474522 0.7547787004540419 0.3803736296663256
Ni 7.659433992208653 4.404700709206066 12.369934646805403 1.8107245981465718 0.02510733659058902 -3.2378601450133138
Ni 8.698390834469514 7.465876126937447 8.428436687195191 0.119995955640374 0.28013197383474336 -0.23830192517283472
Ni 0.5450500225712784 6.84285017388356 4.9703676444645275 1.3572622189143722 -2.5267686010345773 -1.1905182084851818
Ni 2.4141399189136106 2.36835233549579 6.05051757087285 -1.3666796555735303 1.0826270065281418 0.5902085577477191
Ni 2.9631279514399145 9.23627688266458 3.7021821409043887 0.6682960460797652 -0.3403081291040075 -0.1800587252602254
Ni 3.750137342780877 7.437310971256157 7.430127552203468 0.8406931410296747 -1.0403030489489504 1.1978993314406015
Ni 0.7908779560228569 8.717918845274 3.4925601950524796 -0.1085018389578454 0.9075161121914952 -0.25208072412448196
Ni 0.667950563210929 6.72674693657799 2.51621798885761 1.5724455557918726 -1.9419943269285522 -0.30586794514826676
Ni 2.382176574533769 5.026476647343591 0.8066327736538825 -0.46292763841015755 0.6283886683618661 1.3044890409773986
Ni 2.393445227520521 3.593218803613677 10.340248389630846 -1.9365569579630646 1.681537462925233 -1.1836829307309034
Ni 6.734219247966904 8.577185684431239 1.4511099086094996 0.03687424731853004 -1.2494877450408546 0.14572961296105225
Ni 2.076265516706074 4.745214031792586 3.8321466547269423 -0.23210839476761316 -0.9291730283396383 -0.15887669186597156
Ni 7.823972992680781 0.4238726506422561 12.90427713419683 1.6127367992117514 -0.49076420100645163 0.2513392179727671
Ni 7.855001140715789 6.23449106251498 10.206517164193656 0.04280192565687467 -0.17610848236322574 2.0242829978261394
Ni 7.472987322906079 3.193954779958184 0.6094220870159759 0.27615422013391794 0.46982385130935855 0.5660075350214833
Ni 4.762297568982855 1.9753106083128498 6.708265234555347 0.41683290093462405 1.4948380924200384 1.2138890220006384
P 1.5381665030067388 9.261129031075788 5.526786321215867 0.7797047742717604 0.7263752096106845 -0.29499037900381453
Ni 6.643995949114884 6.381298369914281 2.081590580249773 -0.6279855193861765 -1.9308321396641457 -0.8303061413683959
P 4.703787611527404 7.515784129894383 9.598559909472261 -0.21712271999205832 -0.44707010255261065 -0.4707509911093183
Ni 2.874034295697494 0.5954756242972862 7.335466237429878 0.5228649381957382 -0.4713472299324205 0.4544797647531205
P 0.7674887880322777 1.003687902879975 13.23921539025638 -0.2554326713158504 0.49486768165186384 0.6048743872900099
P 5.427425876293733 3.8052861490167795 12.08288955484501 -1.2597690723622046 1.222058445185308 0.5568970880797829
P 2.854497025523257 7.2106415997560065 1.6977026660024963 -0.362585195334653 -0.10331798076406076 -0.10608628753781728
Ni 0.4986735432373057 5.273312926161033 11.536688592613705 0.4446131563716859 1.725223333848958 -1.6035458767411028
