# total energy = -340872.5162443746 ev
CRYSTAL
PRIMVEC
9.21877242366296 0.00000000000000 0.00000000000000
0.00000000000000 9.21877242366296 0.00000000000000
0.00000000000000 0.00000000000000 13.49260528982329
PRIMCOORD
 96 1
Ni 7.153850299943073 3.9117832268366017 8.933602517889296 -0.43780076143554275 0.16996328869743632 -1.0406925710778852
Ni 2.8535142567834644 0.8736796478599411 3.708699203587431 -0.05704480872913402 -1.5762212207842208 -0.2700946442033994
Ni 3.540847484443396 1.1422335484689567 12.064520696722179 -0.6780042745064646 0.6143661288305291 0.23495614862905342
Ni 2.3517825725189754 2.8030783533455037 5.296670535042897 -0.9400225694596327 -0.9874393681806994 0.04820895560505891
Ni 5.75564831885514 4.807608209596684 2.387003814097311 0.0960229897645443 -0.31380211239367894 -0.07139439258258672
Ni 6.505116072044565 0.1834425069148776 3.6260160345260033 2.144858994339699 1.489200434518287 -0.633938908756134
Ni 2.153127247498939 1.1481243439902247 0.8360449316846292 1.0399837179363187 -0.6428254126124865 -0.4194739381018969
Ni 0.6330438773864618 0.322692984893445 6.186507925172206 1.1470807061268375 -0.2611088957650212 1.2474478317926903
Ni 8.203121748198468 8.011813784728433 5.534221704293502 -0.324343378244635 -0.013407531655157555 -0.8720058351000273
Ni 7.573110846909811 3.1478512198555197 3.27259135018076 -0.6648947337077001 0.9139209872765744 -0.8318356906390448
Ni 4.917154881238667 8.477721319703958 11.36306707547864 -1.6860960288301932 2.3778896438112658 -0.213732977584219
Ni 2.0372749355806694 5.068582435592888 4.137965806045224 -3.4202079234180323 -1.4813452001399263 2.08052973613401
Ni 8.675546955213958 1.2352693988611887 2.6749761367501432 1.0017645265541197 -1.1262503996450477 0.8581043945275867
Ni 6.0242280320266905 6.839241256509097 12.211738959628809 1.6371805340764125 -0.05721964374410146 2.379706128194715
Ni 4.690114956203006 8.227560713655247 4.002297742995553 -2.5311394764087636 -0.48340621797948363 0.2060744325976967
Ni 5.187882568363982 7.041132370618279 1.5201442140098802 1.6512259564258853 0.1167244839779538 1.6539801221322548
Ni 5.7745560209116675 5.661137464889508 8.084863336701089 0.9393479119901114 -0.11621617688296759 -0.9009438582906161
Ni 3.522658846628902 3.9255376351585607 12.800218369676676 -0.09147496538254568 -1.1223880884761637 0.17566625261948457
Ni 4.851858316798697 0.3552914857428278 1.9239918955118165 1.76137021608316 1.8972319351111968 0.17467817767460242
Ni 4.814688226749006 5.359065951829434 11.127337535641182 -0.2634095188737399 -1.0479716212378016 1.467334487683131
Ni 4.307794029977615 3.495196123846653 6.4600030877521135 0.18462217626119173 0.39372922503762514 0.47755438718439686
Ni 9.523637134829867 2.6035195886367597 0.8063770785601463 -1.3643211826436825 0.2971956141852495 -1.2732295687424846
Ni 8.603373186613009 0.08120724361079387 0.5240623164885381 0.5297683501837908 -1.2341295174172293e-05 0.18679321577058153
Ni 5.4445516276803225 7.355197506484566 6.112757746502185 0.5560686786412165 -1.1014657365012 -1.7271398341453803
P 3.0878277931904563 2.957787790650541 10.739762831062786 1.5360289648360512 -0.7302820008642584 1.9929242810092
P 2.985508639058135 8.447336246091911 5.980570691885738 1.172283173534394 0.7918930888078362 1.8972738440927261
P 0.8943877761532496 6.076332533257061 12.04900458100724 -0.6847889015284658 0.4195767822283484 -0.5569294839796151
P 5.312612558039654 5.4320140973064195 4.765453529346133 1.972775316865151 -0.5186115622360229 -1.0431885980268616
P -0.17658189654409887 7.435336294381878 7.4459341950567595 0.390645701016295 0.46133895376679906 1.8068167784517333
P 3.144403399002696 8.445999524103517 9.951956969368984 0.21411504351398608 0.41686709660666915 -0.43461593594965797
P 8.080641138972231 3.337619648345818 6.9091315352029765 0.012706906043707148 -0.40901031956641176 -0.3162032656360038
P 7.3577787627380165 8.77404031882777 11.421733498856174 -0.24697451324616818 -0.5420309696012278 -0.86612083707416
Ni 2.26446236097367 5.033071724563272 10.650631130753899 2.9845666315276533 1.3308834718105274 1.2828706913766743
Ni 8.82859701349892 5.190325543032426 7.728281222831536 -0.14435535832134494 0.06163757030613901 1.155809601359403
Ni 6.70060013938179 1.513943667738198 12.157728016279819 0.3597006746980063 2.119108881958789 -0.7616605151755398
Ni 8.599750209085844 -0.40298757004319735 9.3704792169086 -0.5293718860763205 0.5902959752552027 -0.0318107167526936
Ni 0.9966783520913359 3.102550172607459 11.633121792223589 1.048922158076529 -1.8169728930491287 0.7334390584360013
Ni 8.472337556661047 4.321825001469587 12.50765878591057 -0.9301132807657206 1.2224983609362043 0.6266434035359852
Ni 4.626238082702434 1.375293331838558 5.070116439309224 0.8305640230154728 0.3454994434969598 0.6480756052678323
Ni 1.8613438843633336 3.3194217917589905 9.163826606889035 -1.282604067978849 -1.102013895695186 -2.8067625066295596
Ni 1.5030194225227012 0.9317136634553809 10.352052610531084 0.5871435456691501 -0.7495207944892123 1.4291260949342095
Ni 5.183098025522764 0.08174193240615153 7.882218127015005 -0.5957132896160321 1.1706790622720677 -1.3003634488447993
Ni 0.9354103911612157 7.134942597886548 9.80082625948391 -0.15619991636475677 -1.2391691367236657 0.9444608077366443
Ni 0.15362438780135457 4.7928766114073476 10.209125686145816 -1.9906079741711977 0.09093940459404984 -0.8344870122189628
Ni 3.8207755063577955 2.6269629266814927 1.858377283426332 0.3488827581468959 0.9748792721275017 -0.9310386207934676
Ni 6.062827031788114 8.07838253975046 9.600487586635731 0.9954704660152919 -1.2752406856352425 1.2659271215438004
Ni 8.687033545541814 2.252874364150143 9.60232304420738 1.3181308001305494 -0.3080292144656437 -0.4176967915968161
Ni 2.0926428822171883 5.71189602535915 8.337796027590562 0.6602227821533274 0.014489708975742786 -0.48634318912062047
Ni 6.946815110871656 7.842234467649053 7.677346583810319 2.3499785192232947 -0.4529774691759812 -1.0640479579743738
Ni 6.869672423982815 7.015273714222104 3.7868209240981177 -0.2578834468491882 -1.1003287946832792 -0.7112987748935363
Ni 2.937552585377954 6.418782269138972 0.8901517502658903 -0.8558148271624616 0.05230986514730991 0.9044174186615133
Ni 3.05450193120394 1.3756528639595742 7.304950587879447 -0.5452762160114029 -0.12110075866877854 -0.8029470326291527
Ni 1.9358776586817241 7.688096594228708 4.435761652496903 -0.5787170121683517 -0.014808268657426111 -2.1173438196385663
Ni 4.0666125081819775 7.415479058774975 7.862221687945863 -2.202242931575807 0.15787833250844424 0.2900818859586036
Ni 0.0851427375200729 4.790193948658225 2.545407213476483 0.8459124804470851 -0.5646929299751178 -0.5348920445636014
Ni 3.640769757768941 6.058448114929581 3.347650594522175 3.228353491074459 1.907847505843514 -1.549672523761415
P 9.360280489075771 6.320648437646174 4.033141911469822 -0.921507798484897 0.6643638009048946 1.4528977434325108
P 4.637475766177278 5.595361524288182 13.579766976991136 2.079144682861026 -0.9832119603629131 -1.4975750317352272
P 2.233542598566264 4.114190592196476 6.929100317955117 -0.7581123928129653 0.6771848639289627 -0.008740465196791398
P 0.7959239126109042 1.5280944832705083 4.482688891184638 -1.063834299301671 0.24291037047912356 -0.5678618146214027
P 3.1871969401759763 8.465819884621085 2.151085289427013 -2.6191277687942893 -2.054985312006003 0.16381783792133078
P 0.8069578612171728 0.9729584508765903 12.614843608080644 0.8951277658294713 1.3148457016213744 0.35510251380436264
P 7.3452504511364465 3.3465157636478895 10.927026519110003 -0.20276259461564433 0.23741772279566856 1.5380048576154997
P 5.5976201235099525 2.222461634221093 3.1610884550495553 0.16010465073580168 0.13167750574336032 0.31505423963322515
Ni 4.2160395889397755 8.417965237436574 0.020817831684080277 -3.025346898768809 0.34809651480017473 -0.326218998000793
Ni 7.362858306293914 5.6376295954384394 5.787437411493619 0.5236714932574336 0.34075858637786477 -0.06254568394270518
Ni 1.3200821043317132 4.770650151310669 0.19690283639938985 -0.18939131551506094 -0.13911185053421848 0.6927294965317812
Ni 6.326898765288458 9.06657040252241 -0.019786251059933348 0.5328151074299147 -2.42401292053189 0.7841473834241464
Ni 9.333269486137876 3.7629738038251666 4.973063969811177 -0.6241424914910025 0.06408088964030899 0.7046840977904961
Ni 3.9858284062213034 3.5895502586826114 3.978092012478818 1.5765004425875366 0.6061931061014334 -0.09489761791084945
Ni 1.6461039879148762 2.447703898651672 2.688415263058288 -1.4689069743765735 2.3468464013522166 0.8645699476472722
Ni 1.871807190962143 8.416416483684504 8.13778185552853 -0.1917042799189537 0.7166032178255852 -0.9445510534576056
Ni 0.9592870115056351 6.211728642522886 6.14885016206606 0.8473839227862889 -0.2592592441507922 -1.3762241047288555
Ni 6.249230608376592 3.617980952559904 13.336657809900512 -1.5271149501758732 1.5744422745069273 -0.7936535231423686
Ni 7.753374721124011 1.6686807613602366 5.243833141411993 1.7448593629123303 -1.185421767798881 -0.09995806315289237
Ni 2.7768232897389757 7.449597735182193 11.768924449349333 -0.4734434503398169 -1.1568745522888075 0.32928915228568456
Ni 0.34973440978004167 8.245850757965412 11.780528118085828 -1.2452377115152489 0.19957236981312082 0.015363369829947734
Ni 8.457974709365061 6.781467210293469 0.2444643266236866 -0.4588845786890354 -0.9113483414533917 -0.7566913440957226
Ni 0.40299494506106437 7.3969493263841315 2.138362461729201 -0.8603561666762408 -0.24149626374041636 2.006115325778177
Ni 6.451047972307105 1.5108922540957261 9.861164968162788 -0.4888196756855711 -0.5456559679483248 -0.3051819748248357
Ni 3.6998067757942934 5.815385963577858 5.975834086660656 -2.3376953309805675 0.12543126772333238 0.4969546460878796
Ni 7.305065822533619 5.797446232616376 10.526120547859767 -0.6662368495578912 -0.037912201664741164 -0.6278374238440865
Ni 7.13155930844006 1.2514852193962598 7.615320839794365 1.7251449152025387 0.9597442162582761 -0.8059169138907539
Ni 4.017199888473064 1.1991225925405444 9.56748530355813 -0.6302989980107015 0.5804033987318391 1.2309038113910802
Ni 4.723772693993537 3.695252702261419 9.427135026040146 -0.3416438171962955 0.21876231247801034 -0.47533963892126524
Ni 6.944316823569209 1.8108157932020352 1.1037940334689083 -0.011609044993838072 0.3320500028602733 1.4326508202580166
Ni 6.4653370694244225 3.4766848290004773 5.512889465113198 -1.4244590284758436 0.7507294700853329 -0.5426943142168396
Ni 1.5164235174959775 8.161913835866594 0.40445980798489767 0.8426605491686908 0.5737498979710635 -1.103691283397609
P 2.4748439644022397 4.540660219128208 2.118797461205278 0.296856742788592 -0.8226853915983444 -0.7452458212629424
P 1.0164894938365705 1.2519000641512785 8.368559070868294 -0.7144843717103695 0.3814650629582914 -1.9705425708798898
P 7.657517926397651 4.573644986538374 1.189621725773379 0.332509458995195 -0.058060137367525806 -0.09879078231766857
P 6.23878573932245 0.05511350852010695 5.78854366417367 1.362222134022809 0.2491486380793516 0.5684871069102274
P 5.217447171238326 2.2583687524610596 7.888667580139698 -0.07418995304985287 -0.35885529597857546 0.7404365727997569
P 4.206940660646361 6.071040957937487 9.36268105739148 -1.2847244567559617 -1.3255911130633362 0.37210496189963016
P 4.871512739414257 1.8792467402354813 13.636166504251802 -0.07648363418003602 -0.48793007399176613 -1.070608641911027
P 7.157639215372246 8.08375708402104 1.8520891588174793 0.6752416241596628 0.23296071546557942 -0.13554290223603754
