# total energy = -340857.1030033428 ev
CRYSTAL
PRIMVEC
9.46824991256725 0.00000000000000 0.00000000000000
0.00000000000000 9.46824991256725 0.00000000000000
0.00000000000000 0.00000000000000 13.85774081240668
PRIMCOORD
 96 1
Ni 8.522778737925686 3.55357615626026 7.776673082744749 -0.4398051934600813 -0.01970056375272091 0.6856962438340836
Ni 5.891571067908731 9.155106329467952 5.38820861260986 0.6882904869238211 -0.45166800633593823 -0.5038428885672805
Ni 8.758339323544696 6.435569357499962 2.0388341987847953 -0.04377354554152461 -0.15102377148045604 -1.6110480986554192
Ni 1.046970653000255 1.77154740189153 10.256003398939653 1.5670495815872818 1.1092510368735735 1.7464231078550245
Ni 5.901503261900223 3.6800151634694025 4.67650205560861 0.5527642968583318 -0.753454839436296 1.5533720841001892
Ni 3.6243418549184243 1.8880542151091806 4.50613510366779 1.1031264120330744 1.7644306001760386 0.11336610902868219
Ni 5.200625542142128 3.5250388515030067 13.654987654173508 0.287755294707956 1.0356308402842616 2.314181307019027
Ni 4.3666999768469 1.5262629237756054 1.0053633762831773 -0.6209759208375628 0.10096619270243258 0.34036032249818154
Ni 6.9953417511806375 1.9854825050733922 12.83764478149668 -0.8385390708011494 -0.191230939826961 1.4619981630718821
Ni 9.369316011892666 0.5130427938469178 9.032613688756095 -3.1262475283406284 -0.7648311995940377 0.02711228283575976
Ni 0.9972812782935319 4.164675931855026 0.9883546124258682 0.9866379553253266 1.2592646219219603 -1.9531511148763203
Ni 2.1855750271155383 5.86526827009332 4.706767315945889 -0.907433836890334 0.13187548068677932 0.8052962495876196
Ni 3.7589993029136646 8.896954499936928 4.613684952618565 0.38472547887711805 0.32933928879732954 -0.6371270766761287
Ni 9.42994121506476 0.8024294324899854 3.2270796595330586 0.7536260749068376 -0.2637712730885328 -0.0578891590073003
Ni 8.581103156407663 7.7292163213299165 13.718691932165463 0.2789397532988551 -0.5822864746871649 -0.0712943766696127
Ni 5.1396500137291525 1.7372818060333688 9.6414259352104 1.2756284079919644 0.07921800239206356 -0.663027084371342
Ni 8.383074712811794 3.5779663676254496 10.833150030918125 -0.758885523533564 1.1201602275869096 -1.957683712639351
Ni 5.978688433891307 9.367999925176921 1.5655646816776894 0.29069792227604774 -0.18250281592534376 -0.04989045707253988
Ni 7.175617226488567 5.056509312643074 3.0280826139874004 -0.6467769410610668 0.34911441454172776 0.5307798221674408
Ni 3.439171294487901 9.379077777388595 9.647995006889424 -1.7650278674404054 0.4593244944399315 1.0137972893489378
Ni 0.8957238846117894 9.211991573987385 12.802598055033847 -1.2776007012269868 1.9586463336629367 -2.340689380611885
Ni 9.10828583443656 1.627393299393462 6.773012097767262 1.6968221569984456 -0.8072425746807129 -1.2818561340692312
Ni 7.149513261917981 0.5386941760792834 7.27574302080757 -1.76959543220643 0.7044547553885092 0.36793308991012763
Ni 8.152503894812915 0.5088256354066787 0.4967081693720627 0.6410377245844444 1.63206892388146 1.5420957398554216
P 1.533411452339549 8.304298874862111 10.40034497278284 0.036993546505213706 0.503681680399068 0.28844177925201936
P 3.8769074170948428 4.187948889749295 5.178374208396269 -1.4322289022292496 -1.547087279532742 -0.34205519370210125
P 6.701485151828911 7.1187793232179 4.351857548533207 0.0644074197417923 -0.4505971418692627 0.46522389064350195
P 0.14413043187368424 8.793116204889552 1.6193462339279046 0.7755105336847548 -1.1175302461632302 -0.6708527510633479
P 3.666040026833137 9.033761240626228 0.18016753726073825 0.5511925814958377 0.2873230922665439 -0.8572081079655625
P 4.99577995872369 0.8157967074920722 3.238692467855809 0.27117219353829425 -0.11225539246300667 0.3893843178053681
P 8.925188820702067 8.821075946411836 7.209392367009494 0.9244118595055691 -1.6673380314963995 0.03825801503993411
P 7.223867427232748 9.096289561998788 12.701561415088552 -0.5316331713066714 -0.0774483120861505 -1.4438724000054488
Ni 3.3489483425861546 2.2956718352500234 10.936709012597769 -0.4351463545318312 -0.46019198464654937 -0.8438841371631467
Ni 2.882163629735267 4.972459659580654 6.988278436864477 -0.6849963895535816 0.17370398668679116 -0.21072992909183708
Ni 3.4840886713188266 6.213908162519189 13.494529225599797 2.159387012752546 -1.1501066374373548 -1.4366992792957771
Ni 1.6893629940305626 2.7436526040903253 2.849968740098211 0.9069453272896897 0.04072396008192341 0.29754734109771336
Ni 4.789116471352569 9.321738056880989 7.789117203395863 1.3213719327756663 -1.4499859691023542 -1.014545480368872
Ni 1.8737003484827721 7.760073347276794 0.08871844701590466 -0.2161531569899374 -0.8206061404718126 2.1141415106511845
Ni 8.293921673132202 8.884390132513944 5.145628266623555 0.24036240724628927 0.785784404806937 0.8115676844186281
Ni 3.5261182319749134 8.033232352667223 11.874573236387763 -0.9441358202970579 0.34061280482861983 -0.169904667545359
Ni 3.752286313838385 5.104816322885777 3.0502269565110445 -0.7765063219391207 0.2650059168265823 -1.0581747870230485
Ni 7.140281718408253 5.406474760034444 12.297843767021204 0.5743690196123011 0.5018052893119616 -0.16841188504991642
Ni 1.1728510334739375 7.451200103815908 3.1019718882392673 1.0677860848605676 -0.206748832956902 -3.1379270215610866
Ni 3.167830193050158 8.904879424980663 2.298763218794563 0.3931023900869037 -0.05023472778583607 -0.5779577654048239
Ni 7.6618875973322975 4.572123123500305 0.679840215630643 -1.1873665502300779 -0.12698138581927165 -0.44444269223209265
Ni 1.6293437588426967 4.77409982724341 9.554870983263186 -1.7248584943103715 0.9467578313009372 0.9522268248353085
Ni 6.276587975887807 3.976030523764943 8.993410400651449 0.11359570854098501 -0.5909714040556726 -0.15364886780812892
Ni 6.176877837732986 6.852020854660884 6.749911462018509 -1.2671733352460757 0.6021595594620082 -0.8745460850233777
Ni 5.142253782411383 3.3853253581393616 2.7693589021712617 0.2247290715844065 -2.2963049409592386 -3.4465259924872704
Ni 1.5384390929586933 8.943869677465857 7.941552237128401 1.7404026126925576 -0.38722381981893955 -0.26792900401064823
Ni 7.951795936536786 5.760596769067629 7.937020732796344 1.2277051019481244 1.7418408878009808 2.5709609792810757
Ni 3.800830030324926 6.742236498768267 8.658787305160761 -0.18639880854564028 0.6102281954027555 -0.416254916943967
Ni 9.067752257241535 2.0835356995213394 12.263767536158113 2.8570985358799503 -1.3760798658415074 0.9286176700568007
Ni 1.5983825821485305 8.454673617448274 4.997710534848443 -1.4051513292861673 0.20132560505880165 2.2448201428163856
Ni 7.24021909455716 1.5042492430985603 3.438340928984513 -1.8674300212584163 0.06622210435302789 -0.0039638697437544635
Ni 5.9172963024891745 7.427330646187165 0.07191703782819879 -0.07378346164005357 0.7940013934000907 -1.2414152524453652
P 5.368279840528551 2.598343375122322 11.77470024433718 -1.694571927511688 0.04033598061488537 -2.023825855684063
P 1.7243387086202415 1.0160568175548566 4.383244796466284 -0.06717212697112303 0.16134546512143824 -0.4834416992031093
P 4.969884295647684 5.148758469992085 7.67107748054311 0.9208115437488205 0.13262675703050705 0.327962463054461
P 6.948246676906393 2.481296871668718 1.4031794642791269 -1.520192254914111 -0.6703321026731875 -1.0963453845554991
P 9.22121364924736 5.6755150767820695 13.607885952124436 0.5689522194721041 -0.1279103253914442 -0.03131320829098478
P 2.854175483463721 3.0754106072055842 0.7039094533291874 0.22436757447992972 -0.23917738579925257 0.23272083154063145
P 0.020197670374310608 5.230100203624984 6.439386955800601 -2.6085844460608048 -6.08051088089905 -2.459171984931526
P 2.773837384304699 6.318238806553752 1.5302547378717095 -1.1583454804073792 0.11759814483215876 2.7454548088590136
Ni 3.612392923729422 3.9889830894278235 9.00597950219931 1.4189864353970465 -1.4426364707158186 0.24095710340749468
Ni 7.254241572442194 0.6297541212592452 10.637797314702615 -0.0006954834051278345 -0.22841371952484532 0.564927157473111
Ni 7.246174623652154 7.891824042597689 8.553843118542165 -0.7683099021712574 1.4356986059454049 -1.371443909731393
Ni 0.6261987934767806 4.9546972230429605 3.121150774940094 0.2953840148978074 -0.2994067629039553 1.2970287280446113
Ni 7.912550041308248 8.37563266850549 2.9601384537557984 -1.2127333111296403 0.45855522037407476 -0.5995172367431546
Ni 9.274245316117094 6.768766534577764 4.729827238220703 -1.5512085007899672 -1.440107533646378 0.5832023016332148
Ni 1.3063249502499814 1.1616027527666992 1.182037129384849 -0.006627018398214393 -0.504735575584879 -1.0211691563329768
Ni 5.1018338242134025 0.2920955048975634 12.435243220145077 0.1907092629955361 0.6565373628819403 -0.054703047969834814
Ni 8.36350384057117 7.811069340449509 10.333204666955314 1.7882215319480492 -0.38088270809226016 2.5966221314926052
Ni 9.075970698027632 2.927469204806089 4.2176176503521 -2.2708013973714958 0.06761692781802549 1.205356559049595
Ni 1.9241093101707665 6.205907491477425 11.612953186972009 -1.3534816688260174 0.2924228753869545 -0.4959305756987395
Ni 8.845589245023824 3.062675811287035 1.964375882722739 0.123517081419755 -1.4208304305843207 0.7367712081330279
Ni 6.460357235354802 6.056252335872534 9.973096830427925 0.061529841083681126 0.38493348112286613 0.5648027160801047
Ni 0.8827315522999437 6.745114846693352 6.946414570579077 3.2550687955821167 5.545446829533959 1.7267325714046324
Ni 3.7371465824824304 4.3429346699654445 11.946175928324143 -0.2565978952685452 1.0059590242514418 -0.711876244663561
Ni 5.028549571120789 2.9451653635955064 6.96502536229469 -0.028535902656163757 -0.24010786803332196 -0.2376838319728616
Ni 5.29553527767189 7.162958176568047 2.5561291835960405 -0.006766629299872217 -0.3979121527707212 0.16987921362406228
Ni 2.5483794211727453 1.4979055157636703 12.93891718086084 0.35817909584715735 -0.622369972971612 0.8249873002586436
Ni 1.1434426497393564 2.9624638558952747 8.220536109767224 1.8427654286322004 -0.5641144317638285 -0.15635032589969203
Ni 1.4298288000355184 3.417735177045824 5.229855922781343 1.6437661577137304 1.9432402835205111 1.095227726011288
Ni 7.022174770982248 4.6398968552363415 6.369904204984045 -0.7950126082734243 -0.3340251243087731 -0.8329026984509785
Ni 2.05527297400694 1.5786223449128347 6.407666425476199 0.1670944517900735 -0.9146056720484249 1.3139445299633437
Ni 5.388257847508579 8.239772752791549 10.273671152979809 0.7057364503144103 -0.31879493762258 0.11953598528481993
Ni 4.5366834646727 6.187728451950575 4.905085487984216 1.6178396676559559 1.8101656403193085 0.9138029736414714
P 7.333973703616987 2.462417181660104 5.9255279988249265 -0.5617047938810713 -0.014726250466581088 -1.1727963657253866
P 5.130617303464248 6.460177338609485 11.861615936600005 0.1763599362523995 -0.2952857987570463 -0.6373265942814443
P 7.34648126154145 2.0446306612839296 8.967066889362096 0.5427385371912137 -0.1609369168291099 0.5486818992588421
P 1.5205914421732183 3.16695911407283 11.94977954418035 -0.09101319525477874 0.8276509631337359 -0.6034368835125349
P 9.134635973500737 5.632292516657032 10.495132567890781 -0.2176407972790574 0.2265578972630292 -0.16519826320862518
P 3.7694427823918497 7.7425570852326935 6.394570889242039 -0.13136563092989634 -0.14414889873749367 0.9800448754888411
P 5.676035830518516 5.546074634401045 0.9797214623005651 -0.059039213451343484 -1.032426988634983 0.8760075000602526
P 3.530416817363033 1.5368957682488618 8.009732156778867 -0.5716485353573445 0.928190352711395 0.7946289996817606
