# total energy = -340863.8593526734 ev
CRYSTAL
PRIMVEC
9.36212143632405 0.00000000000000 0.00000000000000

0.00000000000000 9.36212143632405 0.00000000000000

0.00000000000000 0.00000000000000 13.70241105979959

PRIMCOORD
 96 1
Ni 1.4091864751553498 3.0874590363385708 13.423744465543125 1.3017155919973196 -1.8581640225754579 -1.769887509525552
Ni 2.037983979921055 4.54468255510289 11.656325786791282 -0.8741660759761396 1.0314422561242107 -0.6540991857540929
Ni 3.088554404512854 6.4710326024584885 5.108861763494892 1.7868403353298066 1.5505857796043037 -0.061554780784345606
Ni 5.992103933025542 7.993987573800975 7.077281438439902 1.5299871295173457 -0.43592385612780404 0.2346422169330604
Ni 0.82184350661965 6.521288468779469 4.719644683747892 -0.9977682609105334 -0.135371923875812 -0.36237153666195016
Ni 2.1961195682272536 0.4213038775565931 12.970715168053243 -0.3361177451717437 2.0703098581782147 -2.523560635620241
Ni 9.061372367974085 5.217472667141748 13.179074791468517 0.5032505063989204 -0.5515296531202823 0.8049226682982847
Ni 5.277203000064224 6.986810580728875 11.54276044863305 -0.31796087175705884 1.1372081842081319 -0.5278955586411102
Ni 0.15488880469216806 1.1514098314739294 7.953934547106785 0.4814645208720806 -0.6271648232570941 0.9652011256077894
Ni 0.5517743978712686 6.817580878862624 1.8138426288870608 1.4474230934711847 0.9405578731378124 -0.26457140039232496
Ni 6.3022054718015905 3.005540476295989 12.249284155591386 0.3323580210189953 0.8996410803187926 0.28427453524820717
Ni 5.086056572591152 5.92972411981826 -0.10370047110487476 -0.062135335878163965 0.9577644668240859 1.7151569507518911
Ni 6.120655218504935 5.13381275256569 10.274794081294193 -1.042853583284946 0.653491634077081 -0.04220388706155957
Ni 1.5042681775316304 6.673123349553251 12.546584866122153 -0.04687481017466766 1.0812740920446733 0.7173151562909453
Ni 8.316896494307109 4.934259140301963 9.491673243953642 0.2584287778296968 0.11503655475256963 -0.553344337731518
Ni 4.178108701563774 5.919182371405924 8.55219562132496 -0.4625301458614228 -0.5516245268269339 -0.08023281680982312
Ni 4.036768758596591 4.197366584764641 12.819907311969368 -0.030516937641934538 -1.0857989764982205 -2.1960951668068565
Ni 8.114740212364314 5.542207201271688 1.9924672193250526 0.35854650648890507 -4.201667732707686 -1.7370563219281439
Ni 7.979317129962493 7.519037805855812 5.349380273052599 0.21042422492596022 -0.8218801220882297 0.5491922632363574
Ni 9.282627377058237 3.602347613099923 11.054666262596482 0.18597174831055066 -0.30621838650915006 1.6693177809305895
Ni 2.374926720027626 7.00661146695631 7.24064109034653 -0.1721790654018325 1.5811083736731932 -0.19770677735929176
Ni 8.205337458710835 1.383141054122383 12.259765986428377 -0.08560282287248483 -0.9691171728327439 -1.5306759280542541
Ni 1.2378409339097134 3.624367322039369 5.482869141225301 0.5414105624084096 1.201401688166905 1.0307992232235732
Ni 4.676885067829894 8.639842863297833 9.186301448781425 -0.6177278462139104 -0.23142756665050465 -0.3171995681110021
P 3.7214712425835574 8.772532206324518 11.117177145499832 0.44083363472459564 0.037080192681749044 1.3301802750959155
P 8.167355333214521 8.783495250188503 7.799508231199315 -1.124915739994024 -0.41999484360237344 0.41524627317379453
P 5.32171988612165 7.717730102973949 1.7476056217669167 0.7780438416295697 0.37475474081765137 -1.9596349228284506
P 3.987776778630554 2.0362800738721694 13.474265279892586 -1.2836667049154087 -0.5504145656792327 -1.3113495155426578
P 7.247405222875761 8.732949158111943 11.46213479752097 -1.5725190893422853 -0.5754008033109251 0.9177115646672581
P 6.870149189107092 4.639108908998829 13.517126942931094 0.36183906119724785 0.4637030831236014 0.5521150933101072
P 6.13873347444119 5.6791094988148485 8.008250765369533 0.8393793073142576 2.73625360197572 0.6561203299491797
P 8.22530686311893 2.6179392986590866 5.94041940701742 0.32900273139351727 -0.008447359436404806 0.11357642526727538
Ni 2.886379398327764 2.447192933166904 11.315587642771423 1.338794756237804 -1.2585197733361357 1.1512538636679204
Ni 5.859330330908528 1.8347042434405334 0.6784214279092138 1.359655144626581 -0.3023966987702147 0.8098969815844245
Ni 0.7631617312657188 2.007098342254715 4.114984599725248 -0.4597646673011436 -3.900465825576521 0.09429392288857953
Ni 2.1165040899870124 2.326290500665202 2.144797356307548 0.8322815199272118 0.8603070586058604 0.6511619575026398
Ni 9.415017132208195 3.5652642512337898 7.556961886201011 -0.4698657602908875 0.1581426419134244 0.7350465121324373
Ni 4.451257948169756 4.748795520365559 4.146678188446637 0.925111456675755 0.39430386659417255 1.3137972057522018
Ni 6.679555126781737 9.047216840798729 4.130276688407939 -0.6078005597978694 0.5325762519462311 1.000838929416057
Ni 3.428577282477026 4.526332797653351 6.271346984286578 1.5168814453733233 1.279762484764996 0.10488018304485808
Ni 9.150780624934846 6.9135426206267905 8.399659517677215 -0.01600331740679179 0.7202585551899854 -0.16874150047519326
Ni 5.869048212659865 1.3654466451531855 8.728887869958061 0.9172623929449816 -0.5116145620928995 -0.369403503808067
Ni 8.829219849873985 8.930227774936775 10.07456077903514 -0.0527927183209994 0.5671637601131136 -0.7059076857849521
Ni 8.360739307641898 2.9320384631652114 0.18233292662460493 -0.510571979760998 1.419119361430485 0.6056207785377311
Ni 7.974579896661745 6.458927379814482 11.473507902291225 -0.36264150249388516 0.06602875739529919 -0.5553109745395857
Ni 4.186590783323612 5.919959427461185 2.281191290672388 0.4274631269549606 0.2452829844763582 -1.5275039580841756
Ni 2.9383204464553345 6.825220369719167 10.254432404010009 -0.754936566188145 1.3227562147177025 1.3616896585581066
Ni 7.347860782790835 9.14957291130679 0.08342492533524985 -0.09426281254032798 1.159053047997365 2.083006222698961
Ni 9.011378641045242 8.166578277159259 12.692022609515693 1.9770531183048985 0.3168319003589382 0.18161501400375174
Ni 0.11624290480648002 3.951301954639023 3.499170484567206 -1.1756945132087882 2.1548821829036564 -1.6231929615480694
Ni 7.1811963021190595 7.140442988763019 2.969531885937615 -0.9226444831925014 1.5430673597400715 0.585783689207146
Ni 5.266099524383025 9.086022832956042 13.064467449226546 -0.20594047812299368 0.1765255152959863 -0.7673236269985882
Ni 5.424506614202507 1.4960950457696678 3.4061727903584087 -1.2773297069537872 0.22818771955696832 -0.20138499754182737
Ni 6.042294264498489 3.143079398077196 5.41493197290473 0.04957935359002429 -0.14275304683123155 0.31027121642228495
Ni 8.222638658591828 2.0412513602016107 9.687206761396537 -0.8293198661957265 0.6620796328564081 0.02407323889911983
Ni 4.127300470095078 3.6612259929979567 1.2544090797048397 -0.6841782645276604 -0.2767345181174202 0.5323697923623799
P 2.2780381282698348 6.105394961034146 3.202747004787983 -0.27060757928407586 0.4636619454730208 -1.2949458773736537
P 7.920551095518232 1.4095515978801112 1.5946866073642298 -1.2898080419264562 -0.7338746033115233 0.9893093315099026
P 2.4002044471264794 9.148449456769063 8.090903315710095 0.19747614940572442 -0.5892258821194755 -2.215506995674565
P 0.6175358092371084 5.588334372166521 6.791352896467277 1.1767970022443475 1.3448628168087549 0.17946377198870384
P 1.7285658759887914 8.49673347943373 0.8207649902634323 -0.384213572237706 -2.2566125074656234 0.28428430544022004
P 5.303688440791134 7.410877220236162 4.7695073409806685 0.026389802847438422 1.0864214405735677 0.6293569458124064
P 7.048787822726806 5.05328914857412 3.867546546427259 0.06767169231536088 0.3569552507423852 0.36382678105123795
P 9.017361036458638 8.831719536220428 3.729796040708113 -0.962555460454826 -0.5128363503151426 1.383976752091081
Ni 2.5200864084230794 5.3659839949080865 0.6332407674624145 -0.9782091078316831 -0.061025647753752965 0.21340541904147114
Ni 2.0132492558487693 1.3633869785006865 6.509193544468725 0.3510491696705954 0.8624734701295598 0.7071158471604403
Ni 1.8079098527157487 0.10690138032528144 10.025669909977498 -0.21241425877279543 -0.03351458681767776 2.2013592434192732
Ni 1.6241314145859351 8.977899695820984 2.960323303576714 0.112475993114245 -0.46782353304987817 0.3388793670772809
Ni 3.3738837707320246 7.788498376729591 13.276129092770624 0.5634266616681844 -1.676192653673552 -0.29717221714648173
Ni 3.6167278311828266 9.661521782027757 1.2124190301451847 0.8338537495103381 0.18860378661675906 1.2647847804092411
Ni 3.976869907493456 8.899061273636002 6.5029583717843416 -1.5570315352296475 -0.3990087282690096 -0.049147151148612137
Ni 1.7336401456508577 3.0806153257795845 9.429861711500026 -1.5082865046154605 0.31078312306169703 -0.1951906958056574
Ni 0.6466847734305456 0.903228425756811 1.2491382054986715 -1.9504769104782664 0.6564921114663017 -1.296937968103018
Ni 2.9227044283809316 1.0790593592443218 4.370657574784775 2.013316214401991 0.45640963478598173 -0.7417218672700839
Ni 6.978862139874458 7.323004351143628 9.435973304185259 -0.40210562202677846 0.4097803649632169 -0.7465768813695399
Ni 6.064136093136128 3.8653015097760344 2.4286428263248045 0.8016401408922711 -0.6801169499740932 -0.093690999197258
Ni 5.232676751885651 1.300276919843882 11.10827002343989 -0.8567779624066794 -1.1726528981689868 -0.5132279293266064
Ni 8.384069713542026 5.069429445432796 5.576634529368211 -1.2403083925344318 -1.6472294336719824 0.13768694516223384
Ni 8.66391287676863 0.3495862847165715 5.901436470770414 -0.17583465987654878 1.1045364050067235 -1.116390219021516
Ni 5.8963668821689215 5.781353223869138 5.869975998865605 0.34274039269458395 -1.4606958993206907 0.14193183648151686
Ni 7.277420183275362 6.791544819950805 0.14216942690087087 0.16676252237195152 0.604752774110481 0.3076070393265606
Ni 1.5106625062755257 8.784965103208696 5.548955418194966 -0.04178891101132803 -1.2841750120103947 -0.861384093720123
Ni 3.9037049307239964 8.113270359344122 3.2838379533211053 -0.5795081406110794 0.9220521010241409 0.6502638711684027
Ni 7.629501473277802 1.819509520817778 3.931879298105956 1.488726580205662 0.524244077931452 -0.8102067995153596
Ni 3.4137944931847706 1.5437669666538762 9.04223431992391 0.5907212357180794 -0.8353221065257485 -0.5619747597130064
Ni 4.6131758334196356 3.176464722089978 8.047384431767016 0.060463347492379735 1.437546200677105 -0.14380359958293298
Ni 6.9209480584546395 3.8700949158036693 7.766663101576756 0.8115581713369313 -2.4707661175270283 -0.604488721815817
Ni 1.661458191601909 5.550286711822173 8.753880988574023 -0.38927941679638767 -2.361403473230785 1.1708788369876997
P 2.3511937429181464 3.2999042894227135 7.402864180745825 -0.20709824587652076 -1.3621383160597509 1.7594843119143566
P 3.907402968577347 3.018404030752962 3.3004585269946585 -1.040710054579382 -1.8832286788535695 -0.22262513786752625
P 5.057108894002391 1.0924003818798278 5.690885174794456 0.5680795870591636 1.1496548946119167 -1.31561703256976
P 0.6657600952690323 6.011698852587728 10.753172258003653 -1.1010936978737618 -0.5630060291909981 -1.2998240314015614
P 3.8827618657165393 4.942956550848199 10.725712220465264 1.3459503934459789 0.3524468213490704 -0.3706738858800584
P 0.8326483306362378 1.5854658542458369 11.474371089861044 -0.04845038219190365 0.20848818424551194 -0.3179477591309363
P 0.7022040242607759 3.991193952849473 1.337355600649441 -0.7512066668320675 1.6480758408326779 2.2141018877969225
P 6.158375204609113 3.106670108933699 10.085180233053002 0.8489463821774025 -2.5527040899534166 -1.3618248985843902
