# total energy = -340884.7584160396 ev
CRYSTAL
PRIMVEC
9.12631077521599 0.00000000000000 0.00000000000000

0.00000000000000 9.12631077521599 0.00000000000000

0.00000000000000 0.00000000000000 13.35727832116295

PRIMCOORD
 96 1
Ni 6.591962533696157 1.6180968593578235 11.13037988538429 0.756875949302703 0.5845423606008772 1.3751738090874703
Ni 4.717482627034713 0.570924933351808 5.546103760317767 0.06650004060476289 0.1866078392326528 0.6398727577420658
Ni 2.8016893381897368 2.0269383817455147 4.648971344029144 0.9282967963822721 0.27750250663169623 0.48536925524312535
Ni 3.393326435147359 4.598407692781757 4.453597149552485 -0.27726853624401926 0.4519156035703701 0.07110745746978722
Ni 4.393304892480765 2.91309815287837 1.40681660351704 2.1902302233856474 -0.3596348544570774 1.568167497241809
Ni 5.352324627966355 4.860710839535406 2.3431726341649006 0.9342506999728619 -0.36291301098771694 0.547455740161225
Ni 5.9046580846428345 3.6424889617699923 12.755915517937389 0.2561708350334556 -0.9752569671818945 -0.2076942275893068
Ni 5.972834713793164 8.532645703024588 12.580653292652254 0.39272186681903337 -0.1850518075994426 -0.2405084459058503
Ni 2.2273123775702928 6.659338903627436 13.575971149420162 -0.4196989096285094 0.6446334123555028 -1.181462526040817
Ni 0.3551050252138597 0.4054631553436271 0.59703884668622 0.8999904932384112 -0.9471260132736333 0.1335235578131636
Ni 8.105489157146332 -0.7233461236313544 6.923572675747047 -0.28149414428959263 1.1796601827247555 0.6406320045055934
Ni 0.16663397588699616 2.6659635558676515 1.0891628003693137 -0.2554604392299923 1.2058705225715363 1.2199714807492925
Ni 7.431589050012121 0.7611156306141561 4.893924325282471 -0.4476444869988419 -0.5297974036495134 0.38037003012189974
Ni 0.7881880362404775 7.633472625727384 2.4290077104919825 0.03049791147854103 0.9060737233180137 -0.5674599511972936
Ni 7.651451176591756 4.117706530065147 3.48290181393803 0.5763009465276914 0.19349042528509902 0.1500963745701802
Ni 8.30128894402585 3.812280324030337 12.404471678650689 -1.352135182100452 0.33219886973331175 0.39949543809744104
Ni 8.59453847853441 7.680851609037137 9.324469462398891 -1.1306870952601624 -1.0719957520665409 -0.2927185522505023
Ni 7.019282768960128 1.5780748045504869 0.24183742661188354 0.7172863599355388 -0.43600098922264263 0.29395808108455823
Ni 2.03979709237891 6.731034854570639 8.830863210389602 0.03743089115294844 0.23655434635410874 2.502271130113845
Ni -0.0863970765513701 5.3138849038875975 1.3982183638396175 0.08367423839120428 -0.5626185639445923 -0.3760575187894749
Ni 6.589270752686621 2.149905485836585 6.627762311737521 0.5779251123946757 0.4566114663841426 0.41171769119524576
Ni 3.9405491454476236 4.808812210408965 0.1889912178192471 -0.5282773674605612 0.9804508526780082 0.3471554910431441
Ni 6.024642404371986 5.637598851848686 4.801222479224642 0.4672375786394211 3.3051615984734495 -0.488609616557294
Ni 5.324397399992409 2.541896095350385 9.447251961238297 0.08885603970245988 2.0209117673610617 -0.9890545351866191
P 0.23244165587183813 5.7367491503182135 12.400438554063767 1.0001334187086002 0.5937834195831709 -0.24663821295267196
P 4.509724421143233 6.695932575189517 12.5558970918338 -0.5305561361924089 0.08291036364198624 -1.066425199957299
P 2.467981243845266 8.645791443972755 1.1889596719124154 -0.3059772170326215 0.3198560318972427 0.16813497723944593
P 6.458928532383609 7.848560478556995 5.578712504723163 0.4329593741828414 -0.33742232291578017 1.116264234966613
P 4.918838759173782 1.6632842236699468 12.848392745782599 -0.04106360280952928 -1.1435636941125145 -0.2645526313392476
P 4.348717722582931 6.27170425054461 8.157894313983014 -0.6166839783304283 -0.038399168603488715 -1.3309492920514563
P 4.877825474197393 1.8829553792995801 3.5109854562138803 -1.813206484028161 -0.8794448078765758 0.6694782393133244
P 0.1175617168205684 5.881514224273675 3.6431382629999955 0.12692096489498142 -2.1279290513535805 -1.5492215522669255
Ni 0.9720330416499378 0.35295160040623036 4.798226963466057 -1.1672841776579057 0.28801780434072327 -0.3615392705686419
Ni 1.7502305690489384 6.748167676942151 4.661975556338731 2.27533708045832 -0.40871361426159936 -0.4877770933536696
Ni 6.304314813720958 5.682749840741762 9.111273131359766 -1.300812877677392 -0.542625151541801 0.9774604025911167
Ni 8.77130482739717 2.4201020985236057 9.812060129483156 0.3006519481649661 -0.8588690406077532 0.6695276044940212
Ni 2.4343157935165314 5.6519125792439935 6.886997191894488 2.3241013943462168 -0.8051967478952777 -0.8353568164184259
Ni 0.8664688474168083 0.539163736210226 9.044125926568489 -0.4249236483625585 -0.657284782570926 -0.027134394322946818
Ni 1.7371263243369703 1.0989195971434085 11.408194420205398 -0.587353347687111 1.3976840743748447 0.8429086606237549
Ni 4.626771425784275 7.102964420479581 1.4267012263395171 -0.08365341245559788 1.5497542848419439 -0.7020134929368684
Ni 5.852995895740204 7.942499998247925 7.991362189269352 -0.7657704235788554 0.6003672434482757 -0.05912020320092398
Ni 5.544786970148237 3.5553516454409992 4.694730711805795 -0.8322529806821215 -3.350163102884805 -0.39106993303790716
Ni 1.2114105805487143 7.597370022322447 6.785176937666853 -0.30150066931850655 1.5808669470863486 -0.03544599951243573
Ni 5.266078509404032 4.537924464760036 7.0694608407656085 -0.6985954683942549 0.14107437357722802 0.2955056280773362
Ni 1.072574699898043 7.4497131025526855 11.13099190180977 0.38162267158207824 -0.5073768698624681 0.6709136862082703
Ni 4.875151880897381 0.3135060959908015 10.088237770447108 0.0024471759889119144 -0.563713339670668 0.28576011865479817
Ni 8.682039549053881 7.574044284858049 4.714628975410414 -2.2155450480013523 0.7468121373087977 0.48458763988209447
Ni 7.0055692359791095 6.147282129691626 7.066412580649404 2.2767596718374596 -0.0966894197039496 -1.8041438596052604
Ni 2.404151477271148 5.8389822655520405 2.4384307627963135 0.29043798374644175 -1.2698040880007033 0.5264680821659643
Ni 2.5416778428360987 5.454412241523991 11.218796707078289 -0.252616542023294 0.18493019441991376 0.025192954325859836
Ni 1.045647795947913 3.7235606769727654 3.561137155840551 0.6403818361680004 0.6504662169871959 -0.5925030102088505
Ni 1.6732783700533282 1.3966705897591338 2.6481796134951847 -0.5049708315241368 -0.2659153160147291 -0.7243566365187589
Ni 1.2011436185224742 3.995712468433605 8.01678406025638 -0.04340562067914461 -1.0214496636878732 0.6592565615853163
Ni 3.8814390894949566 2.6952639559106504 7.106315505959358 0.6626748432382458 -0.885837598776797 0.3960326763598212
Ni 4.0447465333100325 6.904936639183385 5.620425107130746 1.2482081069974826 0.3805039845966028 0.27229165185471815
Ni 8.37898683911194 7.4801411405861655 -0.01641077030341268 0.9442481775052061 -0.6013229224933256 -0.7787933182010846
P 0.1486690658047664 5.962940599812164 8.038638412020294 -0.8612421688256199 -0.05973803929058099 -0.05734717046090124
P 8.805597753704479 1.4387478557426705 7.362448472257025 -0.4789160434186139 -0.46592451625495246 0.48414772413119844
P 1.8788449569471795 3.3343436931613595 10.138974204934973 0.8563871547261639 -0.715895136014967 0.6111671622772571
P 4.3357680734019155 6.4573280139455065 3.3798848084237227 -0.4517716217933381 -0.4091573866672373 1.8330055210319594
P 7.009652376767225 3.8072787039112654 10.336531833939977 -0.3747182311527611 0.002009831341177184 -0.0168864913426935
P 6.676799104770377 8.242433516006518 10.492348669587635 0.5757471309067503 -0.681084198983369 -1.0664406265762665
P 2.7626130442776424 8.594474821551078 5.303319663425166 0.290324598097029 1.039414732806726 1.8610940517380592
P 7.147851687584559 3.77585034185397 1.2103338681448996 0.4025468233292551 0.6963074436910267 0.6040727173243209
Ni 2.8676925360519605 1.6168055319816268 0.4789924274068397 -1.997817090325127 -0.8968997701282295 -1.0423010532155856
Ni 1.9735756420023993 1.0501128786360296 6.996004319540492 -0.479758079703935 0.71062643141686 -1.1383296994070846
Ni 7.16115599710129 0.7721673923063525 8.85371606740638 0.6459500742843972 0.01532968837853489 -0.013265863870970701
Ni 3.106160689474542 1.6474609163841558 9.290555749835159 -0.9235564534838095 1.4977462672057689 -0.26444978721279616
Ni 6.757361564106481 2.014070577257357 2.5948741650370697 0.5921775085486317 1.5425225429801952 0.30812357395166284
Ni 4.340060372849555 7.0999725422629 10.104981375834809 -0.4769077547393335 -0.06617762426833765 1.2177662455678577
Ni 7.303265665466263 5.84266527673063 11.115619649720172 0.7390839154266046 1.2973130920542495 1.857456712095788
Ni 7.844695590283167 3.885731388942597 8.190183864086265 -0.29855187110282777 0.4588784080414484 -0.8111997595562481
Ni 3.6362232958390095 8.886342090135821 12.315561970028593 -0.5427596202371362 -0.9306550122018037 -0.1156343362375686
Ni 9.33347783492608 4.611530125203249 10.406594528567934 0.009511539034861039 2.052850267940871 -0.7159637844693734
Ni 9.31547200249742 2.5982507133101813 5.591769461390369 0.028156922050190214 0.7907278648551415 1.10571679846807
Ni 3.5498862387290684 3.0148492938098146 11.764005128548783 -0.19651018594802933 -0.3724942269182488 -0.95097418337513
Ni 1.6606651934985055 4.047902100912428 12.942079456311145 -0.9569337433926746 -0.013695238098905445 -0.4943694018592067
Ni 3.3675180753329483 8.65342118811803 8.063674703565416 1.1698069440797594 -0.9718880507096617 -0.5595124142154428
Ni 5.6115722395199885 8.370902402228568 3.716355615844873 1.3297280180498452 -1.1009630858331685 -0.5534973183696146
Ni 3.4185436944022425 8.774633178240045 3.2367775441913635 -1.6940867603451533 -0.18856496295902364 -0.17251253748185127
Ni 3.5294432532242075 4.427970666833314 9.197521068693042 0.5557442054222622 -0.25601682595409453 -0.629455933284116
Ni 4.902578946859418 4.9631894888478065 11.286596850641475 0.6753606662360303 0.878561376830358 -1.851380681105037
Ni 7.896421436169131 9.12413729830602 2.599279228283758 1.8726347053878072 -0.08587073182189084 1.5209337610658258
Ni 5.054364476691104 0.5406714973297571 1.7594462814646972 0.16219624315750775 -0.044664175676594045 -1.9285682833306337
Ni 6.476161387157502 5.920272233269101 0.24483476114142183 0.09451786597392754 -0.12418351135916032 0.16573151000427586
Ni 8.504718475050645 9.06278106022715 11.447804523392016 -0.6660378461732078 0.08324692104579856 -0.523346248707531
Ni 0.2695545865408271 5.284157092670786 5.861478643462149 -1.0413304617722001 -1.0449343770733746 0.11120715370415042
Ni 7.331893120256878 6.531442930255389 2.8489437356892506 -0.7872332214383216 0.6704629718240969 -0.9885768242192522
P 8.770249940244785 1.8413691814731887 3.604460279926475 0.8559480103062163 1.085394284860634 -1.0935611369421425
P 2.434197573404626 3.7080738423131665 1.5640584462058955 -1.1758976303585296 -0.4667189871317897 1.354224974749945
P 5.2223552557085835 1.0256958786001973 7.829356076070711 -1.1827578478134728 -0.7677409170416649 0.4947553244437156
P 8.96309422432667 1.8208807266945182 12.339359678555137 0.28524435536064424 -0.16221706909311417 0.0683599766316371
P 6.860249436883169 8.16674536282282 1.226108068614976 -2.2675954888396883 -1.253333601149506 -0.3284291182782344
P 2.3202788548016944 3.630275914824695 6.1407845704642146 -1.5434134302255806 -0.0637481888912386 -1.6587775435208982
P 7.174014707734686 4.153263502184366 6.001271197633778 1.0900577517745742 0.41200308364614846 -0.3105424678058007
P 2.5468158707765993 8.758382459780442 10.11678701808677 1.4343793729133492 -1.777927349110893 0.06204534726751895
