# total energy = -381170.6562114545 ev
CRYSTAL
PRIMVEC
9.21485217075573 0.00000000000000 0.00000000000000
0.00000000000000 9.21485217075573 0.00000000000000
0.00000000000000 0.00000000000000 13.48686760342917
PRIMCOORD
 96 1
Ni 8.720180493783651 6.457381390254485 2.5677111905811993 0.8728033913006582 0.47532369808166525 0.28196182795463054
Ni 4.947601577905464 1.3632083734308957 4.606911905744447 1.4207486695037919 -0.15203678612600266 -1.3935638815588838
Ni 6.305336329136098 1.7240066960387348 0.625570513524618 0.34086811537253553 -1.2514973192717154 -0.1817368842935967
Ni 0.37509147983818647 7.319827051178925 11.275682005214437 0.5960267070913929 0.7316657685856625 -0.867342625296403
Ni 3.843625426255325 3.8824291688231756 4.174886461656565 0.5714536457377192 -1.3435962913915054 -0.2616020333513559
Ni 4.810429288220112 3.610609458952254 0.38799872329930923 -0.5200187269961947 1.181014639870121 1.4653243992316378
Ni 1.0806257162032307 0.7603644498599914 0.9634321475488342 1.35657367748778 -0.772559935696863 1.0837737185380754
Ni 2.136140960191455 4.553445490373471 5.3964330694156315 -0.7061953922286999 0.3587239126070338 0.8717608089687567
Ni 6.400525752248398 7.256041844326714 2.781666236131338 0.5472413101575737 0.18751029644226416 0.34052024511481355
Ni 4.73941963725173 4.644764675566392 9.509846330634204 -0.6824911066332245 -0.9047125813044289 0.7057742455308812
Ni 8.235516128051367 2.3600157941230444 6.015344930748483 -1.620603603554338 -0.3953647037585191 1.060581082471696
Ni 2.7101248881916513 1.5504357402068591 3.3822101325958696 -0.1941565981141882 0.03221386572838323 0.1997096667219335
Ni 6.719073977569704 5.29223704977381 0.8658837222761524 -1.8621389480628059 1.1667254769409583 0.019134663946921884
Ni 8.831569627044201 7.938014625129722 4.592547794152243 0.13211587883235956 -0.8078208157816862 0.18563390535515772
Ni 6.183654205980443 6.495245217899059 10.037547742029965 2.5641845797891905 -0.0357272781982804 1.276777176884427
Ni 4.533532194793056 4.228916825981508 6.304395492727602 -0.2870652106194669 0.04448445556562017 1.2658484457870651
Ni 8.728980677624142 3.3712721030475343 9.274379212648862 -0.16911276777168296 -1.1315607561143675 -0.042825579805958504
Ni 4.179405425170048 6.940912329167525 9.44978945297766 -1.3977136420611993 -0.14317290797746957 -1.8439473647554436
Ni 6.2227988980792865 3.7862261119700866 7.90513879697505 0.5581445873336388 -1.2827148825251005 0.5335630413395327
Ni 4.571423666994196 5.281750547982735 2.5251735899063696 0.6311688022101646 0.4463779615815925 -1.8565835654622154
Ni 1.0507603802587038 1.8676662416651386 8.19127562269201 -0.7934910294225753 1.449341136429504 -1.2396450479188197
Ni 1.7258312367721556 3.4852782543297582 0.46810343337822696 0.34481938671079976 -0.4707211663126474 1.8015902399454713
Ni 7.581574927607277 4.676841576036278 6.193506725940915 -0.2095634195875617 1.2429257755526208 0.7012383053337407
Ni 1.8818018249230541 7.309939514780136 8.673889683812245 0.2311113209616665 -0.05986659444864529 -0.5245819208868449
P 6.134824704230968 0.3579841067493206 2.831190537735863 -2.1622743616026696 -1.0349862647217272 -0.9975828843726047
Ni 8.754441314222328 1.9944073186725508 -0.006444867620981833 -0.06539780867951964 0.5293050373941272 -0.45526086589351916
P 3.4431018758607363 3.3170979870284434 2.1662468037781144 -0.81123549789019 -0.8046385613989626 -0.9105464143773867
Ni 2.4907929763892356 8.40617519059152 10.639897749523538 -1.01300153292052 -0.7829880730087225 2.0904480236889866
P 6.031894805279915 1.9941032285503142 6.413208153316109 0.2879548123132718 0.15021053155054132 0.6818277620176129
P 2.8777983386225716 5.4370668816282155 10.595229675022612 0.09283636450644657 0.9208606518192012 -1.3436006622668795
P 8.841715179304284 2.8840644381110865 1.9671267487670365 0.8560619101762612 0.15372985755770946 0.4313310945507991
Ni 7.251554211310674 1.5258320848622475 11.279296991728177 -0.7973386853034397 1.554005346808814 0.45915171630749313
Ni 8.0009889249893 5.406206341647277 8.591377132856342 -1.5910179194774212 0.28705004111081533 -0.703448168500866
Ni 5.142237685841379 7.100089685880193 0.8249218613256399 -0.7028421594857508 0.14247665324139333 -1.53124337052195
Ni 1.6596409534986174 3.1369015524726818 10.087165113641596 0.5725543350010656 1.1179732472379196 1.2652200681744468
Ni 1.5914326175956899 -0.03976669462160009 6.77943033792239 0.14813410863748683 -0.804627248545053 -0.5699343808797153
Ni 6.391274040650648 7.892060157263213 12.120310749431457 -1.5279528726961362 -1.7632684615471377 1.164419454515601
Ni 6.536315814105401 8.155162616963345 8.160202219625505 1.3365059602036273 1.40083830373311 2.5236678506220667
Ni 7.91908731873353 5.871252287069197 11.821765203756797 -0.0027271691231759484 -0.07501322028209662 1.1537164662758
Ni 6.370310251920689 8.571093400217931 4.978812282269584 -0.11245156763421278 0.905660289929679 -2.449091203656756
Ni 5.681923933994142 2.8821569637079656 2.628105331827861 -1.4123817855963354 -0.9540960168335632 -0.4817681681554283
Ni 3.358472673357023 8.732777196726007 4.96829260701063 -1.2087961808587633 -0.8542037739215999 -0.16832909552812303
Ni 3.2935632545377547 1.561650215320864 5.987643242097931 -1.733725457782698 1.5536495061312918 1.0831983056505798
Ni 5.029420250491535 9.174813656232008 10.408625232254625 0.26456188731062824 -0.8470036566287348 -0.32126705331215644
Ni 4.684277961752795 1.1309756685638894 8.02099068315073 0.3641756797502244 0.2170782399073681 -1.3748642482668516
Ni 3.9217765876701765 0.832591382802539 1.4272073648538912 0.7989109148865661 2.0566015074531867 0.5329344066165983
Ni 7.589610278716078 1.5361987935748647 3.590851894373834 0.6323042013661885 2.4131772633689663 0.9688135255493961
Ni 8.165040938509946 8.967258325527126 12.995177109621439 1.6429955980962931 1.9107536237467155 -1.0958288499303965
Ni 7.597203316919808 8.700866163595522 10.51652009356511 0.8090374617976067 -0.9114666121988109 -2.1800198585115487
Ni 7.511910645058488 1.5215471785943655 8.426122581125034 -0.8238526724335682 -0.38321212755638523 -0.014548073017503979
Ni 4.946698522390943 8.414726573422906 6.66128487503687 -0.9462605799495445 0.48846100679457166 0.3111412777320641
Ni 2.6834386762523272 1.6044439888865483 12.8730130496963 0.4886561535245133 -0.48709395124371596 -0.9450807007088303
Ni 7.423180833330672 4.298710116460943 2.8476574785975934 0.5129942160492456 0.6543629809384408 -0.5121766052439566
Ni 1.4930825001825656 4.601897183183197 2.940366263500616 1.285087239412019 0.6346217937557715 -1.5751269592787775
Ni 3.9703480735583594 7.104577318896233 11.638424661634154 2.003729084934188 1.2671275696098048 1.0654003582372102
Ni 8.860651700552664 4.996818103446877 0.7875390489653324 1.4103850668812805 -2.847296205077548 -0.19686037019859645
P 1.3070162047824152 8.808182332188537 12.51188852132097 0.09465927664779826 1.4081546348888652 0.6217210265337035
Ni 7.136488352026716 6.941483650003243 6.320418277713823 0.8086160579894718 -0.429375513486325 -0.7514054131064349
P 3.4809933480618764 8.74345721041305 8.678098106806958 0.22132235989570273 0.27704665004120027 -1.7793512260416129
Ni 5.543139045175716 6.205382827442089 7.705734924516551 -0.584234342442155 -2.1786044662212607 -0.3053033308940484
P 4.8832358353653476 2.423404762331128 12.19856143124995 1.5030396543942244 -2.799871178826365 -1.3821643814726907
P 7.731085904373691 7.507247929850857 0.7904315910674573 -1.744094459721848 -2.319558769280857 1.4854929037597124
P 8.88109024270785 7.156972968442848 9.32630398324862 -1.1575978036080774 0.6888484163098202 -0.23419021699730633
Ni 5.530035525362968 5.288173299958464 12.269812511345682 -0.03619316209110541 0.5993714551939097 -0.5215320783169276
Ni 2.762050580276628 5.1409660362392975 7.937979608691403 -0.5288435243766763 0.4443997548092991 0.7498905191238052
Ni 7.05792252226336 4.184399875056482 10.626949960712784 -1.1653905601796188 -0.5963933464021922 -1.7690786404710115
Ni 0.44281419303075403 1.0001063377758084 4.538681454196265 0.7448177325865882 -1.0267913876157606 -0.9588425303796132
Ni 3.130884253993269 5.803440189810396 13.052833518282752 -0.32924518642162653 -0.27944754617320905 3.9412345228534518
Ni 0.19407768789326105 -0.0454319857473931 8.760880652931997 -0.9416125396545719 -1.3844179533935577 0.014677913727148913
Ni 7.278710380711637 3.576772521714272 12.789650889368573 -1.4346943330506066 0.7275566315132953 0.8749860007742738
Ni 0.8639753263878119 5.355156060520255 9.818480296485372 -0.06956016758732536 0.3401654328785561 -0.5937286550858355
Ni 0.3979000819763824 4.4228710348554365 6.908984709303102 1.254729195945452 -0.9561076479469532 1.5675730581909197
Ni 4.781955394956123 0.15382905650217663 12.86073978806578 -0.08004949715442342 0.40665853150478354 -0.6762584954599514
Ni 1.3605452811482768 4.804024965948762 12.161149131362636 -2.961272179776087 0.4576167677202054 -0.9263682119009916
Ni 3.407016514688639 3.876559307978787 11.834712992567553 0.9036077782760245 -2.032817517659712 -0.29585221278347756
Ni 8.009696960307899 9.107858540226784 6.54945250738603 0.8293910857532941 1.1607970272716654 0.3165606489754226
Ni 5.3261753503858715 2.185053395610631 9.78671854396035 0.510829604297759 2.107999916529821 2.0969979089923627
Ni 0.4633642348974278 1.0784602259388174 10.844601083475927 -0.25826731255116814 0.28417091979080733 1.2198629801958862
Ni 0.1346630854342897 6.892036753157106 7.21280391488552 -0.03632814500707292 0.16642545074750695 -1.4272448187510969
Ni 9.170436601442237 3.7575863513666956 4.341841153616744 -0.19485413840184507 -0.47719726095529424 0.5266362323127124
Ni 5.28573136412838 5.988714007922292 4.791290961708792 2.1849651183319656 -0.0675675626373288 0.48621746217603357
Ni 8.45184399804017 9.124030605818467 2.2237014071764873 -0.658588331873698 -0.7396390165991261 -0.5286028691207799
Ni 3.0528252411003076 2.9714765259758757 7.960192009892972 0.928766279819523 -0.7788038597240458 0.3136470748730534
Ni 3.2224245956387274 6.408487384539687 4.062501202874386 -2.3724049665476112 -0.159063611065797 0.30497885767509414
Ni 3.601615763215797 6.612679294195588 6.431833212560503 -1.2260138302886303 0.0012174173468688712 -0.44408196645856424
Ni 2.848946636418834 8.233055762516905 0.5297858109609095 -0.2474671366118706 -1.0565639908925029 -0.38014377304370656
Ni 2.614612945252737 1.1077358113432487 9.77223371780447 1.3777045459291242 2.325573865126685 -0.847439715724889
Ni 6.378622048595162 3.567760396273436 4.78147253670142 -1.372917666063442 -1.0851410311992473 -0.20111760281305363
P 2.5780023375058674 6.578381614348156 1.9936286636625808 0.055538142276620475 -0.002460031504718344 -0.6833064034456684
Ni 0.4417876584969002 6.86864945830144 13.442131535740709 1.3896226375229486 0.892033957395496 1.3356490115199708
P 1.573740101392823 7.068961915185774 5.502048176294557 0.369179560722719 0.5695258325873869 -0.07995616610966874
Ni 4.126991345919055 8.210276647905713 2.8339411711142772 0.6020518302395502 0.27940538008136395 -0.31421760266454274
P 7.55745965942868 5.909392560279439 4.362691599664779 -0.26433640156338345 0.41968811099523207 0.189845372333344
P 1.1271422900532684 2.3184475958984962 5.988209955507554 2.00314184497215 1.1624936982477978 0.7690850897743852
P 9.081384269887806 3.2357400570518227 11.688811473403566 0.230360558838571 -0.2706754564075338 -1.4554889011984546
Ni 1.3641759329107401 8.3483427782534 2.8712465787161974 1.3312840496830556 -0.4516569505923448 0.25456338133701967
