# total energy = -340862.3773007058 ev
CRYSTAL
PRIMVEC
9.33840575439968 0.00000000000000 0.00000000000000
0.00000000000000 9.33840575439968 0.00000000000000
0.00000000000000 0.00000000000000 13.66770076208759
PRIMCOORD
 96 1
Ni 3.123547239294937 2.9849186090246302 1.6094396430552642 0.7888406751347575 -2.126571251774105 2.2120864000287903
Ni 4.042614435922965 8.83140482827022 4.515247949531231 1.2477697339084834 0.5827999239884738 -0.2739325298922508
Ni 7.406905770089475 1.060805515943805 1.866925631382453 -0.2440030893226701 -0.05275595154579301 -0.1735713177636688
Ni 4.804927157123752 5.451079451788174 11.572168956719354 -0.7001836388169812 -0.27591253643675706 0.18271853148057565
Ni 1.5691789752422378 5.128250772202825 7.084529069332356 0.8530444635061759 -0.526857604294899 0.7871954262218507
Ni 4.473161623434753 5.14586300505495 3.8304411928069984 -0.1586578909869461 0.6832722077736233 2.646016622765333
Ni 0.4670930376002254 6.810004226253318 3.0461337250332465 -1.5329454408147212 0.5533515368203696 -0.7522441069576464
Ni 4.982403554448587 6.889614133498475 13.462944875855957 -0.39507262643939706 -0.44870532416318853 1.7504736237753142
Ni 6.468339982689848 7.90524978183585 1.7710332802343443 1.7196540672912963 0.6543539820773762 0.7006132701552321
Ni 5.517774344168809 1.5954385716262125 4.794560593131629 0.4433918823700751 -1.5962452293146316 0.7028632425316733
Ni 7.931051796348268 4.959515122465258 4.300186337581139 0.46359303990829837 -0.02348059962044343 0.6670794000638447
Ni 1.395484632161894 2.1598331257708274 4.485506995561216 -1.7599255132168334 0.02857344076231853 -2.189395643299494
Ni 4.386342467111207 3.131699667333063 10.436164062467856 -0.2563657246530811 -1.6830739541744175 0.7852586142104541
Ni 8.50126417714552 1.910152176795604 9.15093518301815 0.24741700010022552 -0.16350287778407324 -0.0229964608951733
Ni 8.988747623246603 0.483579058743991 3.708607684903896 -0.022416420021987203 -1.8304076783977963 -0.44123087016301427
Ni 4.503296658118638 2.554735619328978 7.91187631440842 0.2893036130316824 2.6166543675531324 -0.2723574720956471
Ni 4.646566475943296 0.6836506621181383 2.087358694200277 0.9820683336767733 -0.25706789292642823 -0.16489513014590956
Ni 7.3882849894388185 5.544407476774463 11.315010746426687 -0.12501654878341698 -0.11502678456055673 0.4365578901673771
Ni 4.125754260462981 4.01554239825684 13.490484767639733 -1.0890339384957501 -0.06363788856561943 -0.984611668923917
Ni 1.840497009858169 6.215969572918541 0.8582648381443649 -0.07298539121879044 0.772020004032993 -0.23861071466250522
Ni 2.6800570217020003 3.7019867553746506 5.540871956436279 1.1116681309554983 1.1860825413113314 -0.15978069173747966
Ni 8.612998199455 4.838442694613825 7.169733615337698 0.6700076294542332 1.270045257477232 -1.3435806076622214
Ni 0.35120155714346807 4.366815861122981 9.405482375121288 -1.5923222401111414 0.9021538194383173 0.07327901119980927
Ni 4.780292443304077 1.8847050216937793 12.639506687339756 -2.3862724685583223 -2.2567629170005588 -2.0445638595623628
P 9.511539580701813 6.59609870890932 9.511872027939106 -1.687500108266571 -0.36961202027444734 0.512821180806491
P 6.003231356267288 4.9273723305898525 13.373120620629011 1.777082484612094 0.41792587688848665 0.4088974481376313
P 8.547732083122284 8.61452035955834 1.290601264157992 0.997005671712896 -0.3193143004611597 0.7014995294149273
P 2.8778724662972115 3.740432970990875 11.892307241668068 -0.4652735129345148 0.08112524671710544 -0.315191793652354
P 6.567093621296012 0.18115105990559438 3.6344056483080838 0.553354365033847 -1.3275793471379587 0.21582045624086701
P 8.007411938464825 1.8555038275640892 -0.07485385730264056 -0.9599887281689145 0.6841769789760797 -1.4740172990199454
P 4.4867956955260055 7.5788444929279315 1.902147295565041 -2.1170468572234378 -0.6202408424437511 0.28818569737715527
P 7.449012640678146 3.158052647772457 5.524894878394549 1.642691179481997 -0.12361529756051613 0.7672251537475109
Ni 0.8677031646256179 6.984903223648574 5.893170776230926 0.1939156857479757 1.5850712149756832 -0.4430900348589401
Ni 0.35667199510994474 9.122576313068345 6.73853180559742 0.4996553328484943 2.472816058077522 1.0971336847847493
Ni 0.4940007193288116 1.5711587172171322 1.1597029659953144 0.7508104598349135 -0.38078809149592485 -0.014751961498193949
Ni 9.368381823743658 3.3577544502871426 11.76015386180055 -1.8543685600887676 0.9164093009160669 1.1074913738699894
Ni 5.486182518220379 3.7568498879336305 5.477550096137397 -0.7571451438036896 1.728002953476624 1.7069456185856924
Ni 1.842896980082451 2.978680554122605 8.151799563432856 1.0386750264272242 -0.10593304978940464 0.020437184808429317
Ni 3.256890332028498 1.2564824656699087 9.314551518837618 0.02280645637155427 -0.8786333677188739 0.4428637777807469
Ni 7.347896385469867 5.913844138419704 8.902005975689054 1.9626438848581038 0.5746078750959845 -0.24688555307678767
Ni 9.114965512551652 0.8827921603003072 11.930002649478718 0.12855284407144957 1.4435078175771785 -0.8879317623016643
Ni 5.517064625347621 4.791040948082867 9.4851380405536 -0.7461773319382763 -1.8737006847584763 -1.9153229882849532
Ni 0.27179709482023334 6.251511544411217 11.997070144240476 1.5616903741578976 -0.21184835896699644 -1.0839755501362365
Ni 5.916393523132657 7.786362540881233 11.444279492822295 0.8118121963292664 0.7562784249280201 -0.6312914438309579
Ni 2.7729368032222745 8.425781845149906 6.37677504866988 -0.5213762694653536 -0.712465798618444 0.07333017615271886
Ni 0.10563324196892089 2.5885032937686834 6.715733956147846 -1.037814735309458 -0.6973718803997989 -0.7122043174269411
Ni 8.239424624154672 3.428773024433703 1.6035769920560254 0.9935843047361727 0.599724210547638 -1.426885378529149
Ni 2.708305698466411 4.860462654881752 9.770929669919006 0.7477873567378734 -0.15225532989471197 0.15041313447965063
Ni 1.4928375099367641 3.979113278237677 0.37704279295916315 -0.5465419700977039 -1.0166848953093781 -1.2545782721898844
Ni 6.920309472514878 1.1136982449334323 11.329211659734337 -1.1208662525149988 -1.34156177745998 -0.23060378519762864
Ni 2.0407404398942885 5.278767192728039 3.1482865432566816 1.1819276386026936 -2.0125942486343016 0.2727138269938013
Ni 6.1615079917978655 3.5538703050737186 2.8472004732946634 -0.07018905942057589 -0.3840824459764805 0.6041796752158304
Ni 0.7112745995517924 8.593144749272806 13.052653623805222 0.3547325320594536 -1.0606918970179475 -1.1300767153696731
Ni 6.413644941430624 6.019424151477036 6.604998209390802 0.19728074556546668 -1.072943460691791 0.314416091828594
Ni 3.3927828094750123 7.162949263711469 10.55694513206638 0.45647519791659447 0.6428189848545832 -0.629913846757141
Ni 6.567990108228039 3.272513484500187 11.949041790697654 -0.1559842008095249 0.9330181131173416 0.7332081733721179
P 4.439039089584453 4.806776161421059 7.218404451181809 -0.06869370582197201 -0.14905610623112392 0.06664119416831749
P 5.354342908779072 6.843715870259772 9.490414239684803 -1.2524979926220883 0.2451153485502424 0.9710820098685985
P 2.947406233962601 0.4380954207113499 0.5692804079241653 0.24928696342942874 1.3476758607775177 0.1635671553631054
P 9.099276991241169 5.198606319555907 0.21515406216495725 -0.8710532413787707 0.5326621267918181 0.7190408807328004
P 0.7965277052659528 5.156368711289648 4.990856679145165 -0.22632418398566828 -1.0372436932973361 -0.6600569459994247
P 2.717942932985707 6.488016003166745 12.510619881730815 0.2853939935646311 0.6317640125920023 0.155068630973791
P 7.475916587044515 3.5723603480467876 10.122886704070817 0.7507500389106232 0.8291833406178623 -1.1187168102721636
P 4.695677150688432 0.3046038473296719 10.680583753760743 0.10531341392753475 0.303794864669322 1.0736484571786153
Ni 2.571498057276785 7.706052253220429 3.0634237828941746 1.6891687542182459 -1.8764800472758263 1.0923126092470221
Ni 4.334925206197208 6.499829086177316 5.6667648692284684 -1.117291904900179 0.6917298516226732 0.670691028674503
Ni 7.455502832529803 5.648558713783875 2.076000391539598 -0.07527341592201875 0.339651469356615 -1.0928615397719565
Ni 6.50366717085506 8.35061701894272 5.776735800571627 -1.822909570248538 2.073928171657093 0.40246711913125527
Ni 1.757049017935268 2.7583595521712843 10.516161513543006 0.05965602109973596 -1.6735158781723372 -1.47828533026768
Ni 1.7430227328112535 9.103451258518424 10.886610458348995 -0.14040228721086787 0.42418085665926303 -1.3360421331933312
Ni 7.058359121641584 3.3172724622627725 7.640818821307109 -1.3898506943733548 -0.6550661776530524 1.0052643121772622
Ni 5.912452715993952 9.255863375368653 13.487532897647924 0.40566968522895297 0.3635514159026642 0.08533491392307883
Ni 3.790757638456465 8.507128695825868 8.347384062944094 1.7238063988967733 -0.25521824131219917 0.7365398088485121
Ni 5.938927095705392 2.684324673034673 0.5675229200011696 1.668878379400326 0.7744921197225694 1.9830083074470688
Ni 2.441059208666772 1.4729933981601118 6.266873221527732 0.34797413028969754 -0.7917503925823848 1.9560034967234508
Ni 4.436900594715345 4.934590918073783 1.8118860029587305 0.40247534666137136 1.5354329831232654 -2.650794503769951
Ni 6.095597525482755 0.9286110470919043 9.044054330068825 -0.4431620257474561 1.751019468976455 -0.30197426652081544
Ni 8.262322394543544 7.490353762012376 7.207935164728724 0.49691016600318944 -1.1463361146513291 0.11953187151976188
Ni 1.9507368872809359 1.6813052105844795 12.634518111099243 0.8553350593125655 -0.1706716276183706 1.0858707102764202
Ni 6.435319380693498 8.183702358285833 8.40858797286606 -0.09290167052674322 -0.5678389318032673 -0.8321200546486831
Ni 3.616428283799268 8.626184028080239 12.526488634268258 -0.20442918368478985 0.952439712177063 -0.3953803874878029
Ni 8.070380807034223 7.212863041333214 13.432684706537811 -1.8926623134626435 -0.8491356153700731 0.8766320210181289
Ni 2.003928445247906 6.8303432735236935 8.677718952904067 0.3671105940088323 0.8517722816619717 -1.4701261914956552
Ni 1.3820840202091897 8.57839006851652 1.4173682517089088 -1.0884901501771385 -0.4035840063445178 1.0152988135951289
Ni 8.090234257216416 7.366255690765349 4.47093721523466 1.6089691046392032 1.0076225279967936 -0.25415406171374294
Ni 2.44348719410768 0.585695457185812 2.874467683636615 -0.13948260361007592 2.6439620542291498 1.030213268813116
Ni 8.696707666733076 8.701376869504053 9.49679703987273 0.4259145515209181 0.4633207600835182 -0.34745013946542747
Ni 8.321359794379777 2.6392855431058293 3.7199650537240205 0.45985774123558226 0.004874297373165799 0.3931476415025423
P 6.2207041445283116 6.588366509120582 4.393618952709497 -1.6241409272836351 -1.5073894467224878 -0.34851406195356754
P 4.489270372994623 0.8835270928164588 6.724385988882467 -0.09503080105460407 -2.330598057814154 -0.5418371084228668
P 7.58991984190069 0.5280457444131132 7.263753616174645 0.347457338554279 -0.14965774437086485 0.5255928786498626
P 1.1603435806154925 0.9308195800025765 8.830209512360849 -0.19938005129665662 -0.3767306335970996 -0.011936603536585894
P 4.179608845223429 2.9489844244991907 3.882938907242201 -1.6597159961747674 0.5776955128823729 -1.4441511075881321
P 1.1363812319948385 3.2916852310778184 2.5329668621701287 -0.7288707223390286 -0.3360940910226599 0.03662510742220144
P 1.385305770121164 9.185134291793895 4.835413315856015 0.937713975931114 -0.18710200526025195 -0.9209889498669495
P 8.246801964532816 8.191201097936023 11.543657870759215 -0.368847631304597 0.11473470724143464 0.13857577552509034
