# total energy = -340885.9681600152 ev
CRYSTAL
PRIMVEC
9.15881414562471 0.00000000000000 0.00000000000000
0.00000000000000 9.15881414562471 0.00000000000000
0.00000000000000 0.00000000000000 13.40485028924854
PRIMCOORD
 96 1
Ni 6.9478121205501315 2.0015122390429423 11.081092334184923 0.3014808718241646 1.0194627151648314 1.8352058711173878
Ni 4.74840538935036 0.6473074160330891 5.81958179726427 0.1066177345612551 0.16660362819658403 0.08511405616152438
Ni 2.7682240279041803 2.0039484835430446 4.858789246358391 0.16887236962610272 -0.3824436248214768 -1.4963355029011713
Ni 3.7693190235403273 4.576595199209665 4.92323981984419 0.2962664175027608 0.20622407080168353 -1.0398425643727638
Ni 3.899639786667996 2.592997600174996 2.708570841144525 -1.2936184168114817 1.9970023077333157 -0.6566924004025658
Ni 5.418674867737611 4.655873892416012 2.4181943096484613 -0.5611751466298464 0.269948091323206 0.5343348865085508
Ni 5.368979143461082 3.598104156303793 13.06366964135 2.141924080081092 -0.7959744579660614 2.0299368536778073
Ni 5.8386889148436465 8.12282383352631 12.557770648564219 -0.2340110111069647 0.48614058619151107 -0.3857490350456259
Ni 2.2665683136029773 6.74527410974085 0.16996377325640633 -0.7500563552777082 0.589942705680842 0.5990405542170522
Ni 0.7435674661102634 0.06681354747461843 0.12400850858078663 0.6945390389366941 -0.8240856143799808 0.7633792976388595
Ni 8.549761943948427 0.15337166597676016 6.934248833030575 -0.13489858378381928 0.44136739574087863 -0.22962085245906907
Ni 9.07313320603062 2.4903914079394713 1.1806398041239718 -1.0815787677692856 0.7335025646840851 -0.1596076564947251
Ni 7.378926650115282 0.34390430351260415 4.523345855135994 -1.0455501562805025 1.5844438658043294 -0.22306093985336423
Ni 1.0322258041167813 7.885683823764444 2.561720250671799 1.2549497965966903 -1.7570983281806836 0.1585532470882818
Ni 7.817249166227727 4.150563811364655 4.005207939322067 -0.7364428782593317 -0.37169872760014694 -0.25863832273734166
Ni 7.9693221123920255 4.2975261393670845 12.635464866964108 0.18462860401909495 -0.9575070993976412 -1.5565306843338291
Ni 8.703996370195524 7.466127717353917 9.441062910192356 -0.37638224911874535 0.16878958010430933 -1.7891358162322026
Ni 7.097769380701185 0.8207625291520484 0.43974487991269323 0.3014042529499583 0.47485961396105314 -1.0605278606362574
Ni 2.2190707046648868 6.762767444309256 9.059185248326838 0.2252810874331346 0.40227505772510713 -0.1936637176381697
Ni 9.27274955520256 5.152858611623032 1.2279606479535965 0.6680091109669657 -0.11286242991938628 0.15163029471620337
Ni 6.743891128840416 1.802857565331568 6.9404017242154215 -0.2739505276143798 0.8276067401593619 -0.850170998613123
Ni 3.6923117161837005 4.820879083821456 0.6919996802704976 0.5674069864721712 -0.577308047635967 -1.8238251400842715
Ni 6.177803158681237 6.176200366246959 4.783118209951258 0.9696105675293946 -2.157702168850955 0.6557202662972835
Ni 5.7079376874622 2.744090553250908 9.163648848023342 -0.11508591993326632 1.2674785251913203 0.20817348121857052
P 0.44292848362786486 6.033469410271023 12.57747583669193 -0.35849636997726003 -1.0098881841025187 -0.7027421435727769
P 4.174010374974665 6.578363885042092 12.547904774220196 0.8348497948750202 -0.8713530320073768 1.6108292977763936
P 2.652795496194432 8.69797902945655 1.2728882937084962 0.14697454111174688 0.9037826132909917 0.14933712780665248
P 7.007207028757521 7.94091147164271 5.831565189384323 -1.3369083378483686 -0.19980042666352688 0.27856437223730734
P 5.278004644891461 1.4396190056546159 12.521925798564025 -0.4110134660393696 -1.1218417290543905 0.7174529674203901
P 4.305650007305396 6.486693316615299 8.407575937400145 -1.0019074798898875 1.1042630967406788 -0.27370884391721895
P 4.790554250964917 0.9966804473314498 3.6879154855068235 1.2929818116687475 -0.08080745836637052 0.19190611151711465
P 0.2405434250108826 5.738995225431553 3.358772442373225 0.8539091254993165 0.7513694176621769 0.9793277948171585
Ni 0.6478432066468334 0.28378768076909483 4.615048479411473 1.194659484347065 0.5139578655140954 0.6264312875251791
Ni 2.0694431618146 6.790326315364928 4.803346366353238 0.12174019202499035 -0.3164943145138614 -0.2982402533996799
Ni 6.2668726239575445 5.757175471043221 8.99726800276859 0.5183133142693137 0.17484298538724083 2.3520117476032394
Ni 9.133031849003068 2.8137250154098563 10.144883871576697 -0.1567735294800397 -0.2656985720182327 0.7925302081712029
Ni 2.8589695561260475 5.571269866294789 7.0263663515761845 -1.8506306903128902 0.06200240984472548 -0.7706642613360469
Ni 0.8711424168276664 0.34967344039461407 9.249935865633743 -0.14069462164030608 0.14538302825491092 -0.7907977988611283
Ni 1.59881750904102 1.2757311895462098 11.532836176201318 1.2313321571777505 0.3575635737503455 -0.9548987152405167
Ni 4.526404898981987 7.085945351943168 1.4139706631806035 -0.4231256759218713 0.26757804842913274 -0.11749735758823635
Ni 6.249617418550803 8.152452596525679 7.773915154093195 -1.293424812743437 0.7383570645629091 1.121056514148934
Ni 5.413985555015609 2.8172145235096266 4.930035659765528 0.5596867350097781 0.2905295150189835 -0.6064252767168975
Ni 0.9194166931853387 7.590495251439981 6.896366146935372 0.8367608958548041 -0.38358776572824904 -0.06492806813195269
Ni 5.143058680739161 5.225762770347907 7.050147211893916 0.7262965338539492 -1.7384778848660187 -2.429499654678074
Ni 1.2237366029782306 7.5106303941433845 11.134121866724751 -1.1184231902911448 0.3508918181571247 1.7825036556276659
Ni 4.8910813924428345 0.698265224866438 10.414361821492557 -0.16151875747450894 -1.1631698983792162 -0.12687262815554926
Ni 8.70090069109389 7.395678120756965 4.736389025500229 0.1548644853827849 -0.9925139544901295 -0.9071556435282828
Ni 7.296762930527235 6.143210318542561 7.044972482034676 2.268309741297893 -0.6577979747619188 -0.9259624918221407
Ni 2.686087784757864 5.675488009778502 2.498208455611793 -1.6080080262775143 -0.14220231653408413 1.330133223908064
Ni 2.6921692371942103 5.497211697017234 11.289913291336575 0.07453216688062003 -0.46492101469110253 0.9521041832145153
Ni 1.0613783087928212 3.523359075982976 3.531091862567324 0.6555690854314 0.8965637269450494 -0.06974554412525408
Ni 1.420303067118088 1.331435095747804 2.4550979185366693 1.1371709032122932 -0.7302159235130133 0.08793429921913888
Ni 1.3902621574927627 3.872053439170594 8.333593786278044 0.4376482950180785 0.420393878813005 -0.8719646974494466
Ni 3.8761474289884355 3.116048303770333 6.861526934702513 0.43497049107559926 0.2668612248677662 0.6493611568484752
Ni 4.388949419818303 7.58641042043605 5.721954336270309 -0.5115569693820867 -1.379759885796256 0.7185770537225044
Ni 8.12972957921457 7.53726422499413 13.205921591358436 0.7908996145463153 0.595261289680278 1.200661724677087
P 0.18131612309804981 5.917042567845066 8.044290667772252 0.5102048262295665 -0.9668769706483155 0.12310004848699443
P 9.251867459487395 2.034392380980417 7.986958324457431 -0.5192461104962283 -1.8068327192913336 0.797533317812749
P 2.114321349974385 3.5298893103009203 10.566359665382793 -0.17406831200474535 -0.6280575102746926 -0.5263189581826097
P 4.243736425272714 6.361208407232193 3.83204407648545 -0.8078730091758602 0.5516949750535531 -0.8106477437075199
P 7.262948589570923 4.254791113662277 10.280889510498403 -0.02831273090176414 -0.37565179871062404 0.6341301988313337
P 6.6926017709435195 8.172446287291558 10.142940371264961 -0.8079938510244409 0.43930202857141765 0.012094983491321104
P 2.522392303741571 8.985245227748722 5.922088158428173 -0.7967352473914859 -0.7822231698182399 -1.3782169667891686
P 7.294885373675652 4.048104160151692 1.2966389299403234 -1.1510561458348176 0.31216046302519784 0.5372479463902876
Ni 3.163729088986627 1.748243557985283 0.23063816776704435 -0.6017461260736733 0.37758501117759485 0.19113452345841278
Ni 1.9807217314668786 1.69203591701863 6.9889672508554375 -1.2572236802325314 -0.37705253571289254 0.7499437409592439
Ni 7.307249772454369 0.8806959756173545 9.019493696484375 0.9062601282972069 -0.6063648557926073 0.5938551533613708
Ni 2.935280793625502 1.9281318219947388 9.235606901271298 0.13201946246381133 -0.5491878923609831 0.42545021028998986
Ni 6.382942272641004 2.474583295130535 2.620286286220318 1.572334484135305 -0.7039541616030071 -0.16386283222665327
Ni 4.4753170349911136 6.971652513158279 10.486761329570983 0.24429130998705026 3.684032932562636 -1.408735704203316
Ni 7.552376267945895 6.478175619678849 11.229122579889278 -0.44606043034117376 -1.573452142679516 -0.19082367708621328
Ni 8.092334142019387 3.7585482583819787 8.102038821238594 -1.6918079916133058 1.6570955278327846 -0.2876097702690273
Ni 3.379171868595324 8.765342105765777 12.381859141554557 0.13698066312382862 0.10645832616525536 -0.05729420573577874
Ni 0.6331085068281677 5.307596772635188 10.208556861761522 -1.6654187029864993 -0.6616330322372928 0.4696299901309976
Ni 9.006740963995869 2.725049379131685 5.891605793972379 -0.08444402667769328 -0.24717737328559364 -0.6230754836790688
Ni 4.037150218715142 2.9311868038076603 11.506106177804515 -1.7283881047301846 -0.610767098625361 -2.059274683409976
Ni 1.0575682422061947 3.6135184401145928 12.582877705136143 1.3511874734752019 0.0015033240184038625 0.035882572829222074
Ni 3.221429616620636 8.904803365175786 7.941783390726957 1.0115303476916322 -0.9488273122354562 0.92569689686558
Ni 5.693420967414595 7.961592073451851 3.406466965810384 -0.2637501900426103 1.9216975243527292 -0.14221594338083896
Ni 3.019633469738077 8.816649781290494 3.681748856101113 0.8176354878792629 0.04740677141873771 -0.21593461322122812
Ni 3.755287720629962 4.289457224312233 9.089238980291636 0.16683657014299655 0.8067550935213331 0.5387846947497882
Ni 5.119245764572745 5.020541227062949 11.204497276929029 1.9953061509778154 -1.4968098714344285 0.29194413597832297
Ni 8.270747836989308 8.83186257119527 2.237564181712282 -0.8470015997462058 1.36472381739874 0.4424320895599671
Ni 4.937415832014335 0.8179755020791867 1.5137431183923242 -0.09600704892494433 -2.027557040591721 -0.4424716845486509
Ni 6.411307119320771 5.7487402034319635 0.014738363344229743 -1.4269743386985296 1.2315123915093564 0.9770107166482076
Ni 8.426246179556006 9.140294788433824 11.233170775637568 -0.18318518670434902 -0.23246963476177382 0.30038378210524397
Ni 0.0588179029310486 5.187359863622605 5.727731716084838 1.0872547351081405 -0.08084473936220916 0.4685748093936059
Ni 7.265485581024038 6.176008031154845 2.558758290253253 1.2394414165484462 -0.01966405408783065 -0.3630888744439489
P 8.661215550421167 1.929056862199665 3.6880492041899124 -0.03861719815156575 0.2749709984590942 -0.822832201588854
P 2.178414729717686 3.479699010073243 1.434828030098211 -0.9936925481792629 -0.5874420507461754 0.1316721064267216
P 4.742937577445994 1.3819734309040677 7.840014314082821 0.2340621760598743 -0.14964925973043258 1.3059208883279185
P -0.23087812869149055 1.6660432031415957 12.518266852406917 -1.4702753154790098 1.4214999458475195 -0.15448216234270168
P 6.603788752456696 7.893972550353138 1.376047678304194 -0.6330806745208968 0.3113395097857993 -1.2215550231863284
P 1.9871054247622602 3.8101398571379113 5.8424632620560235 -1.134737354070136 -0.0983269553073726 0.36772200234058605
P 6.881987724977812 3.9915210078147227 6.078321953751859 0.5629510075833466 0.3627476890544462 0.10238698430935915
P 2.6519803617564275 8.695606896653818 10.226787480849696 1.7021713371255005 1.6382971641793591 -0.48139844352083544
