# total energy = -340864.23140453704 ev
CRYSTAL
PRIMVEC
9.33064060715540 0.00000000000000 0.00000000000000

0.00000000000000 9.33064060715540 0.00000000000000

0.00000000000000 0.00000000000000 13.65633568418152

PRIMCOORD
 96 1
Ni 2.7041315543292237 4.543760614725445 6.760759961409335 -0.5216282375751597 1.475822213439168 -2.0441311429003184
Ni 5.626002932930136 6.45001044754624 3.026462259051336 -1.628540084792595 1.1669573904461064 1.8558651992389523
Ni 3.5413792476666823 2.6958366150175364 13.552055376577307 1.0687327650445528 1.1146341555623578 -0.024654051103254315
Ni 7.795983316532526 3.602588248661809 6.024014461900948 -0.9116900410635266 -0.41807808619563486 -0.6289522541748201
Ni 8.105685932543235 0.7814597944121745 3.468995871733786 0.65725264378141 -1.4424256402565931 -0.8351804387415617
Ni 4.374204217456627 7.037728824784206 11.091033657755405 1.5516990672731406 1.129164745078365 -1.2033063613887858
Ni 1.7271201985060933 1.99875380170276 0.9885776176575142 -0.8015653217902776 -0.7855067256655182 1.5602310160035515
Ni 1.0291696356345263 4.666785108341412 3.1193114616279374 1.544188103608076 0.04216712028635319 0.5944171965124279
Ni 3.5960194778233077 6.748320351633923 6.276164754887565 0.6549342800608785 -0.8547426771442055 -0.6955301992053698
Ni 3.3292564689131434 1.6694848327824807 7.199455881697077 0.3105427249161168 -0.2698822710822771 -0.48283209064356847
Ni 4.482141065552912 2.4856919320278643 9.189894216679278 -0.41955801317527097 0.08598051792687772 0.35909929366858157
Ni 5.859940748928585 7.334032641186835 8.800115111729504 -1.8967665654390045 1.1267327385981047 -0.5563450722310547
Ni 7.113353665190532 8.79721701482263 7.516228323935531 0.2762984590212661 1.2686530051153957 -0.42726309512901256
Ni 5.335726710223063 4.060881312972426 11.334649213972167 -1.0741999588067113 0.08778980322147462 0.3906670411725336
Ni 3.5849066851121494 1.254541923749815 4.219370637668024 -0.6279955466885057 0.6801030660170222 -0.47737235308057785
Ni 2.764388830003999 6.6998943279807675 1.8285563894387644 1.1025563984622175 1.0717782367390962 -0.9050869339247123
Ni 7.2717599471866095 7.187634893379892 5.466630929653114 0.05965602109973596 0.3149884193922962 0.6390780297549122
Ni 6.024841156639998 1.1045705406713586 3.468326864817422 -1.496134956854591 0.05142257744635015 1.1753355872074727
Ni 3.1056756637538094 1.5115357521657875 11.551347738775709 -0.3494121482878047 -0.2982469382678993 -0.8472034313443668
Ni 5.771169036204859 7.576545315708838 0.8833597181725069 -1.540435064323547 0.6191890041404691 -0.835904975612412
Ni 5.279099053662176 5.383434274565759 5.3066878911838815 0.9868649837344681 -0.2090214310411626 1.1004077275503306
Ni 6.989937284677949 0.9303917441505613 11.66081667802495 -1.5735393030766838 -0.13176929412621824 1.0794007862813604
Ni 6.683547046007678 0.5115756862896826 0.8780263241223828 -0.9135178383008848 -0.8043058606498922 -0.5919674494203546
Ni 0.19547691628779082 8.52326008216746 11.57887872632696 0.007332271995355114 -0.2426054376441951 -0.17713383830394655
P 0.5963716131408432 1.0140260062724697 12.75467564352216 -1.2482302184846694 -0.6281616399527247 0.9365937462837418
P 1.5693204081357297 1.0688715105177984 5.988466588121797 0.41922299843335536 -0.11787042465693892 -2.5948043615575767
P 7.236098239594631 1.2786896210936243 9.288397787335613 0.07076858607312973 0.23070251555902205 -0.9155657219688489
P 3.431473634446926 6.873658844067999 8.349920110218227 0.12317023960329755 0.83503311453042 2.2480854438312186
P 1.5075888912784492 2.009222780226622 9.932239033489065 2.1168645660093026 2.1233548017193367 -0.24044391121650205
P 7.173461650618979 8.05808100524489 2.3152537892416625 1.385060472073563 0.9449750283689015 0.9821017580178699
P 6.785055082871396 4.628650781044601 3.8112642888532133 0.41672131505742427 0.41806600201077676 0.26696561165611443
P 6.841020263964196 8.081547565839822 12.425353489951627 -0.41507066682787874 0.9337999855886885 -0.6818118211780128
Ni 3.3886739869523157 5.886113195238238 3.9953111706563957 -0.6958528726521113 -0.33344816875938055 0.11524378566736927
Ni 8.987086216232667 7.791317996334727 3.574436773524248 -1.585788809867998 1.197956409930782 1.9289544630254587
Ni 6.8507054686948265 4.65932992666533 7.929947052948294 0.8168132490882837 1.1427383699977416 -1.113042899815838
Ni 5.992865052004282 6.14098896828441 12.744406340702765 -0.01038057190337567 -1.1356778636065346 -1.0467871140113971
Ni 2.46613490975869 3.7557227188343734 8.733963670516829 -1.1852320203855782 -1.841842402597299 2.026659725588432
Ni 7.1746746338704055 2.7649206765065486 1.357417832495527 1.6367241632652842 -0.0017095264919389913 0.4773949787883972
Ni 2.932918856829301 5.6143676243568255 10.07311770750201 -0.3255872779540651 -0.38313139491712084 0.5933699861948362
Ni 0.7105805177110494 6.353373004969026 11.929929142186726 -0.11749015849938475 -0.8770824782919862 0.2635642992840493
Ni 4.701243163322358 5.33872184579005 8.151657997772348 0.32764827424815185 -1.9906920492445714 0.6876574813255124
Ni 9.33847813353091 4.133343066284644 10.367958479490609 1.9690261342353639 -0.5989657351150588 -1.186237064611325
Ni 1.4155514544162648 6.018113764914772 8.209588211732463 -0.5319003089251291 -0.9517935939526317 0.06635785859994378
Ni 4.314991973506158 8.718979595105536 3.078547759867646 0.8697386363324054 -0.9933007120574829 -1.1208510830063472
Ni 5.372414788258557 3.162042062383621 4.687208947103338 1.0519198072522722 -1.8665422193368242 0.8758056684620915
Ni 2.8398177269620186 8.465400781074353 4.866872294048669 -0.48461669334781693 0.7039443914109941 0.9210840806839169
Ni 5.737830658071385 3.801433526132411 0.03626633308961267 -0.5407243349746623 0.5042421808882284 -0.207158666800811
Ni 2.585679074507099 0.13098166374533413 9.550995598373182 -0.028018853810429165 -0.017090894044015724 0.44179497019660047
Ni 4.99275103056165 1.9157670860243061 1.6980421907772498 -1.9847157770564787 0.11865049735607308 -0.5090437160419299
Ni 0.5815806819857403 3.0057445051169487 5.040908331771413 1.1090209231406385 0.60226703157415 1.364314497775463
Ni 8.741130535404688 0.14580245294970295 5.646758009426105 0.8150399592379447 -0.07594061719237245 0.6905569143604945
Ni 0.8818089657387584 1.4841316613239146 3.518076906342714 1.9280934005767438 -0.5237815364727365 -0.5369556119608494
Ni 1.9803257869214528 4.916146472913785 0.652054075829657 -1.1560140040607252 -1.9080804477899267 -0.34820938622895514
Ni 9.108944379799183 1.1031616139716234 10.518956233012581 -0.8874249978685749 1.6132371358869377 -0.8981225867917372
Ni 8.857772870990065 0.7981187197744762 1.1146942855005832 1.6906162852980497 0.43363788830710476 0.00040417741695414263
Ni 1.57010418192896 8.415836419292933 13.519498906108986 0.7811911290092998 0.27206976565189916 0.8290463008193657
P 4.526554913835961 3.6007874350654583 6.862226943455312 1.4679806059075622 -0.7724108117135084 -0.38866800846463384
P 3.504149992488244 9.276457366821365 1.1037531765727042 0.018579819884716388 0.30707276408964534 -0.07596632822398529
P 9.133539947881982 4.234067329355131 1.4455914511698944 -0.6400825597600267 0.3867170553858501 -0.7333745237466531
P 2.590297741502921 8.360048520367648 11.507224073408963 0.43309435709880895 -0.14035472180238406 0.02372665419297849
P 0.3940702664677116 7.936959962269626 7.88721645219261 0.33194458763066054 1.2259467244961209 -0.10490255164236127
P 2.016538002296771 4.6686045832185545 11.759361303499027 1.1053501591572705 1.6874422584454423 -0.1769320067057856
P 5.1336063779736065 7.613970514335584 5.038996483554356 -0.08779288854526815 -0.006145193665789417 -0.8279399551290644
P 4.689355927458366 9.271568111254073 8.245927323817162 -0.14192823693709106 0.6229451287487917 -1.0390180115889396
Ni 7.46077072968025 8.690250553327488 10.08229532539512 -0.28057780312291036 -2.0841045979694623 0.19803742122583312
Ni 8.15400931915204 2.595214988991401 12.61495770117443 0.5010527274166533 1.3775914173900274 0.8353282771733356
Ni 3.051735231626854 3.4147437962176177 4.726607576173754 -0.5893793769782043 0.9276123687207379 0.4808772809100429
Ni 6.60813681033045 3.251952113235609 9.72765354604709 1.283293637846706 -0.18763550916621877 0.5008125863813891
Ni 0.2895577633966116 6.706304477932544 1.8012978565870628 1.229723932150366 -1.5557141019698049 -1.6480516724629617
Ni 1.240135414979011 6.730704102567032 5.926631501156126 -1.050582062277455 0.023733081950881706 -0.9484305910176698
Ni 2.5345005119372406 8.452795085899899 7.393185169038772 -0.9260558228668955 2.393428877097446 -0.4758518026709934
Ni 7.3280703619740475 5.813548804881668 1.8299625169463811 1.3019073962931516 -1.4469762357417533 -0.4566973412297296
Ni 8.719334159440569 5.371966917519568 4.80089813500351 0.20644287168070896 0.1439324118513134 -0.5479571052776757
Ni 1.7006585023441758 9.009815656236345 2.3872639395587347 0.476334912954999 -0.6523793748495087 -0.48410607225998553
Ni 4.8850941016772325 0.29721635303331895 10.368490325993157 1.0180938598417628 0.0296666738264973 -0.24868069730399753
Ni 0.8891615103704902 1.2892892285830242 7.944832223571392 -0.4816265003712415 -0.8280212019889611 0.7777175686384026
Ni 8.349411590316667 5.554408929174708 13.399992063922157 0.5616364025369811 -0.6201356843244545 1.0584347255526545
Ni 1.3661550441619656 2.9571785218578577 12.520879653257726 -0.6132597831402277 -0.8107989245734035 0.08644871581254789
Ni 8.466352506394704 2.9850957979214887 8.190386686862361 1.1102712506079717 -0.638871313060745 0.5399491473715347
Ni 6.786706606221416 5.796109837982295 10.017700235000431 0.3248223747635825 -1.3675466315595157 1.7191951253770068
Ni 8.997461888352573 6.804556121298196 9.836549583976042 0.28679035969152544 -0.10189616071586967 -0.6351936070988417
Ni 8.493402032901544 7.872363938810897 0.15476826530583365 -0.8211049344851021 0.7001658982051683 0.007121955756761928
Ni 3.010101914181693 6.417185254634524 12.793541493025987 0.41055786655918963 -0.05128425209627298 0.7463025446622309
Ni 4.504245352650085 9.128660022955085 12.6859983979544 0.3065078927251108 -0.6382352221386427 1.2149213199198947
Ni 8.373596610222057 3.1039401646402283 3.3442321467480793 -0.609653296735892 0.8818732148124103 -0.16930354362625036
Ni 5.223563082027573 0.3280037340826361 5.839708188294768 -0.02824202556482878 -0.41581680096528395 0.2478972821707537
Ni 4.74149554598897 4.179856308656704 2.6235456124245573 -0.13417970333992374 0.06098476721348852 -0.9211275323273427
Ni 6.093878564927032 2.0907912385649445 7.364247120915862 0.022477869387541937 0.2939503677750744 0.39525903141859026
P 5.191344380741571 1.9461103285907928 12.34146263521884 0.0013557426969460521 0.9824503996065402 -0.17583465987654878
P 7.919539656651043 6.714730046209769 7.817992431097664 -2.4508457244540174 -0.8208905044814508 0.006288918332505298
P 7.058909378482214 1.6119521041032197 5.489696272711034 0.6539639457278091 -0.9816464156480061 -1.0344388768586894
P 2.7261238737416496 3.070424504339238 2.6813125401777476 0.0506227072528741 -0.401866766543095 -1.0078816951954512
P 0.5954525450618767 4.200971547871943 6.766454451242769 -1.3393650269189772 1.0714586486161481 0.9657713962889624
P 7.881097418221177 4.6922390953406055 11.618577802018114 -2.5362639421195223 -0.16069986111763937 -0.24230538990527303
P 4.617342044885135 5.619882032830623 0.8535772470937957 -0.6415077222423274 -0.08789676111298411 -0.027322084853720684
P 1.6821278505185169 7.174413375939329 3.6487273323540044 -0.5260258524222231 -0.9540065424435505 0.22733411330742137
