# total energy = -340892.84159462433 ev
CRYSTAL
PRIMVEC
9.06724407764228 0.00000000000000 0.00000000000000

0.00000000000000 9.06724407764228 0.00000000000000

0.00000000000000 0.00000000000000 13.27082823870941

PRIMCOORD
 96 1
Ni 6.323677329779185 1.9636749045849253 11.421764299518799 1.257952587978756 0.561582152260278 0.040595147813542995
Ni 4.679124078748185 0.39255907638284815 5.981878498912051 -0.5825230161780032 -0.0001172423041546368 -0.1867471930239945
Ni 2.8611779201760084 1.775992020456137 4.752283137185458 -0.18297924134113003 -2.4276469177400513 0.3862791965174831
Ni 3.175439530931101 4.177560408113466 4.696758054933202 0.5544661100407869 1.325298521523582 0.0183461066073555
Ni 4.785192699383895 4.703777915259425 2.4342675897943233 1.4601611098631433 -0.03445278236123099 0.5521739715725007
Ni 7.36062549127184 6.211080293443551 2.5705727490891124 -0.11932978281128481 -0.33423878298147597 -0.0993127162594096
Ni 5.318228774038664 4.307004383852515 11.634681323776599 -1.8863381710168288 1.108302042696743 -0.41487012078129837
Ni 5.913121587450212 7.8308436993028945 12.371053065925127 -0.9152250507999785 0.6255825663716387 0.2713272310589198
Ni 1.9048466253333876 6.410813544885116 0.24216341986905676 -0.19259156761991347 0.2736867324300319 -0.020772713770977128
Ni 2.1552113674254736 1.416258180902268 0.2610931052256282 1.1775662763102042 1.4076694677223305 0.9853416051114061
Ni 0.5614963402088267 9.225286091074585 4.9246450990806885 -0.13734421711083442 0.16402892549087236 0.0840493623424359
Ni 8.733705456114333 2.4193401859515666 1.423203689827465 0.0562325972404838 0.4166644936775598 0.4817799952299703
Ni 6.96653586409712 0.7114313807260122 4.842698067731796 -1.545887602797686 -0.38196539963347764 0.1064434137669199
Ni 0.767341820849445 7.256207109049166 2.461964393401251 0.06257499451874383 0.561349981644814 -0.199558742966366
Ni 7.601424290914731 3.827573855889345 3.85114143656607 0.511401417640829 -0.2956341832354005 -0.5188822993989064
Ni 7.241726720336973 3.748026924034576 12.74982902466151 2.5105634520296247 -0.4598978504448983 0.39292164153466524
Ni 7.973453313370124 8.938226212402506 7.133720429652549 0.995330598003318 0.7056384912839653 -0.7869704546952383
Ni 6.925687929752456 0.8098653818904222 0.3912017099519057 -0.06431023204229569 0.43067546324467115 -0.06387520138740613
Ni 1.7541490295934745 6.495764554180377 9.235951890224335 0.768236882841477 0.8809208782014699 -0.6981689223797976
Ni 0.12893983697111056 4.976665691516249 1.374512589398865 0.023427120674688686 -0.7840373402088432 -0.1980363927845686
Ni 6.152895788517978 1.9909491746201633 6.95522810407021 1.0875349853527203 -0.23537343867213015 1.0609600630776697
Ni 3.3975779423650434 4.351442946832137 0.399092025704786 -0.0017668620924356669 0.4156589352311809 -0.4850681790629388
Ni 6.150066808381344 5.699506385402282 4.610657319095231 -0.8820200248029197 0.3024722892031565 0.5292309896230821
Ni 5.22841772194457 2.926861035912466 9.462405403091045 -0.5727659367912393 -0.4387512982742702 -0.2756610825475833
P 0.18417386069007888 5.717205645744299 12.280213788358296 0.2754587367287901 -0.5612710487777625 0.09717818641491006
P 4.189909994479156 6.133292406930151 12.574640802802856 -1.6931776182673226 0.2200100688421824 -0.84866561771219
P 2.3715376754376787 8.552895542958519 1.2621458610615337 -0.6575228667236611 -0.7437666656142545 0.8885521694944827
P 6.532903985717722 7.812926825104214 5.619160629348675 0.05221344877876169 -1.085684562407543 0.12094932069257879
P 4.912034376087003 0.9555515118562408 12.65926901821073 -1.09827525458836 -0.08573549179560719 0.5542213410198326
P 4.263572284959965 6.227428534425444 8.266784098011739 -0.009395582282287044 -0.11818101391882227 -1.1059520544073276
P 4.701665247400978 1.0374740616462594 3.756148454510162 0.1398459004867656 -0.18940031437612542 0.6079118885647531
P 0.25701828575959224 5.352466687487155 3.60325567899115 -0.27657330994920754 0.6844590289928729 0.118590333542099
Ni 1.3730074268902714 0.8180984394675488 2.7513609008592583 -0.9667553574687866 1.1127258827960513 -0.9874134000387703
Ni 1.7426154951902755 6.435585255568716 4.854429268054798 1.9963865285261875 0.2943622585015124 0.08591855434069073
Ni 6.218216214493329 5.855880075903517 9.336890264189186 -0.16500285936836742 -0.6814186995046523 -0.9851680556480193
Ni 8.778461372634922 2.460840961866223 10.35439100069129 -0.16820902501049095 0.00804215357818615 -0.20193958449371674
Ni 2.6022174307456885 5.07564372732232 6.952812590261239 -0.12572308793213832 0.8018455720348577 0.023799416412442882
Ni 0.4934258191198827 9.066038084216576 9.087412298563008 -0.6857975452986382 -0.23232616720537408 0.6330732183217291
Ni 1.3200819235007484 0.8750742807642328 11.375501407040812 -0.15145108882586172 1.1291410909292812 0.9421421869057969
Ni 3.99220780569979 6.917291661782833 1.4995634854065067 0.11122000921995683 0.8630329421774556 -0.04107311589122604
Ni 6.083195883677261 7.94203531281424 7.79312124397457 -1.8822591158514488 -0.6564473742712952 0.8903198029178667
Ni 5.156097383579857 2.9198792580111586 4.943543049083163 0.7307378574547544 0.10055687307915585 -0.32377207912219724
Ni 0.7913963125304567 7.381326009387015 6.982353671303395 0.36504034174336486 0.42002749661252176 0.07991477134877205
Ni 5.317285780659786 4.363502381388941 7.430203895042585 -0.7164854613007983 0.7905466020822708 -0.351444091116169
Ni 8.342798431593327 7.100712941218614 9.24952827470697 -0.3130716619855576 -0.03168858935253252 -0.4283663554955203
Ni 4.815468227192293 0.29795961271774074 10.565861799526676 -1.3252036478169307 -0.09991589706104728 -0.9655217421720017
Ni 8.569660877165687 7.112935586167916 4.8504478412022465 -1.7059189770933911 -0.21145883683806163 -0.5979627477718412
Ni 7.432084441453925 5.934402409183159 6.807151848578697 -1.027550120158656 0.6613252711888868 0.6370229469980965
Ni 2.370893901111714 5.311509946214158 2.7040643425621145 -1.1936163877945314 -0.49809415900896153 -0.9897132518165408
Ni 2.338396898516536 5.22276882891533 11.167401809534912 0.5314848186542653 0.9525903788223141 2.2014775141646923
Ni 1.1934306589222223 3.1275735497090187 3.714504416139869 -1.4390580093359409 0.6802761012597768 -0.3698447051105437
Ni 3.6645266737837425 2.689163233727038 2.7019670890185137 -0.9174020038466394 -0.42286959404700725 -0.8968491193959521
Ni 1.1862675361403612 3.4703697774191964 8.308135264399938 -0.2507856594621423 -0.47327735707559787 -0.48191137860151195
Ni 3.582205165256506 2.631314216830489 7.02543033423006 0.33852198373786213 0.7154153681650711 0.4253406812953191
Ni 4.341042817932397 7.087429428718075 5.953439088019257 -0.5896053769460814 -0.9467812283397048 -0.3309547129135655
Ni 0.7645899122870463 7.65199231085706 11.35008773548005 -0.12129436273682336 -1.8598594080000097 0.6083142662094942
P 0.22056071097312763 5.514453002041519 7.8837347471651125 0.5697397483704059 0.22370680096747925 1.5408963202306816
P 8.526147173076888 1.789883038306531 8.09921326786073 0.37985632371027483 -1.3268890059391536 0.2794339193264542
P 1.9532113049769912 3.211799179482066 10.433936119097254 -0.3959090062977633 -0.2956259557052844 0.4296038274470472
P 3.997630017628338 6.272864494248109 3.714080069119374 0.4811122797389843 0.10541960048809587 1.266332070291703
P 6.9823400704373535 3.9612341001012616 10.328698964738882 0.4893212979123379 0.22120486048123195 0.33176898128474475
P 6.5324052872962 7.972102294010001 10.152940413230885 -0.2774235737646448 -0.925856819482212 0.1625384569882749
P 2.398476457443893 8.468651778697417 5.846648714758945 0.6344307607908881 -0.07159211041568961 0.1750810695399759
P 6.848543817565021 4.176191254265287 1.5449894712607422 0.526503306279274 -0.7953041713719142 1.8052880005120329
Ni 5.203519069844582 2.8425447336991416 0.5632018888104318 -0.42566798272775075 -0.27080529711717877 -1.4977349543518592
Ni 1.4635891947267172 0.999201224605455 7.176558624061287 0.12059296579442459 0.7610136256201603 -1.288603994316026
Ni 6.840927332581776 0.9000645120289004 9.26435231196781 -0.003183282823988066 0.13174692552871506 -0.700740796872032
Ni 2.3468385027062992 1.350638535874004 9.363617779409559 2.5527755666213 0.9836130524560738 -0.8000260023276158
Ni 6.050027905024037 2.1637980475196796 2.491385786822242 2.3646584898329728 0.25462843024700016 1.72551541116808
Ni 4.336237178597731 6.861591581720841 10.471506244725912 -0.8958990967778572 0.5012113644817046 0.03331404077109747
Ni 8.203851984113276 7.109408428241152 0.3032820849619844 -0.507586671880429 -0.06227828921393145 0.14796467293915808
Ni 7.738811172422022 3.8006350738831305 8.21916837272482 -0.20711727203991426 0.1856040805584868 -0.07682893333459673
Ni 3.145834979180751 8.348882552335894 12.524901528964655 1.1743577966752357 -0.05246515977825157 -0.8528053509121765
Ni 0.11458004260448601 4.908044788714827 10.168427266030148 -0.7289632820528349 -0.18512045605384894 0.22345894662273127
Ni 8.488826396658988 2.303823497039022 5.900276929560612 1.0286423247815704 0.36305802120601344 0.1759696427925163
Ni 3.656964592264664 2.6194814633743766 11.7967447099052 -0.6973700806275861 -0.39375802139303157 -0.5258643871436943
Ni 1.0352344523714245 3.596087115862872 12.504305284155798 -0.32089861422914406 -0.488943602857945 0.36233117034231793
Ni 3.386398030478923 8.315061732112676 8.106180538171595 -0.26812466496122206 -0.20929371086594276 0.18594680860988622
Ni 5.519403717280628 8.033387796393038 3.4275098216247923 0.17424160435781605 -0.698135755149017 1.2671124001011531
Ni 2.8968303236928157 8.38890536747404 3.551432752475392 1.3615796153428035 -0.749903888860244 0.6417082682889078
Ni 3.26635678679657 4.510146919048484 9.202443889920072 1.4179497666024161 -0.7566589481958904 -0.5847933002694186
Ni 7.152332761468153 5.983691947717586 11.561028100539819 1.1629937778126678 -0.06626375622424072 -0.679990708808874
Ni 0.2852962997086937 9.100158123492706 13.742208054860546 0.19743681152735673 -0.2222250742156302 -0.022640620217651328
Ni 4.708030452708404 0.31941905915803265 1.6203282951622682 -1.2552644996236317 0.3947496958823395 -1.2045263498388157
Ni 5.895376990888058 5.717831285582208 0.4588905000672846 0.7511547305482096 0.8097134048187088 -0.03173666898164857
Ni 7.99574966643417 9.05309005974506 11.382986416985654 -0.31620300852568767 0.1941815378148527 0.08801528896871938
Ni 0.23130720859472478 4.74485253070478 5.872341657435757 0.17131414629837594 -0.9882670062883173 -0.8481783936631263
Ni 7.895737964808945 8.786812304384409 2.6272520915060915 0.4701688933536032 0.49805404979964546 0.2379633108864934
P 8.402587838711797 1.6694700376190434 3.6895023974579657 1.2447175773457209 0.23887656672938218 -1.60018493068867
P 1.888262636006775 3.3300813778230514 1.5216331573698612 -0.9661184952157361 -0.37535432207486324 -0.18354848358103873
P 4.5106546847140345 1.178079814783373 8.22847045837281 0.8628717340092429 -0.7366935608175571 0.8631111037135587
P 8.667487372980242 1.789883038306531 12.535146607991523 -0.6342536117830755 -0.13518063380061235 0.17994328272828364
P 6.362131511700543 7.96443140556259 1.3213604049086503 0.22430869621753627 -1.5740823200643472 0.4216804588349125
P 1.7696993531009324 3.103889908308739 6.041212730380333 -1.0169281216684356 0.31658790266893216 0.11715745775031436
P 6.949933740282452 3.860125261948688 6.065670714420577 -0.7737812096984737 1.1751232140863503 -1.282539790399817
P 2.440847688785205 8.401028272739037 10.275297431037906 0.8868231026185177 -0.3013911403238358 -0.45109233633812634
