# total energy = -340893.4259442626 ev
CRYSTAL
PRIMVEC
9.09107310893994 0.00000000000000 0.00000000000000

0.00000000000000 9.09107310893994 0.00000000000000

0.00000000000000 0.00000000000000 13.30570443468925

PRIMCOORD
 96 1
Ni 6.400678952182945 1.9943268392531868 11.489502451552891 -0.7952751179061917 0.28953321254398523 0.6899321362923021
Ni 4.65083833582072 0.307630996882559 5.947609880515598 -0.16985864479877197 -0.013192073210241797 0.6413480567360116
Ni 2.785177451000872 1.5578553393380439 4.93535164348343 0.06504736731863636 0.29221718713405154 -0.8933012541436938
Ni 3.060218769832655 4.142883729870861 4.79095813297225 0.9339961607598946 -0.04432736116246559 -0.5157177856279956
Ni 5.027254208307994 4.52731792863597 2.4902157732802084 -0.24196549006735102 -0.0214370868278534 0.36422787314439853
Ni 7.447097804659099 6.042236130774221 2.5101206773451974 -0.5043272844028669 -0.5277454062164911 0.9630979632218576
Ni 4.963553060656301 4.693920930186549 11.040500725890876 0.5057861283365805 0.1603540477424464 0.5629870030276046
Ni 5.608837413491628 7.780458355999175 12.851141528549627 -0.1880646262838374 0.9314553966159119 -1.0645845472041342
Ni 2.0448641133784555 6.438806911830612 0.4090082778599128 -0.5415329469188868 1.3013186136692168 -0.3317108743532997
Ni 2.812041571353484 1.3143236790992059 0.5085064340735154 -0.9323781655404975 1.066943534354614 -0.15710057380215525
Ni 0.7122428318989784 0.2707812420814501 5.167695829439382 -1.6305373177282823 -0.6013144378528935 -2.3783336733272202
Ni 8.657946892268143 2.3885703056529723 1.5154000290007519 0.13790497471031088 0.5240815842116587 -0.6060570947442014
Ni 6.789795053479897 0.7057327146114977 4.694878220160537 0.8586391839851342 0.17600409557487753 0.22161469432514094
Ni 0.9806358491355449 7.389614950855524 2.841633013569305 -1.7284706371416618 0.9389110815630088 -1.4773522769304492
Ni 7.718620878287343 3.814932366892817 3.9218161107119904 0.2786420195527782 -0.2193824625605125 -0.38182090363581334
Ni 7.639228538849319 3.77266796908595 12.725002892376194 0.45870331591616487 -0.06023426220070916 0.050080461596158914
Ni 7.874269137020699 9.09370928849885 6.952816172316797 -0.04809042774932363 -0.46378021621844 -0.31892323567032815
Ni 6.934288565792728 0.5706057346842163 0.4558545763969717 -0.2764506683284142 0.5949450439914399 -0.7462004718667277
Ni 1.899261490174587 6.423624820125414 9.099917582166805 -0.021216486176615073 0.41603303074114795 -0.7505965440518944
Ni 0.14711537773066194 4.860796663923451 1.4179355457898157 -0.24766819687908317 -0.30079258750788845 -0.7199775336144568
Ni 6.3330050056838445 2.064973566583186 7.0882013387137945 1.4244708555503853 -0.033705105561929044 -1.044521200795356
Ni 3.370824365760688 4.55684573334165 0.4780004299262314 1.1177369628573977 -0.9155996605305781 -0.20971948554945175
Ni 6.162920123221234 5.5180630508111435 4.619860504991101 -1.1480808652565775 0.8943446078065436 -0.04867869615262584
Ni 5.4557073819453015 3.2176488788499746 8.958385032290131 0.6942618740159076 -0.38652113732496013 1.342611558880733
P 0.3478162663223729 5.739639770051148 12.547491512480066 -0.6257879975142255 -1.0536565874377208 -0.28192608962068866
P 4.04420013378707 6.220112062692734 12.467139155746192 -0.22938688207139202 -0.354083585621545 0.4932435157848795
P 2.491181245219784 8.37752365829296 1.4840912831183966 -1.1160156092909168 0.9038605177167788 -0.9950233511755445
P 6.333177736068515 7.809558880279619 5.702545465389637 -0.13753242186224057 0.04026116151289195 0.24582214480927989
P 4.622219638402776 1.003190800944286 12.806727092007263 2.011809805059793 0.33664687820233635 0.05866228972789897
P 4.10087388210456 6.297558912535001 8.238439334342162 -0.08826597152694476 -0.2820582443231787 -0.43457994050539994
P 4.817886799942292 1.023372982732035 3.828916255192779 -0.6928593372414261 -0.09642253919580814 -0.8618510060542125
P 0.08372969030781402 5.677556833371625 3.7151387508107 0.6339185970411598 -1.525440647797244 0.679412724818217
Ni 1.5501188363194065 1.0586827097877183 2.480103772918716 -1.1496818911951103 0.18346492272829693 1.0738310055030666
Ni 1.668848248097786 6.6761111871484555 5.031964293165756 0.9219274025208186 -0.9517097759895738 -0.5975619127889966
Ni 6.2740857623656465 5.7324941867695385 9.162654166986208 -0.24428976732515348 0.10393170308865973 0.025045630114718154
Ni 8.48162553381166 2.204194256627144 10.379287904267118 0.5956564682361677 0.9633720428188506 0.18045236115421825
Ni 2.6051469348104246 5.182657008073661 6.866209157443296 -0.7911117305571215 0.7234940314081475 0.8588055343596693
Ni 0.478581349483095 0.2606274227847218 9.407877675887523 0.6048972701081453 -0.2957144016540326 0.025454178407046484
Ni 1.6561934746524947 1.294396047352023 11.552411766756965 -0.7874368528086955 -0.254747986544 0.46528534000905675
Ni 3.9948901545002453 6.867141901520514 1.9169790821052826 0.4985996378904703 -0.9077179437896561 -1.3232218415002115
Ni 5.694320771757486 7.937924829308004 7.810807993692968 -0.07005073407049872 0.08491273878399569 0.8073816713617384
Ni 5.161165711791571 2.923207210497896 4.886293486915308 0.5209350681628769 0.19533133514857975 -0.38595575173979335
Ni 0.7553054259044782 7.64171040174484 6.99217415412477 -0.17800621360657085 0.06047748855976682 0.8725866473041617
Ni 5.002653765101846 4.676884259614369 7.024812923969083 0.22395774063602078 0.299070205500143 -0.15778423013274118
Ni 8.137546607549172 7.555599759450444 9.154670386785307 -0.057285978205662634 -0.9944435674126745 -0.7346132812497606
Ni 4.660793060621434 0.41947483006362246 10.793308090604322 0.21629662454633716 -0.390847789724772 -1.688035669055067
Ni 8.231002836728479 7.37935112957698 4.849237364759882 0.4573583718524962 0.05690545493779232 -0.4656414377968948
Ni 7.150683373492632 6.0957461857303885 6.822220183111593 0.671351030856005 -0.1548832544358623 0.8250690613391727
Ni 2.14732959577923 5.241821710359549 2.661832501522655 0.47962926743555456 0.395474489863506 0.5260363939451844
Ni 2.360506163680548 5.37668777649525 11.160465614473289 0.5324860062252701 -0.2716043959797065 1.7381097028933228
Ni 1.0779103289233443 3.2991412561226694 3.8148387288421803 -0.7183374269078725 -0.47953773616301276 -0.23409919994539682
Ni 3.6290471997693463 2.5055633225117746 2.6124552482965377 0.533439628387791 0.07268482925923611 0.31196068830956597
Ni 1.3611790687091418 3.1950030163124596 8.51506522717647 -1.4024550134009266 -0.07588173892997899 -1.4999751565362878
Ni 3.8240598040616907 2.5707190418238457 6.898036094479662 -0.28260871751001004 -0.04889518303880611 1.2883851934370005
Ni 4.196439240191415 6.949052468145568 5.851476330373908 0.02585347072799419 -0.5965656103139985 -0.10321590796855773
Ni 0.718794768121695 7.268812774461106 11.103556407368275 -0.09310401634553643 1.0000418874360586 0.2561127281020106
P 0.07456407063285521 5.882978716108552 7.982557451599425 -0.4247927792116491 -0.8931505874984426 0.7738161767014674
P 8.539417484093066 1.6630754168206594 8.160601568366168 -0.13072465491178778 0.911732721376004 -0.6429254285254605
P 2.0768192345423917 3.2697043621457635 10.532582484232524 -0.5284177496931673 0.212659284904066 1.0590579609589503
P 3.8890791572806007 5.862532893207359 3.804673091150711 0.7978732176506711 1.0287248571930476 1.5769035915632261
P 7.038535898477465 4.003381216567703 10.55761020786391 -0.1687816096845093 0.4009722797532836 -0.8783564599084034
P 6.302868099095382 7.7890221466496525 10.275050571762547 0.18013328725190267 0.24035058017174732 0.4867003153497231
P 2.53338200551651 8.48028005502581 5.862041066164694 0.7442898851075762 0.1513742128413393 0.7523150694048979
P 6.884133116728308 4.106064884717535 1.5215474124804256 1.3177201949556918 -1.0294776761986721 0.32053197491834473
Ni 5.251394610099414 2.9057250773547243 0.4968762245415031 0.09940913262795782 -0.1995515438775144 -0.09146493808021666
Ni 1.7033852339588933 0.868313825521132 7.158202599869501 -0.5263670378117258 2.0378514805391936 1.194119295572879
Ni 6.757967207336245 0.6902642541106622 9.256325854592708 -0.0983953466514628 0.031831799798616146 0.2705232471003857
Ni 2.727894600800599 1.4970087885698438 9.458732228456212 1.7867022670900454 -0.31757957715824014 -1.3781652876156265
Ni 6.3429870037031915 2.189448536420059 2.5815592371228147 0.04802460750839471 -0.5420104007759375 0.2306120127277448
Ni 4.236676328746629 7.042799611656949 10.401733763201332 -0.5603068850922802 0.11960694773207144 -0.5386311998910595
Ni 8.023290003626457 7.061890864699414 0.39606440829712136 0.5676941786952867 0.7626948699773252 -0.2516225535411408
Ni 8.02030813172268 3.907661310241934 8.092010332613741 -0.5092110948577294 -0.144851324121157 -0.14321147452488883
Ni 3.148874912532713 8.457770558581457 12.377871183841489 -0.5904101322355638 -1.3099891448600214 0.2730277586897943
Ni 0.21425022360813495 4.759049376279989 10.188776290156358 -0.718802025249117 0.07458847403985219 0.12490830534032682
Ni 8.718120703643418 2.263613508953598 5.837491532966658 -0.11764133936526835 0.8912029768537683 0.5707964717696944
Ni 3.7737588978312333 2.8720062880525794 11.927752165322845 -0.6815598530682069 -0.39195773495949915 -0.531776124642439
Ni 1.0375368742749689 3.472908023100613 12.61379452518926 0.33948743297492506 0.2959306314298968 0.5192898192499701
Ni 3.1766845044645704 8.37680546353565 8.186174756370194 1.0291812280041759 -0.1709235957281766 -0.04283303600512624
Ni 5.378805996475676 7.795658629850129 3.689591926918018 0.19872004911515453 0.3451410317162765 0.5045869658221568
Ni 2.834078332008215 8.394742150322688 3.675101665858787 1.9183314360939738 0.675346010948011 0.6210679663307368
Ni 3.407134110832881 4.3461055729714655 9.125011670630194 0.3011309446839136 0.2581341294074135 -0.30236353153943407
Ni 7.44019768034518 6.192811570842009 11.447695334711755 -0.08356830894095929 -0.3656255248228735 -0.13739023985742144
Ni 0.6468425627265065 8.865296082455071 0.014722992524891673 0.10529233088161222 -0.05519490000458881 0.5616479725012069
Ni 4.758058449336356 0.09113073273727638 1.5586698994678556 -0.3623381123208534 0.6966861671866841 0.7733106978199585
Ni 5.9990717167524945 5.566145735259524 0.21564297597294715 -0.8239416326029487 -0.3016783325469514 0.1549202783213848
Ni 7.868023569953949 8.90141491499684 11.488251519924965 0.261052331495473 -0.13904603029328957 -0.11630719393487711
Ni 0.19218073509104505 4.960516642315262 5.903062714309225 -0.46538638436329527 -0.8122135455327432 0.0931361551350525
Ni 7.721211834057391 8.875978093085974 2.508071549518639 0.9730154794458855 -0.35407355831921605 0.751949458535363
P 8.587336529229654 1.586819497525327 3.5148478696057577 -0.034378220369553694 -0.12234491548852479 1.4586310463718621
P 1.919389125525072 3.361369649968229 1.6099499142472051 -1.236112095064897 -1.3550171316339372 -0.6658262443830338
P 4.824532374215645 1.1078745051271373 8.295241266787222 -1.1991535155626767 -0.5976794122034674 0.43476660259490935
P 8.54902674812444 1.6088108028156713 12.724444700501525 0.6677640848356952 0.027246494420778884 -0.9406152087383092
P 6.226248536884954 7.510398945104188 1.676784754719725 -0.6477727293154328 0.7744401834387115 -1.3841258760744357
P 1.8222055564660462 3.2172397805704933 6.2920815411263895 -1.1247252212497727 -0.9649969800167834 -0.41087694046150525
P 6.812286367778497 3.9822626542735864 6.003919985917994 1.12130513982463 -0.42098986052579107 0.1920809465320821
P 2.3502877977663905 8.551135877031989 10.253921100180976 0.31048744619814916 -0.13199040899808884 0.5983160173462019
