# total energy = -381171.91829026834 ev
CRYSTAL
PRIMVEC
9.16907635667897 0.00000000000000 0.00000000000000

0.00000000000000 9.16907635667897 0.00000000000000

0.00000000000000 0.00000000000000 13.41987007243667

PRIMCOORD
 96 1
Ni 3.399948485644327 4.7387894915296895 1.4723610941470213 -0.5915748419676263 0.5003886114700931 -1.322457195420045
Ni 3.026079401804941 0.713396309515387 8.193460858012035 0.21928501775069975 -0.43428297809027144 0.46263427553945485
Ni 8.282197344083913 2.0576874143200414 6.927390225735289 -1.8481606315058428 -0.6772046614233047 -0.7402735648593316
Ni 8.616125931805474 6.450179234275336 6.157049368208019 -2.0199414330279923 -1.1649236478455292 0.6564075221722954
Ni 4.478323542673149 1.5757240906429477 4.264646472980901 -0.8744833501062422 0.13847601672243248 -0.5265552425631318
Ni 3.217291317792349 6.919131638762532 6.609688152242314 0.30817653867678535 0.35989119344225756 1.2079813982669518
Ni 2.1878424516002397 5.737411923390272 4.8805654160412315 -0.6672730041318895 -0.4191890598716264 -0.2045482257611574
Ni 8.907326624231104 3.756093745104522 8.44249388570023 1.1969516228153514 0.8977225231398409 -0.05369568975124301
Ni 1.527879850802999 0.22950381219660584 12.937532654365757 -0.4775741846787388 -1.534144603329145 0.11209932650111663
Ni 0.997586326245037 7.859548774627715 5.468288532744371 1.4155275303141686 0.5885617661729154 0.6918406661689247
Ni 6.772453926091075 5.5904041239740385 4.207128857703783 -0.24952324780995092 0.8797795655081753 1.0128004726533073
Ni 8.273000760611419 0.07083753233643031 10.394749759923751 0.6920090734259888 1.696991592696774 0.7322663782841389
Ni 3.1710333281425704 4.724403210903227 8.472862783127193 -0.8871753437516141 0.12388989137814148 -0.3699519201123693
Ni 1.1073218307303778 6.827019098817701 11.333496290097319 1.9328352861371036 1.4652184697813926 1.8348415457994334
Ni 5.175980215908495 8.912965606121016 2.7843147008551767 0.06669184490059482 -0.4503847687481405 -0.06315066451655577
Ni 5.055150129168202 3.978388829558282 10.21371551856692 0.33155198017793225 -0.508630025543279 0.40872235601234774
Ni 4.448817455320723 0.39662489726115413 0.38393397883216346 -0.00981724320073793 0.7531758747432965 1.8247682207238316
Ni 1.7445451224430895 9.06648344967032 10.619062958058763 0.5796798903022533 0.49339443954044704 -0.10267469075310705
Ni 5.257676685240412 8.51618300074847 5.379073420892569 0.6640020466901017 -0.4492113172653296 0.2174623627196642
Ni 6.656547633293683 1.2998999390781063 4.846075935750322 1.5637472566869264 0.17152677652981424 -0.2134612119800711
Ni 0.23435058589905833 7.814097663687387 9.202084918239313 1.3823384451567096 -1.5103626704181987 -1.6404373504508136
Ni 0.33082485541304657 6.9157757568573155 0.6748073352358912 0.5103174405480309 0.567690579150861 0.8689593349642197
Ni 7.177947153895195 7.015489461008225 2.3959300524142915 -0.4992812373385272 1.6909428153995332 0.4008897473418064
Ni 3.679211040800579 8.58172355773888 12.12212853782327 -0.4767393474822693 -0.4593651178698799 -2.337316350374594
P 4.189433457460947 5.731745434271627 13.064001722995963 0.025916205645129555 -0.5189344927930805 -0.9899158547456499
Ni 8.125818748746557 6.540457958971414 10.906663871151093 -0.9665969775140514 -0.06828927129470175 0.7201150876335857
P 8.684701453032568 8.0331560642271 12.45061986333228 -0.6473274142478981 1.3820332552114651 -0.011668694587179904
Ni 2.8361511564916597 7.337727476518988 9.50673022716117 0.8921110904903345 0.33790697586168256 -1.1368433446695452
P 6.846870148885446 3.6725359532951205 0.7196597054975007 0.15999897839587282 -0.043643704831879675 -0.16839208755557453
P 1.6035338988902774 8.071372774011099 7.445934495994494 0.3438343970897111 1.2933139981971855 1.394631660701766
P 0.45787982801522903 3.836845799583332 5.632708407947507 -0.3944635321004884 0.5131955334267743 0.3157947173436755
Ni 6.713249200785105 0.854094867568287 8.455108700796398 -0.2310321309842989 0.4011214037366382 0.009104790514745609
Ni 4.982301818411514 7.194213095151629 0.9395561596058929 0.2621067409019163 0.3975650538439476 -0.5452772444526673
Ni 3.584301932601401 4.1876454875934135 3.6138364440901825 -0.4678713555686781 -0.592589913495702 0.9336580606941857
Ni 7.7263220968058555 3.5315247297423085 4.305724851460577 0.10221394906660461 -0.8212568866819341 1.2353929575106852
Ni 6.504652716239526 3.1483215262867725 8.439460755278793 0.16406569226607876 0.35209560865723877 0.061816261975848386
Ni 8.033201909608318 5.980621670756052 8.469347359295334 -0.6733477495710597 -0.24207733305486695 -0.20095433776231197
Ni 1.3258575939241959 1.9753216024223297 11.55203847164451 -0.08913191907166586 1.7606531354114776 -2.6076027988738253
Ni 0.49522822627894386 0.9609375284987212 5.038919947309119 -1.1560561701525702 0.7250991711117384 0.26484342310678904
Ni 8.158313954954448 4.759520772916835 2.3565827955294365 -0.4937806192352723 1.4358976093300884 -1.921832764379013
Ni -0.050484933798152304 0.14076457540185508 1.330923508548874 -0.9799055216974996 0.5147793329741264 -0.07531892444797351
Ni 5.019693311333575 6.802730215847977 11.272878610142186 -0.2030400166467471 -0.05881938413105354 0.44222203043168995
Ni 3.1750035381561195 5.3044756503885715 10.923572564652215 -0.48180596337189924 0.00222014757977037 0.17358494461042362
Ni 6.359469562995802 1.8684376806487986 2.1952758217110575 -0.10590785297842406 -0.05743484507870108 0.051210461435544065
Ni 0.9607724851263334 4.1998220208451285 3.5179783364997745 0.4268128949654714 0.6752902180094111 -0.20905434116162705
Ni 7.057685549882017 3.3920447419222044 11.768084830638145 0.2873385188855116 2.3055619407811325 -0.41727204535457163
Ni 0.84471306875567 8.519043752536524 3.340876711943892 -0.2649892046560339 1.3636028164204195 -0.9275172379037703
Ni 2.264220856710775 4.080743227667394 12.742313852059823 0.025472433239491617 0.374012206224672 0.7105616396171957
Ni 5.174128062507254 1.671275034179189 6.7560587008596045 -0.836442593283437 0.10075484802257487 0.8055173644594902
Ni 7.8240919567930876 8.455181136498723 7.350048881175355 1.045061132459226 -0.17135682661085327 -0.39442907931812715
Ni 4.821577080934614 3.7150437907612 12.76016237587593 -0.08345826572565627 -0.45858555939137796 0.19194853471927587
Ni 2.209078032180792 2.5405309693165363 4.706254858293949 -0.6444148685867933 -1.1458452910578396 -0.7406625727676341
Ni 6.330110180863276 1.5160425733723022 10.715564734801484 -0.6072822254005541 0.3072105752190903 -0.6365246672054392
Ni 1.8697763657803876 6.632625513373708 2.6084068900262314 0.20446157958462208 -1.77429078079957 -0.6546486304996596
Ni 2.0756679728340584 2.7268557676660192 9.09597394959313 -1.4593710098616801 1.530195645983726 2.1590581686582166
Ni 8.76353717057643 4.72560435989116 13.177896320465473 -1.2331640681801663 -0.8823660952884288 1.2103498984991283
P 2.947353713176002 0.43813697304716115 3.295691504214634 0.03725374214513584 2.1298355243476736 1.7130928691340108
Ni 3.2964204457760125 7.82848394431385 4.311870883266771 -0.6554618704295744 -0.17697931500395325 0.14852671609021517
P 4.55118102250608 8.88325779909123 10.073424067499241 0.49483528575203173 -0.22499800897507702 -0.4654313786686178
Ni 3.230788198023166 3.8694968800873673 6.066224166567812 0.5599775267773194 1.1343704576490206 1.4822895663310665
P 1.1116037893362145 4.9086099526404015 1.2178321221583166 0.736501499411409 -0.37616833333572636 1.0561112196258005
P 7.525721046744835 0.2697679767058369 3.0388895182251003 0.6353013363212994 -0.9543047904102595 -0.14027913136944228
P 8.603766017028882 2.305151613062928 9.888108784444197 -1.1121185882293556 -0.29239587880376094 1.7718148084552519
Ni 4.2494175542476365 6.381869616259311 2.946412965953392 1.2690947206385048 -0.23815537229264147 -0.49833609981643856
Ni 4.064468117334718 2.471102723998772 1.7727913787196221 0.6577871761286413 -0.33105678570906855 -0.23674255110551487
Ni 0.7594195708133248 1.0203348044058098 8.779614228862243 -1.9548778677594394 -1.7479122908060414 -0.6516646081706712
Ni 5.1998564904472495 4.713015218208476 7.096695384761101 0.5959392895839092 0.04567230522613425 0.1371945789068476
Ni 2.897409754876232 0.5012073808975008 5.79107669282976 -0.1633637811030477 -0.2918451485066135 0.5276302207948654
Ni 2.4490786028612566 8.802010614495256 1.5553091423862122 -0.1957421974337532 -0.587143288558834 -1.0546672880904222
Ni 2.5694685739418484 7.022457958953484 13.424432608692491 -0.17988363313494182 -0.8191943477259506 0.1580374837941278
Ni 5.342188060979164 3.465470704482249 5.070738475690221 1.4855288992039706 0.7877284159071852 0.29139854788749814
Ni 5.785641264432458 4.090159868969738 2.74424217003944 -0.14659684605735396 0.3539851123704678 -1.094630458746921
Ni 6.675344239593394 8.916156444653845 0.6238410249349414 1.3429272903489389 -1.1035781548585122 1.4573372672611031
Ni 4.75300155970752 8.377839978382593 7.624686554274255 1.0060986351530996 0.13116971286900636 1.1434513369043664
Ni 6.5906769895584985 7.816958415475441 9.24455883012329 -0.6061709946142464 0.02479134801206698 0.8088040056305619
Ni 7.300308476368197 6.592226563443694 0.15967762896986248 -1.3253203759004528 -0.13064829314789755 -1.397183480589342
Ni 1.2773990259759147 5.725987254390544 7.198391443195911 -0.011030546782548745 -1.1578551710345222 1.2948276066282345
Ni 0.8977946849460556 2.3456147465266484 0.2996600821681247 -0.11613647268496773 1.0217895635257952 2.047333966108332
Ni 1.3373372773813856 2.389268718523198 6.947359556886577 1.382420977568187 0.019514158773527683 -0.8807663549014767
Ni 1.902216557530817 2.2608374675768275 2.4250647921788446 -0.5997535211236767 -0.7071677834442982 -0.0604162963045282
Ni 4.914863262638646 6.063895221201896 8.912806981102 -0.9747923688406501 1.6841851849607252 -1.5499959685391047
Ni 7.808247793043868 8.251517614972286 5.028371841998295 -1.2235957077654411 1.4497612546860579 -1.513899994147496
Ni 8.252617904121538 1.615352838168486 12.517155265095136 1.8600386138903513 -1.5573884043484338 -0.7310918983600635
Ni 8.629191865452833 2.567222150262127 2.5917127529092148 1.0200862076814432 -2.9944370965638303 -1.7203235825544954
Ni 6.515958187248083 8.565118360661426 11.638865039134812 -0.5336427455375327 -0.27931153481597704 1.6731307269187765
Ni 0.47517637344146124 4.585821792555012 11.201081992430659 0.1886634362101009 -2.0536036011671275 -2.4283411155935983
Ni 8.933916945338012 6.574841994885522 3.9501517423579933 0.8158118044069627 -1.871206971802345 -1.7485370688742337
Ni 3.792999276985663 1.7360087124601473 10.639715385390215 -0.019527785620282498 -0.2999976024104188 1.0778671232456531
P 1.3420318444181916 5.699901232477042 9.557376536701213 -0.46298728800349936 -1.270579018493515 -1.4315928113071474
Ni 4.6298608657538 5.890581342042312 5.1654156062604315 0.8716618214970473 -0.10900808917030257 -0.0646735289189854
P 3.1300475573329556 2.0552392709629568 13.170783868023188 -0.2809300442560065 -0.00036689642111549715 -0.21826249002345635
Ni 7.468139247934012 4.415744597309475 6.3896028151633 -0.07902465543433486 -0.2170389020290004 0.9530362081104813
P 6.426321297889068 6.785198942069904 6.833357681225014 -0.664400824790417 -0.1581333859420438 -0.43607143744926186
P 4.04753283351249 2.6805427635587784 8.688158194776465 2.730905707400245 0.2590396719408184 -1.520120521135911
P 6.438736227123122 5.710381486623661 10.13843006734464 1.3543476163707384 -2.395206537823159 0.5505816873847162
Ni 6.238465263806877 1.7213932049275908 13.228073173301834 -1.921397733724123 1.6468681936778218 -0.3484842371568966
