# total energy = -340867.61093677825 ev
CRYSTAL
PRIMVEC
9.26835383317627 0.00000000000000 0.00000000000000

0.00000000000000 9.26835383317627 0.00000000000000

0.00000000000000 0.00000000000000 13.56517269441616

PRIMCOORD
 96 1
Ni 2.8620861260061368 1.8994285801430033 2.1752436610252235 0.09358609818827754 0.2255752216347857 0.5014589617161364
Ni 7.442413787779612 0.0539853791690078 12.951551894932539 -1.3761112333000751 0.6109133943952383 0.3988513767555389
Ni 2.010954678919021 2.0259972167993068 13.264459853726462 -1.6513128597127367 -0.1432901502816242 1.8067733268083075
Ni 7.309449987144629 -0.004978959549777841 5.488631874829988 -0.05944724752303956 -0.3559026411081548 0.7652695726830369
Ni 5.474139877153084 0.80546163476111 7.1893247099056845 0.684495281547447 0.14941940310781365 1.8957538079037737
Ni 1.107392155560324 0.007761319298183104 1.5941790619223901 0.15713811190831004 0.09482202747790766 1.548016733325547
Ni 6.785361664915035 6.052967095698738 8.690663600729472 -0.8416917574975181 -1.447378099165862 -0.3021146487534216
Ni 8.736359364445537 3.862336114039596 3.3601878384336694 -1.8125899334900848 -3.246564871876164 -1.302298461083983
Ni 5.232689997720353 4.306243909342294 11.64190201993984 -0.12990447300333757 0.5914833106950845 0.23128332776315652
Ni 3.9107261881449387 3.3526322765852354 0.12912021440026067 1.021173527208351 0.7485689720989044 1.027019958686799
Ni 5.9031163548186045 7.79328584972291 1.9300252690218689 0.19616771500694602 0.043439302130557446 -0.6058416362992856
Ni 7.125982927785261 7.006170920897738 10.89511277075936 0.5068904171443529 0.31418109299965247 0.4909207811889739
Ni 7.495299013377215 1.6639382520701151 7.552043581410648 0.9420249446016422 0.6219657955546578 -0.7296343399779305
Ni 3.232727586161788 7.5753590517074105 5.8191738031685984 -1.42619529444066 -2.105319027263549 -0.5779608507286175
Ni 0.5284796681616205 7.446037714034197 10.314875835632318 0.8771151313021346 -2.430354032258569 -2.182919034436215
Ni 5.177357926774387 8.687533677721357 13.438174751436021 -0.13566502963619861 -0.5159777241576017 -0.3485284601312707
Ni 3.3030836582808565 6.660424258490975 12.810609895525314 0.152939243335614 -0.1721554112527487 -0.08228301447063249
Ni 0.6541251768001319 7.667412339586028 6.086245119271854 0.1549002237167268 -0.18438409210845663 1.3333797558698197
Ni 4.640266104454811 6.8286078027766575 10.673741852548963 0.9573024395860029 -0.6385152152729068 1.938567046414558
Ni 8.96632575377742 5.657050835296913 4.3339368230406965 0.8903087471742731 2.9125634017164743 1.4233051173770583
Ni 4.0295557495516805 4.0957781359685885 4.338440316051189 -0.48626939845989153 0.5565597593450221 1.532806858354328
Ni 0.5691454963831493 0.43976576808230444 4.146561298971459 -1.9235260929210358 -0.8547660741829731 -0.4396187884808881
Ni 8.093914166842408 2.289338947417024 1.2058396805822624 0.295391213986659 -1.2809796450015487 0.3903132573775407
Ni 3.0054490193716683 7.267334588421266 2.2457684171796717 -0.5797444249916016 0.7499285714505923 0.009533136301415841
P 3.7046721510811618 8.77929037828502 11.765846785694167 -0.4116127901862653 -2.063434728324937 -1.6949527078898745
P 6.046451443123359 2.3286645717091075 12.505108278086992 -0.8190645070163055 -0.9460129827151127 1.4577355311407862
P 5.165781753137617 7.113971141529654 6.7856248861570565 1.012581928884598 0.22343426403238295 0.5127733582876911
P 6.472489852700124 7.975789000308679 3.9376034867272187 -1.653280782072385 -0.48203659132546656 1.8956324518345613
P 6.808059862862552 3.2061922898270634 2.8527695769751675 -1.0837117549518884 -0.17099198707226682 -0.26425978268917716
P 4.242069829069283 0.08661091064922555 2.237385191355446 -0.47824087172846025 -0.4862007500054852 -0.39501323395637133
P 0.8891595018762791 2.657885759660818 1.6289604124481745 0.369251551611235 1.080525643914423 -0.253120478242906
P 8.667560375729972 5.376534845472684 11.034250221722164 -1.3458503775330048 0.37725025354599545 -2.0125312566068505
Ni 0.4098030345891514 8.081633598332624 12.458173335495637 -0.1712807219572792 -1.1605694846418917 2.037478670580807
Ni 0.3775408225697514 2.829609815018755 7.516841447631773 0.5500836647023752 -0.2192798755443772 0.1162406023629998
Ni 6.518266251092441 4.700093326893039 4.710316320905333 0.30143304930536474 -0.3113014574590123 0.3406961085710455
Ni 8.626844498399045 -0.019868569595790687 10.413114822698429 -1.6106130680005293 0.8935560504669773 0.5315755785958587
Ni 6.806604731348563 5.395507165276101 2.379724858484389 0.7125547587878244 0.7909430661897411 0.42483931617886833
Ni 4.693475722428144 5.669007011430967 1.2474935152967292 0.6038891405586051 1.8404768897083401 -1.2419513274544933
Ni 5.828710012179705 2.163641535998396 10.326243471313258 0.391411632648042 2.7731587025321853 -1.5254095374489922
Ni 5.770356457962651 9.383373860369664 10.983258520763467 -0.43846024939641265 -2.633164963613646 1.6948735179125067
Ni 7.690944689356851 3.305558308689998 11.616725464241746 0.8580987381006318 -0.9485658310439533 -1.0275452350626495
Ni 0.3645623470344686 4.185514335449134 9.568845664611043 -0.16682294329624173 0.4182251532964603 -0.17823221357444788
Ni 5.537859808100073 3.973584162207845 7.229137849596723 -0.6173498940492013 0.3451232911044637 0.40946694748785606
Ni 5.133184953553536 1.999619482475651 3.58930431974114 -2.1646292349880913 -0.17872046606477607 -0.9038201513971466
Ni 2.0548217964713267 4.995114290089201 0.9288252747451998 1.1600586064437441 0.025681978147136415 -0.280027329936079
Ni 1.6680441327114994 0.30727187297445047 11.207789947548832 1.349159901522212 0.7157113021389351 -1.0679007560615608
Ni 7.600633851953583 5.15575339455076 12.79926913806979 -2.0897396847680527 2.124577618382844 0.8741197961192366
Ni 0.8579075403984385 2.6637433591311446 11.445994049553542 -0.6481612230031031 0.45200327818816993 -0.7464619530582306
Ni 2.999146538928912 7.846532541110612 9.522181357944586 -1.6548712664879563 0.5196657145321502 -0.2713406007953585
Ni 1.2287056357297994 9.227294785875511 8.31360565938188 -0.5241872565515875 0.027001725399824466 0.8203868253721549
Ni 0.9522491847789927 5.878703511456513 12.215668717424105 1.199775722527708 -0.487541837414412 2.304482334563709
Ni 2.2775125282332627 5.625686726740607 10.370397907826925 0.5938389554114547 -0.04950556292929539 -0.26660540010321826
Ni 2.0792902499549704 4.538786900972834 7.997035774083645 0.04654030965338437 0.9198322105546869 -0.44151086329727834
Ni 5.175291083923305 8.124184609674824 8.735061794942617 1.6057894213596409 -0.1352384836217413 0.031017274317120775
Ni 0.03558306311151729 3.994419421083312 0.020605403706377687 1.136186684922153 -1.0309678875909536 0.2100997517070059
Ni 2.7345350438690508 8.95993058979874 0.2215572121175993 1.9237716332729384 0.291906083651536 -1.117966048149068
P 1.438559697766415 6.790950482131186 8.215529795338991 -0.4409033116202664 -0.014001970706046852 0.5032883016153913
P 9.04850824508025 0.3243460339621659 6.6257189084646475 0.4415226903718203 0.7737439287026352 0.5451741432158999
P 5.644760998433538 6.49498414686861 12.923350148621921 0.7614792524026692 0.022009157281239516 -0.5972996602665455
P 1.6836798452216915 2.3751082915600694 4.320886981182753 -0.41512363155300114 0.019430340810469765 0.31123769410061236
P 5.816512858852252 4.24715815519145 9.51929148529451 -0.7679160091669484 0.32594594684506445 -0.5813387660619149
P 6.819311644123591 0.35487969803660396 9.17818178018997 0.25616903526124274 0.5766130784514716 -0.2673888152364621
P 4.026200605551272 4.101904517693091 2.2533378815584943 -1.5013614953608532 -1.8715435292061575 0.6781757670873223
P 3.5624307285002974 5.3903076189108265 6.321601056217653 -0.29933117247101354 -1.4189504399527884 -0.2940089889271517
Ni 7.262468702785314 0.937521770920845 3.3972343745774096 -0.3033294949971292 0.7331045579147182 0.12158078362899062
Ni 7.807012281393091 7.984352959027955 8.150566051339917 1.1876270029803158 1.035265743635359 -0.37140922138418614
Ni 3.304890987231353 3.4437031189830707 10.059525279481871 0.26844322464290543 1.316338741227133 1.093218151780427
Ni 4.527423899468688 6.9616735553011555 3.879992327632907 1.2220967546224113 -0.6945405815985909 0.6629460946217615
Ni 4.8316205327212165 -0.09462154865904124 5.1900212782875315 1.5960958482209608 -1.2458558047152222 -1.1623638575381532
Ni 7.637874096687402 6.7448404230095464 5.916829810793756 -2.411120123729622 0.7581612437730298 -0.40774405125947843
Ni 4.090782493382344 5.608688566252348 8.643063190350192 1.0617020834500168 0.08404087770200365 -0.5149153443313584
Ni 9.072967430210301 5.422014656550049 7.129528999869671 0.5768737883120257 -0.466531553711332 0.7127573617169337
Ni 1.5703927592631388 4.308014164878422 3.237735277607702 2.8004936429017127 -0.03538712125004228 -1.4655156893068373
Ni 8.346004116199085 7.805659101768617 3.1910301901854377 1.4474122948379071 -0.569927953121812 -0.3579476965626416
Ni 1.8033157533909625 1.0331248382253095 6.168328439191245 0.6794070683912622 0.7714355922844327 0.030429777244766944
Ni 7.935193611574452 7.146104523434121 0.20240972043128871 -0.8141017636943915 0.5718598800372022 1.3699678394064987
Ni 5.707405800363822 1.5421613542210255 1.2965416425071243 -0.47942820716834206 -1.2530114419233969 -0.780879511306152
Ni 3.387416407617097 2.510416985653902 7.943548105502542 -0.09181846476489347 -0.6400247099388977 -1.9216761841964907
Ni 6.285120816478402 2.288375038643426 5.454718969035801 0.18398582822877346 0.5317247025792132 0.8835099790848848
Ni 3.9881632824085163 1.4984796037405657 12.27375441622234 1.3763845415661198 0.6188506469644439 -0.46790503702009095
Ni 6.384570250523668 3.7011687134232765 0.6621664003768021 -0.7791105923311873 1.2758333249139189 -0.5033281537143912
Ni 2.7692821014865436 -0.06335753832153078 4.1299440678158446 0.8669081088621458 -0.30192130179569293 -1.6649034539129777
Ni 8.433775424718066 2.141128705122725 9.63431082653946 0.15654752951216264 -0.10737518155256992 0.00629406053882787
Ni -0.06449754581338238 5.876006420561159 1.83755212472552 0.5589066623106439 0.023223489304314844 -0.3688031512199068
Ni 3.699908217334725 1.1841155865972957 9.817955838287801 -0.5265310741934157 -2.3744839605638264 -0.0007106529137794213
Ni 3.5504374789518747 9.042215032991086 7.428111791351351 -1.907240468387135 0.8526328298900542 0.806392825085908
Ni 1.4956249508341408 4.373291179228915 5.546459913398358 0.4752205968448976 -0.5629782612768562 0.8696705020986313
Ni 8.711371883160725 2.230179046437441 5.235207282556019 0.3793385035335919 0.69559062012966 0.6130373827167765
P 2.489248066049113 4.118309503551443 12.273903636715177 -0.2083529442192283 0.3187779683417155 -0.5745433404066362
P 1.6187179548933355 2.1209329626451265 9.447179060169702 -0.5278909306554198 -0.3141664377116331 -0.7054788257776494
P 1.5437369743317149 7.180842312698021 0.6855402613011965 -1.3969803634396007 -1.0711310900734006 -0.6576979588489447
P 7.584256671156009 3.8404257261474237 6.5869354828577125 0.9410119299560955 -0.045032357649290186 -0.4139031288823388
P 4.042967057199723 1.7299474663544 5.853724371689935 -0.528045196845097 1.5222493945534556 0.0919112815890159
P 0.038668498022390405 0.7754785108900539 12.676639551690208 1.882985966715144 3.3343749868126125 -0.8322624937638182
P 1.2192611834192566 7.31160024517804 4.08756637468582 1.0786618512328068 0.2528911358409193 -1.187943248669154
P 8.39484833963045 0.19422113003250108 1.8799020127947679 -1.2442136411261087 -0.18660655368107215 -1.8944474303875247
