# total energy = -381172.2068155648 ev
CRYSTAL
PRIMVEC
9.18534013674008 0.00000000000000 0.00000000000000

0.00000000000000 9.18534013674008 0.00000000000000

0.00000000000000 0.00000000000000 13.44367375852430

PRIMCOORD
 96 1
Ni 1.261578889695114 3.7360451818721243 1.1252096582741908 -1.327639768062249 -0.7506091424573846 0.19997346190628143
Ni 8.357033573060043 8.691875956548184 0.11278678956632693 0.16348256606909908 0.2855482597543082 0.6585297107216207
Ni 6.673241346024284 3.2970410430551986 11.292470744606783 0.737905321737471 1.18604346054328 -0.2488326495008295
Ni 2.9245663216850444 4.939728873697986 11.875899658003657 0.31480535684721267 -0.5177188752184245 0.7705966413229052
Ni 4.734188521053169 6.6043145548437545 5.8462098681897 -0.6732353923629115 -2.1949032033812843 0.17780566755999058
Ni 2.101394523708411 5.796142417048065 1.155225512248036 0.9132072490390014 1.1642613316711818 -3.5949012706012864
Ni 2.00362576500298 2.7330336125037555 12.519327212124306 0.050243469536584436 0.7286110409197387 -0.7456479417973675
Ni 1.4868034259086769 1.9599127320567997 4.456456907400324 -0.567226752140565 0.7343877955025159 -0.4201583657634313
Ni 7.473945802419418 1.0623856069737714 11.552121935050705 0.5324227570875024 -1.798892124288018 -0.8455180732221438
Ni -0.18304729211138338 4.129747223927007 4.522223023095083 1.2991887118104077 -0.4429262555875662 -0.6636053254723152
Ni 5.84821410937248 5.226430890371473 9.381290833793093 1.7878086127803465 -0.838128465626292 -1.4447959402609827
Ni 2.404758747098514 6.430160508897215 5.473417334056373 1.329947333149503 1.5593090184099145 -0.4505848005740885
Ni 6.014597357699254 7.8242746691072345 1.9397068211774116 0.09138214855842326 -2.151718697574011 -0.21825940469966282
Ni 8.059281592395328 3.10529707105446 2.024657437946218 2.047222123120816 -0.21245256820989863 -0.13418921642162052
Ni 6.928538685319543 5.665187025009045 5.659504055165843 1.1900901198088278 0.08812121841896436 0.5740242346783727
Ni 1.1560301480299406 6.342477253485524 2.977665853552785 -2.312320085440573 -1.2508188051474525 3.0808906974723844
Ni 6.560720931317263 7.250108252542244 10.727029482485072 -0.3374603752425672 0.20705582267435954 0.8318130649312255
Ni 6.2034387622675515 1.2627178718521483 4.6659497118368485 -1.3879259665468162 0.3602588611943215 -0.8273822828533817
Ni 8.404659560836036 7.643011170019207 2.4775617517489508 -1.1869515741798462 0.6002913959050178 -0.9336806864020047
Ni 2.9784750820046777 2.071560539466092 1.5310188969515488 -0.7123305585921603 -0.8226748500753831 0.1348502470443871
Ni 5.353307991461113 3.7817146922332108 5.8652189292702035 -0.7238038493390826 0.5859202147850102 -1.3044306769356373
Ni 6.8895009904211895 2.2971524892786985 6.826065195478363 0.11325966535780495 -0.03962918435584788 0.4030206776418801
Ni 3.520327472533808 4.654377102000981 4.33555762556712 0.36317397795858747 -0.40670198314820927 0.7861201908798009
Ni 2.788347729839729 9.539342978761558 5.337407249428514 1.294936621402273 -0.7302334070145101 -0.45074163786692695
P 8.864238861199388 0.4991203518923956 7.5966573518299025 1.4638465291345304 1.2747043535157982 2.234821636842777
Ni 4.446567970382072 3.2660037792760135 7.915016642730962 0.5926621614945342 0.30480736509423634 0.9371691591712377
P 3.069042534168859 -0.32678775886311345 3.104991199233256 -1.3319772190953383 0.6295996579508318 -1.0890133696704598
Ni 3.552641498569669 0.8503071293339791 12.504108940851932 1.119515137803743 -1.2591229541377735 -0.24840764614826896
P 4.6691930553824035 2.099153300754246 0.3331623848065153 1.3939176653538767 0.9760285552405964 -0.49777354244474914
P 1.4266761904252352 7.898262582614586 12.857677476949313 -0.12089507041587565 -1.0481757668288076 0.2699596612874319
P 2.33858755791081 3.2615488893876132 10.35575620358379 0.25976832257672683 0.41871854799311115 1.0128470096205267
Ni 3.6050254924532723 5.202668415853346 9.668663380284835 -2.1335016603453516 -0.06817177188023098 -1.4987564536378382
Ni 5.657241705929732 5.957804400627131 3.7394924399651486 -0.24802789421134705 0.10708670377787365 -0.03442398600582459
Ni 6.991256186676241 6.534129372086502 13.047663374878631 0.15587955691086058 -0.7582527750455716 -0.14403962685313904
Ni 4.009997946658809 7.5462436133711694 11.731823007808803 0.3715344341081408 -0.17653862792210887 0.4384209115180449
Ni 7.8440047793758625 2.235932198338103 9.247311627833946 -1.6255154390336588 -0.31674062619671256 -0.756340388514207
Ni 0.12334533786883468 0.8106227865013089 2.07942686462161 0.527417333453111 1.7741403712646346 -0.32845225820668594
Ni 5.856389061951195 8.513744658392001 13.060340981113619 -0.30514058006393896 1.397331319021116 -0.426996214620871
Ni 1.05474340411367 8.388621957237794 6.332265911034112 0.9838495939469121 0.9843517303943111 1.1240441360223479
Ni 8.881700192493922 5.846018813118197 1.062480215975525 -0.03169347444853897 -0.2247678952421419 0.11059343137955148
Ni 8.814454318529016 8.007880429889164 11.332102731001589 -0.7038132651497685 -0.9923787144638457 -0.32119094865858233
Ni 0.3010724810660706 8.753408549047967 4.099527455405693 1.344827335585129 1.3920158203454736 -0.030748079816134137
Ni 0.898212351445244 1.922583510393997 9.206510347660185 -0.5360158737553994 -0.9091451631544859 -0.8708655508479969
Ni 1.2179577101486943 6.509659626390216 7.944081814017282 1.0292671028497629 -1.0524083168529164 0.14434533101901592
Ni 1.8560816489671539 7.064674609105073 10.796694774999679 0.5372908838130811 -0.35190714679551655 0.0927448332339048
Ni 8.449667726718843 6.366083577224058 9.424794440987819 -0.14474745155344104 1.4995606947066884 0.07886190460422547
Ni 4.73643892934731 8.371629078282039 4.15482136499372 0.9376628109782045 -0.1643163748243041 0.7380256493654191
Ni 5.218072230993238 0.7766958147656475 8.273666508903114 -0.21288605620289142 0.5508557669817093 0.4505333785108628
Ni 9.329274253508533 6.739605427351486 5.08157440481265 -1.78281218800702 -1.1610438531751488 -0.08583113683320702
Ni 5.843281581805324 2.9499270453590105 2.2070213407633807 -2.0956071992924232 -1.5097440629975936 -0.4922639254804296
Ni 4.402129295577781 2.8253554646033687 11.434530294142888 -0.6813279395630588 0.2022843694276452 -0.29611935040193516
Ni 2.4620017858294654 0.7595578074382713 7.732652739913799 -0.21464906164058517 0.48556414486275085 -0.12774526056848967
Ni 9.130521867106042 2.821727255312816 11.113481535696831 0.076687522660726 0.7512855996991191 1.3108000707970908
Ni 8.44085898568178 1.7320060765702208 4.192920318146518 -0.026226023576064506 1.064725957878005 -0.2583328756817809
Ni 0.8616005048345736 5.373377959308855 12.316165862533296 -1.5477125718215667 0.9036640854352567 3.2998550986588713
Ni 7.153744850853154 0.6268057628999297 2.5200568086143025 -0.3792477435919985 0.07834536997912314 -0.013184874121390197
P 3.6202639714735945 5.292703118298914 7.511087643146709 -0.3470441622762604 0.7204619294500431 -1.3602621820829606
Ni 4.977434694299807 5.387110042573099 11.365201185071408 2.4742610180541647 0.9616239497794922 1.8410358475356035
P 5.693744246994688 2.7130830540757027 9.472479214939657 0.6404522843946195 -0.7531622478965416 0.8313410103908134
Ni 4.9384153700814055 0.6127521927365223 1.9987915205735673 -1.2301021414253912 0.34487929341445767 -0.420745605725469
P 2.255469416467232 3.432221691483217 3.119147645204396 -1.6728329931726997 0.21041908271963763 0.6871013517117264
P 4.454926629760308 6.0705360781536015 0.5713024275604487 0.22948844064626284 0.6498229269762421 0.27423694850654706
P 7.313450357017314 5.632698477513638 7.79067561400872 -0.719384123004832 -0.19490453202380625 -0.8195494170725239
Ni 0.9413779381288498 4.863720185395896 10.128127863898486 0.780931704700326 0.2318818805791039 -0.804749118834898
Ni 7.608795778608297 8.933312617819533 9.20587839626983 -0.33991680720285977 -0.022096574788723233 0.5325687957470635
Ni 2.934798790418401 2.6668899793359797 6.340776128521953 0.022735493924302783 -0.2866471492454418 -2.331827816456197
Ni 0.9827395240411531 8.453608237568583 9.173075710147241 -0.284224141626246 1.3956798994606223 -0.6596802793862961
Ni 6.537546318557604 5.061581593820707 1.813537909799929 0.7519988237160597 1.6048692235382167 -0.545292671071635
Ni 2.091364132454528 3.6504102572751 8.225794354015763 0.167515341377576 1.3469973466532543 -0.4751851156212719
Ni 5.365763312468681 4.257983755333107 13.314976975930602 -0.18365826968602564 -1.2295241574347342 0.23163505467562043
Ni 1.0084676613141623 4.948262054535767 6.186012335264926 0.501816087945239 -2.167911505283789 1.7989394325861856
Ni 3.677920350503469 4.32542252143751 1.8694095772724508 2.3717341657328315 0.16648767144401003 -0.7585134849061259
Ni 5.11375432488486 0.4019954855192884 10.765599643578643 1.7237950860428635 0.5007588503253183 0.1388907356623479
Ni 6.89069508461808 1.87440640221944 0.17418527610245818 -1.1528716017770018 -0.18309622653496854 1.247031570190878
Ni 3.9134416528302216 2.0678864034756588 3.6666949465186978 0.43076133809025813 -0.06551967896936457 1.7454797701051485
Ni 7.829923653192527 4.148935399137045 13.234006366973432 0.8678308777867312 -0.1993635962364244 -0.5863030520457257
Ni 7.880378725681152 0.26765713276707714 5.856454277865025 1.1564282087800084 0.8487484072339834 0.12209114760650586
Ni 5.931525142955556 8.364923780099499 6.508485739941273 -0.2659399986050775 1.281930438950592 -0.19539252740381835
Ni 3.4529989305091173 7.896149954420087 7.363677633074532 -0.9563002235737337 -0.31034629263459457 0.17840319193467338
Ni 1.6500544733036053 0.7988361582439987 0.21932019967693636 -1.9911198808106096 -0.733710309819517 1.112131186634846
Ni 5.401136056716578 7.534008740523026 8.588746633432711 0.8832767800281563 -0.7689279953712306 1.0987336822820173
Ni 1.3513655879613284 0.3386515439762226 11.432097097583226 -0.5867262556260734 0.8087055323794846 -0.8851395442685078
Ni 8.314753453150132 7.518439589263565 7.163529074995678 -1.492543639958907 -1.0924997855571634 0.5192448249446477
Ni 0.267507411725467 2.554222599189342 6.681263821959395 0.3494656272335594 -1.0186949837608714 -0.3329203212803686
Ni 7.055379045049278 8.018829355140655 4.466714176551616 -0.06157329272710686 -1.878522274516836 -1.5588230799124314
Ni 2.930022413630838 1.2366774330199521 10.023871499567948 1.5100862768283607 -0.4039889550924204 -0.2226513631197714
Ni 3.3255707090209135 6.58981090302152 2.9539786988224614 2.276367321495047 1.1167103213650962 0.2544052584926006
Ni 6.921897684516835 3.588243876316968 4.0745892573706275 -1.3831755963460244 0.6253141432016005 0.5139344684753278
P 4.737972881123316 1.209084671731798 6.21686589224459 -0.6412002183042377 0.5055146198427487 0.021230627244002147
Ni 3.560605188328933 8.048222443064121 0.771281975383744 0.636360116603117 -0.07422594849411088 -0.4808662251664492
P 8.218142047281688 5.386816111693864 11.282884923807742 -1.8810139305904379 -0.45142555130782896 0.9734988468402073
Ni 1.4220100377173852 8.155204097765564 1.6891436061058254 0.31497093589079944 0.1704890792939193 0.13398429949966603
P 8.110480677422014 5.772435054569794 3.4448469412803435 -1.2966613174028638 -0.5509647817557478 -0.24009449829688329
P 3.7504661656345752 8.36412465552158 9.737817049362773 -1.1304891203167435 -0.7554235331268925 -1.1976417069038405
P 8.958406966634193 1.9325220482481191 13.14882703523922 0.8860432870296998 -0.017255958866970282 0.26864068536569213
Ni 8.970788804921954 4.302284650037756 8.225699745014008 -1.0320534073456484 -0.4778408080765641 -0.7063542864040673
