# total energy = -340864.7476995927 ev
CRYSTAL
PRIMVEC
9.24856650526061 0.00000000000000 0.00000000000000
0.00000000000000 9.24856650526061 0.00000000000000
0.00000000000000 0.00000000000000 13.53621193988042
PRIMCOORD
 96 1
Ni 2.375882770522855 3.869276564820213 0.5400302776605299 1.7771711876711587 2.998315348572314 1.5894932553027787
Ni 6.727777286132482 6.2270506419439595 3.4764649702684713 1.016692865729178 1.4730199681036826 0.7294240237393373
Ni 4.589980365544891 8.187561789412293 5.466315345556002 -0.5108743414927653 0.8470522504784832 0.4597096456934922
Ni 5.020316169355163 1.1111690339304783 9.26576708227377 -0.6147481947602961 -0.9089068218914348 -1.7984658353838767
Ni 2.7555179322422627 1.6052274616017599 1.5161915109617108 0.4398463311106618 -0.1982827044674198 1.4272656446867031
Ni 0.6501631335675383 0.13081357567705246 3.1443803888566095 1.1080791280526594 -1.7986049320649025 1.5607256962517828
Ni 5.643299615404162 4.6680105219331836 2.239729072492051 -1.0270788369491923 -1.4165431160628765 -0.9817945111900962
Ni 0.7694492958367007 1.3538791671647994 10.469000972405178 -1.973735366785575 -1.7820015191802665 -1.2853669754359671
Ni 9.06886694911323 4.8207413507344485 0.25111153113204865 1.0627130412130343 0.4796174403610128 -0.7454018872248324
Ni 5.193939510101569 4.306650527811651 13.342224486884987 0.09977731460065396 -1.8214345283649083 0.43568988574012707
Ni 1.7519467221142497 4.439117747196446 10.784178249219028 0.684725395280382 -0.17043894278227423 0.7497498797808829
Ni 0.09298231400746472 6.272969775103598 5.701777377147382 0.7817644850142665 -0.07590487885843056 -2.759643955875202
Ni 4.703663746168916 5.735572564353552 11.559735298437124 -0.6241568896687057 0.00722197166973595 -0.5579178160348134
Ni 7.355930680909828 2.3919012878707897 9.752312899297403 0.969751463982633 -0.7669402755172405 -0.1443029078168547
Ni 7.032240098542415 8.456278891920512 1.9942767392613885 0.18193151680290603 -0.5843574982835807 0.8052985635804648
Ni 9.1058057241061 0.13699531759123226 1.1323205057403662 -0.30566277111599616 0.35403190644800314 -1.907704809618063
Ni 0.6950630746880652 7.07469101922776 1.6317366280419359 -1.0724485233332435 -0.09504468501167503 -0.12892642536078444
Ni 5.652437199203099 1.185499763679525 2.782138081481616 -0.7384264843482639 0.8416004833352925 1.53330282415414
Ni 4.162021443350334 6.357899362174085 2.9369923811738077 0.5637711894917968 1.134867194779781 0.6101101817676524
Ni 7.343102919038242 3.3215764508798666 12.577239474145196 0.7691840772460946 -0.9880266081427372 0.4502400156401601
Ni 6.556743544033549 2.6327339620856933 1.326715202209477 1.1805256160488444 0.37541371455788897 -1.7511732209455002
Ni 2.616447236306414 0.7236337466229608 6.171578664345128 1.025568313841937 1.7826116419604396 2.132077783414631
Ni 5.47235835897121 7.790160131257906 11.503262625932377 2.905070692883855 0.8435267538237279 2.7936928179297946
Ni 7.968851686500078 1.510882833734393 2.8675920622782156 0.9953313693342664 -1.3457105095210307 0.8442458913779396
P 7.310252010481739 0.8975511917871861 5.171699482003082 0.3391660450797643 -0.5613772353383235 -0.8533977330805368
P 6.075198426969516 5.826615453945392 9.177510785797942 -0.8300289764476092 0.8814638951891335 0.18373206034675454
P 6.191147706410079 2.2116097306071434 7.775268089321622 0.132960486220842 0.6010876665540681 0.8711609706012287
P 2.129251245050933 1.535992692048274 8.183018893499298 -0.2684925898236021 -0.1807539515550371 2.504059846583152
P 2.614782494318753 5.904247921969966 9.371147099806008 0.6775597307698783 1.7966951166366991 0.9381770316104616
P 8.83900307488369 8.754711638908473 9.47812341993308 1.1597984108038217 -0.31231755742835243 -0.6667780667733421
P 0.2960207208191735 7.010052787273538 11.740321884975248 0.9066154547540966 1.5039441684863646 0.8182507528657585
P 3.102302185405168 3.406654015015923 5.6060491637169365 -0.6774823405647236 0.643526295334253 2.5771095153809744
Ni 3.2509636449032615 0.5157278192106642 4.045337827721881 0.03880051780696544 1.2292662757876573 0.10561217611487618
Ni 2.2537462000281536 7.912435430251579 11.290771259200735 -0.044106760511227264 0.10625983700120412 -1.0291483178837115
Ni 5.00242944155441 1.4164179745012506 5.246825588479568 0.9181098285469413 0.6657066880860342 0.5115837088549641
Ni 9.190235888580288 8.581994657688682 5.559051647691957 2.0629703870940084 0.8984938540882268 -1.129928876937899
Ni 1.7418102931227162 6.476771188659652 3.7935502263715106 -0.5123810079452789 0.5553541690726951 -0.20497502888593086
Ni 7.90001460531031 2.5053719514630575 6.445741322866318 0.10121661815034179 0.1689142786076317 0.6615543564805574
Ni 8.763488528610084 5.165278202214012 11.42598437800851 -1.0919251440006164 -1.7240218573416886 0.5599142776395519
Ni 7.3450451180238465 4.3404910329941515 8.134654439331117 -1.2080914414822548 -0.22384846875166609 0.10669512476640979
Ni 0.9321075360243815 4.4575593889930865 2.3742106296819157 -0.9135126960945622 -0.039631498348693034 -0.3058790008918604
Ni 0.5008052570046063 1.7090333730989982 4.943275609592869 -0.8228458284356087 -0.7077539949650714 -1.2353057971135177
Ni 0.16605616355582795 9.235119182280938 12.238076039859138 0.5950702567153945 -0.7879850120026817 -0.11240374511541287
Ni 5.127858501758039 6.424544533080098 0.488347437796946 -1.0719366166938313 1.9665876999972 0.9089268764960928
Ni 4.716288039575342 4.3276540225559685 4.371167603543438 1.7628167187216994 1.4138516852736425 1.042528338735043
Ni 5.867827066706591 7.474256841966105 7.628020735656379 1.00457577075067 -0.898656090697704 -0.4512185775033455
Ni 1.7121408914759648 2.4420285188325703 12.76715231524086 -0.9749494632438049 -0.34443269279534233 -3.6314199343526106
Ni 8.843257415518822 2.6833513670771745 1.066677879453588 1.6913619052148228 -0.02961705153548448 -0.5794729164977699
Ni 4.4972634853987925 7.825397169996722 9.61459526865486 -1.715936509230393 -0.715177284012336 -1.874575631164262
Ni 1.1646442460007769 4.037563482639506 4.614305020554593 0.20469477864135072 0.45282705964104597 1.2316342617992015
Ni 7.782076884051153 7.662862860601456 13.346746111094806 0.6516980325117679 0.33246137936607906 -0.9505049570481953
Ni 3.276452694447666 6.09264122357356 5.604221646957149 -0.32530368527537523 -0.5082266194572731 0.33690810228352297
Ni 8.336519203041526 7.138617111553929 7.549253468510217 -0.6771748366266337 0.7173732632223904 1.67344928660046
Ni 4.0736698866385455 0.2982302033794631 11.258040582010008 -0.19835598090751644 0.21860418963359127 1.2212428912625484
Ni 2.867092639681917 8.503844269934614 2.4522472600668275 -1.9252294487653874 -2.901883810515441 -3.2248668180774396
Ni 2.0975286616193998 8.733005253102698 8.965453176839752 0.709830674988442 0.7929986631671891 1.661600357681674
P 9.288890348482376 3.033881289712316 11.445300009348673 -1.135693033115186 0.7296754776285111 0.1368521079657643
P 2.5557118994565955 5.910999375586589 1.5950262926440395 -0.6886704959710591 -0.29003586321201663 -0.07454733638927162
P 8.574836267141743 7.433202454837075 3.554298132188224 0.884149926661729 0.32063250505195107 -0.08175850942573015
P 1.0973794211326893 2.1781206709553707 2.7667475418056933 -0.6198109539951842 1.41900546156044 0.7965421575440734
P 3.6734566642383326 7.851792579067741 12.91403342566882 0.04511154762665779 -0.5290078178686825 -0.6398023095154465
P 6.701511356993837 5.9492329499031955 12.659038421422222 0.5556349335379076 -1.6040966070382503 -1.1907994871710266
P 4.553892458679048 2.8310972184820553 1.7337455430491602 -1.194851031532581 0.8283886126307088 -0.13298568303182257
P 5.418513204236987 6.261751263820085 5.035795495270428 -0.4219607090794927 0.1112655177459116 1.884803222429541
Ni 0.24690250847324668 3.455560435186753 9.103955085929817 0.13360223356989892 -0.25145440339439273 -0.10228234041069481
Ni 1.5136666522804254 7.34973414128909 7.370602606961077 0.29187625885486507 -0.7531895015900513 -1.2430090792950463
Ni 4.348685263000081 2.031308924776899 13.204506856242443 -0.3656255248228735 0.09241470358799568 -0.5324926910934894
Ni 5.118147506830019 3.578769839406836 6.5785988317615525 0.911121055933934 0.33115577318077805 -0.33304810510748445
Ni 0.5504321405134295 0.5159340622458022 7.433546501514525 -2.5409405216595853 -0.715243104253265 0.32815323890902837
Ni 6.633219941233358 4.29252796661633 10.616965089981775 -0.2507139256839424 2.687701146988313 -0.25630761772163596
Ni 7.3953850660173845 5.903249076777369 1.364246810321286 0.7731710869183007 0.3550842589719175 -1.157209052810091
Ni 7.49101524464189 4.7529586061368665 5.313233996080669 -0.22681372202757713 0.7064051942466607 0.7686613719734052
Ni 0.3307648109583106 5.91070342145545 9.250146253289554 0.5974243587698679 0.5051724060119815 -0.15414174828414742
Ni 3.286089700842901 2.905788642328429 3.6535999917521806 -1.7589909172177063 -2.0819538701750466 -2.958506958326124
Ni 5.3129870593525 2.4809927299104273 10.945231863101936 -0.6181921874448385 -0.2999716342684899 2.384603565496332
Ni 4.296615833052696 5.473625412595152 7.902291602406767 0.24944560049448009 1.5549787664656767 -1.2288065625424192
Ni 2.0830639034599487 6.147623951999352 12.887123796294942 0.10237515723481724 -0.698529648153326 0.8866133006005568
Ni 7.125289927086046 8.022854066866469 5.631267230260015 -2.1625001044602303 -1.1852124800015524 -0.8928148014255786
Ni 5.089735910240612 8.907729173274278 0.557728334702682 0.49975689142336505 1.1329414385119778 -0.7541636925778624
Ni 7.713591248392115 6.94666311181006 10.324434778196732 -1.1850145050581335 0.9007101450132553 -0.11982806260394203
Ni 2.8237168623367594 1.9585874456159242 10.311223200811325 1.719283571325755 1.4847809652943527 -0.4011203752953737
Ni 7.1487072977124715 0.4161605257853419 8.551555775300969 0.14131734282596953 -1.5252123338365215 -1.8401701571011986
Ni 3.459389341758372 3.0341957409766516 8.120834306263555 0.10528744578560577 0.07006436091725353 -1.6482126235208583
Ni 6.815333466116833 2.842778158095474 4.2424386547776 -1.4679664648401751 0.42863734976871987 0.225219895177896
Ni 4.227020369401884 4.226012275642689 9.746519597180345 0.25864320783334815 0.24531718014840334 2.0173939840157904
Ni 1.9348093808921716 4.937467509769252 7.699058975696498 0.08177187916216885 -0.8930197183475329 -1.8998200075533473
Ni 1.0478903412661782 2.7847156569925104 6.795205810629356 0.8634628306260226 1.750127296179489 0.29222618599511613
Ni 7.3076069204346785 0.15787765611311522 10.919080616189106 -0.624087469883351 0.5711715957209259 0.3500415543416875
P 3.5860299641863556 3.89097370205939 11.82361077633123 -0.12244595984276331 -1.4747780884453698 1.1985572767395747
P 2.2123126216686 8.176112063963826 5.363264117093171 -0.6166320420465703 -2.9757140662330297 -1.375922514328037
P 4.898124107460873 8.6064386192075 2.6527857793270657 0.1374905128807116 -2.887997539451652 0.6164389521991578
P 4.299205431700169 8.835784573707546 7.633570800471907 -0.5450278474460226 1.097325231970265 0.45570129586504743
P 7.527445348471862 0.6448239360704469 13.042735553591521 -0.759103553081641 1.1441784448783778 1.178379773350435
P 7.744897646326733 4.240754490800084 2.8664554134433073 1.1594852504387771 -0.2065333745119862 -0.40656828578382237
P 1.77971091904179 0.6121367271427304 0.014920712492738278 -0.6502993523920284 -3.105723697355664 -0.29437305713478984
P 9.10909821381503 4.853268559460017 7.137387052196379 0.05066281646219017 -1.1842742844579992 0.4739108768945386
