# total energy = -340888.83072875306 ev
CRYSTAL
PRIMVEC
9.11451757977472 0.00000000000000 0.00000000000000

0.00000000000000 9.11451757977472 0.00000000000000

0.00000000000000 0.00000000000000 13.34001778755766

PRIMCOORD
 96 1
Ni 6.370090739195753 1.8891204788407523 11.677357639477231 0.8186621293715642 0.9876255160495765 -0.34223080004801704
Ni 4.603296200318437 0.25520831414680156 6.0513123109837545 0.5186236464208811 -0.6824175730828119 0.5746130173023072
Ni 2.905307154383822 1.563458766979222 5.046034801489582 -0.24868095441431362 0.7591917419200731 -0.8409181125562872
Ni 3.6253175823215056 4.504239623645861 5.042767246949913 -1.1601627361217763 0.5793343340373764 -0.3671046804715613
Ni 5.445140384272159 4.634549880978196 2.8506546842840703 -1.0116954125145867 0.14271422317349616 -1.5759913641616021
Ni 7.3888112506161665 6.2831291273046 2.63985594542062 -0.7170837570064296 -0.7086286842605408 -0.42655269932554923
Ni 5.307866635535902 4.544024492727182 11.420455847970679 0.08186958108229772 0.26773822815608084 0.4530204065987747
Ni 5.677524123584266 7.941205700912273 12.571926573070066 -0.31909652802339883 0.07927816620603766 -0.19221078724172705
Ni 1.640075401457476 6.628086272807632 0.5891095498684725 0.39514950242391944 -0.3538740407139002 -1.0928175739078987
Ni 2.8804245214876008 1.7500055975605247 0.52147162662321 -0.7166132451279142 -1.5440634051047537 -0.06893950328419095
Ni 0.676231577268406 0.2495746308526059 4.575652780058016 0.5764906939409943 -0.9840946200781827 -0.1374761147030084
Ni 8.585857297792831 2.264465425836825 1.303565590814597 0.8673639654526417 0.6168444151676925 -0.4255715663592025
Ni 6.8952327820340935 0.820964647163004 4.739174516418647 0.1964497650237391 -0.04414018485232398 0.6062175315814656
Ni 1.089804633749215 7.5419351453621415 2.6782089237957143 -1.2054941130687238 0.10925877172852796 0.3359315973028666
Ni 7.588947826856174 4.006960660940761 3.736939432880795 1.5334938571190235 -0.3332674202071421 0.4493344731067552
Ni 7.8120529873080775 3.9340809786557123 12.627687368503215 -0.7459099372095025 0.11937426289597507 -0.4566652024402136
Ni 8.712457946484593 0.12339233851613202 6.608711542863494 -2.3518471970009176 -0.6858440822658575 -0.5720845944534987
Ni 7.09768444573038 0.532368032347544 0.5466486584361152 -1.6111396299279608 0.07703333603591896 -0.48035277586514047
Ni 1.6914539368552777 6.673039073336629 9.179813036639661 0.535835125203161 -1.32390266961732 0.8329911443997268
Ni 0.08404678918045182 4.766026796556213 1.4757926028818875 -0.5245824351074772 0.22343606380459585 -0.025720544694555706
Ni 6.04278841417623 2.187939936534015 6.89286756473132 0.18249227440238247 -0.7617139941212946 0.29406966696175807
Ni 3.2144533604548933 4.4365916744313 0.12175354826164832 0.05683474960085696 -0.3159294431493269 1.0025093751399443
Ni 6.035278051719641 5.703154146919129 4.877457242247071 0.307885746909244 -0.12312730218050408 -0.3414964929851538
Ni 5.008591451965418 2.7826075192010644 9.732996804155114 1.8199070359767884 -0.8475813835090757 -0.90165553964566
P 0.15623832539089824 5.697339084725799 12.610264968217088 0.03267743562836308 -0.38235337910051564 -0.8219773097877262
P 4.253490131481782 6.123105542777511 12.526903590755975 -0.7449375459939042 0.6706673745254192 -0.27653474340178824
P 2.510639430193614 8.530304313359693 1.2355485036394873 -0.6054688263408992 1.4472726839362493 0.275340465983371
P 6.749282012595563 7.9072085504716485 5.912122690659664 -2.1373169203263838 1.9627184468497811 1.1386613717148906
P 4.797599485330026 1.0715300260726865 12.862178384271589 0.2789212413560938 -1.8837956071006332 0.5266521731523124
P 4.147497406957916 5.932703271274926 8.120615864256308 -1.0993666878803259 1.0398690467353253 -0.4226600491393624
P 4.874972624764466 1.195997877659058 3.937839805691024 -0.7263731527281554 -1.786611250038136 -0.28602417094946225
P 0.06623975625395107 5.692171153278123 3.7392599890476004 1.9039006053806244 -1.9175547058289493 -0.8905949109561242
Ni 1.5377740565390934 1.3134748942888725 2.655037085842578 -0.1101638000413006 -0.6332997325102383 -0.9907890013792228
Ni 1.9848958291973422 6.453634407007753 4.875362726115366 -0.6807335005121695 0.8008276722933046 0.3031482322242586
Ni 6.0658754871162035 5.345837715625886 9.075374337357117 0.006511832976588785 1.0017706972017069 0.864143401632815
Ni 8.940093022156065 2.2499733429412236 10.319783974953273 -0.05280865916059937 1.1382209417433622 -0.586109705087997
Ni 2.231789880440139 5.287851155008392 7.111563121595243 0.4537948228709539 0.49381918578269146 0.597678383762203
Ni 0.28425628156081495 9.171209843529498 9.043184595745547 0.9807539857407238 0.21377025858005763 0.3089051893126938
Ni 1.4347526647347029 0.7473002049173819 11.747913119788457 -0.30352978393339336 1.4130489868666891 -0.8556302219554811
Ni 4.232107473322612 6.960839079318708 1.406291672250549 -1.1905516328262786 -0.23129952571307263 -0.7869964228371672
Ni 5.747523618325284 7.624603819489879 7.930240024854601 -1.5169668059982777 1.3070681145584844 0.45865215096325523
Ni 5.315176478606513 3.121084242730026 4.554348506749728 1.3160700609467786 -0.44347621455376524 1.887908343717426
Ni 0.8159853862284965 7.496727138341901 7.198927595161857 0.14277567253905088 -0.6505366652138151 -1.2939896841079714
Ni 5.249752471672785 4.56825999487775 6.892186710270754 -0.5542673637664197 -0.3085354646781009 -0.1496142927274391
Ni 8.010120568065506 7.219436171088519 9.010875453954148 0.8806478270457414 0.4517690506901768 0.5629162976906693
Ni 4.704394428920958 0.2669851822659251 10.579328065095948 0.5115783095383254 -0.783452928460283 -0.011971313429263254
Ni 8.259357050317215 7.174000301129669 4.787331981316256 1.3540259713652616 1.3950864888509973 0.30699640232575515
Ni 7.210877639114324 6.181119446947639 6.963876036564503 1.5379806892457835 -2.1611407622188588 0.17963115080450354
Ni 2.0907336069229534 5.30345520904441 2.7718560343056864 0.25864089384050293 -1.0366970767652468 -1.0279684386429975
Ni 2.2755486791708193 5.582322987832974 11.52957758636754 -0.7014460504691725 -0.15338867216820679 0.32030983160520965
Ni 1.2018311688874763 3.351034405857777 4.081391634111868 0.07190398522915359 0.4526573668324011 -0.3412697216863284
Ni 3.626001171137336 2.680078311344072 2.764611815761395 0.18662326585162053 0.6460269502689197 0.43788149407480725
Ni 1.4970230485980662 3.1340906592658895 8.414723116379113 -1.9144153888690192 1.899291645853703 1.4542892244633985
Ni 3.6343956417957313 2.855140849819426 7.540458593519948 0.8213399333140435 0.2130161540228525 -0.5527758668225576
Ni 4.193698896390496 6.8727199236994165 5.928904340362419 -0.3612960442095842 0.07947125605345023 0.46290784091581566
Ni 0.47406884377827724 7.553556155231256 11.335506721553333 -0.1326663520191909 -0.4476254608354484 0.357358656828391
P 0.06561632325391388 5.6601336241095455 8.122683036835378 0.3765665972154095 -1.4738121249876748 -0.5502448728705878
P 8.71547485179179 1.8024869895811988 7.795826411723777 -0.24389895964463804 0.2923634829039288 1.6562714892695927
P 1.9307100223958644 3.20221256339276 10.709126086542286 0.11722276377061101 0.4030998676192477 -0.0872195325403014
P 3.963785191332923 6.13397004769044 3.383081960995653 0.293569587396888 0.5546751407277996 2.4350524661755033
P 7.008981960988247 3.7983111253142807 10.296066177399227 0.3872639290282556 -0.41423068742508656 1.3057787063230994
P 6.311083352613284 7.732291844277005 10.092163482509871 -1.3092957183374225 0.5723303919157176 1.3617624207775707
P 2.2925290253560426 8.557538491782369 5.855787680621216 0.6484085631272188 -0.1720062872693941 -0.30129009596959727
P 7.057270674938495 3.9810480875620224 1.4938685140759482 -0.18228401504631833 -0.650238417247106 -0.108017186011943
Ni 5.062066326398433 2.839026382800921 0.802695508197002 0.5101685736749924 0.8451012973996994 -0.8289041188145467
Ni 1.7008510044435574 1.2724777943741463 7.1986468680214895 0.1599277588383052 -1.1419917216397042 -0.9868189609878812
Ni 6.711611711584545 1.0789674723889195 9.063101639483579 0.49062741831827117 -0.027135936984843588 -0.5605567963195571
Ni 2.868220182495645 1.4557251696043747 9.640790698868912 -1.178931789199163 -0.58792721791271 -0.37136962639550236
Ni 6.424832531567438 2.070654324772633 2.517795237917725 0.7510598568415582 -0.5279279545409424 0.7602109272132069
Ni 4.0586035173473505 6.6956704203993835 10.236169213904427 0.7819771152457049 1.3212444060588666 0.1435099796019141
Ni 7.955952990299117 7.152043428365201 0.35060358912178996 0.27553561271331256 -0.17998133505507066 -0.33635634354511107
Ni 7.750584680988622 3.7646238684701663 8.26262004759811 1.0874323983365854 -0.1556838959602867 -0.5842677667832518
Ni 3.1043773320711345 8.32359616997017 12.29516060202724 0.7854033673184345 -0.9782625867774379 1.0358303578895773
Ni 0.15153067707921392 4.942903124022904 10.3260811951247 -0.5654748024464649 -0.7388170349184631 0.015277494984360786
Ni 8.639386859331111 2.263134706275342 5.457694720737821 0.2411108553765396 1.3274150536459524 1.4111795377581182
Ni 3.9046228579522007 2.654256883140777 11.84776357093915 -1.630195103897515 0.5416396477000801 -0.8983907528514592
Ni 0.9681349390489753 3.3189786476541108 12.7336737128648 1.1417909184828077 -0.16945112494770817 -0.2769155237799747
Ni 3.038470255707554 8.354120689226376 7.9258377128806545 1.110903484875332 0.08839324113342842 0.8749870292155382
Ni 5.705469234375407 8.017539785346651 4.058207035834169 -1.0443702770397887 -0.32806299318806725 -1.6975487507518248
Ni 3.056334710094585 8.357511289752894 3.5061033386477285 1.2968091558346375 0.27937889771880275 0.7973849651603429
Ni 3.5097181563058384 4.384593351840479 9.590672701247502 -1.5390713512068008 0.7968571176813308 -0.17795839108777095
Ni 7.268399359337053 6.237310447608885 11.407208808171644 0.15206738225362196 -0.4908765582145998 -0.13962118607046922
Ni 0.25471248439238603 8.973634446719469 0.3846144113387309 1.692699907299956 0.5761212264167175 0.4148909467169048
Ni 4.760950010283981 0.25963614676987273 1.8616265366680598 -0.5081168333522862 0.6172822740360594 -0.44887450275120105
Ni 6.015034708253521 5.426273332955245 0.32578749220364306 -0.14476930593031198 0.9546765719273815 0.21231372863918918
Ni 7.80675745261478 0.14176173717512247 10.89348543291293 0.10375429697053097 -1.5645556115208346 0.8360147617173989
Ni 0.04193771812530851 4.922441032135719 5.9432843146922245 -0.21695842650005218 -0.8232500058525628 -0.09722986558845191
Ni 8.135062374564187 8.624666913496899 2.7638516649981915 -0.9468992419748079 1.1618316391837669 -0.6147867613077155
P 8.519676785902918 1.6668811975555662 3.4108557188569595 -0.09627032988866002 -0.3167586239188415 -0.38917297312551036
P 1.7930808074753743 3.3133276467765804 1.661098947625397 -0.060670321296863255 0.16162083027001198 -0.3728192143578354
P 4.624059071284588 1.0734076166868336 8.313819027000289 0.28087502264835496 -1.0228647988678448 -0.6581975241931826
P 8.548032049983556 1.5984949724199085 12.36158082572857 -0.2921002019402131 -0.4927321233660998 1.71061972500317
P 6.197644067255641 7.754385434804639 1.5101835004804303 1.6711553483599608 0.428743536329281 0.35049406849807374
P 2.0010194107333916 3.3829534462982775 6.15596428997684 -0.669687270000337 -0.5993871389231935 -0.9515097441636257
P 7.095141495335492 3.8273864362809276 6.062357283344062 0.4335892944573565 1.3539652933306552 -1.5746723882398623
P 2.236101047238642 8.364921392516493 10.24497383785232 0.6544838227870213 1.5193656452477575 0.2417901408317513
