# total energy = -340895.86367173237 ev
CRYSTAL
PRIMVEC
9.03885691064998 0.00000000000000 0.00000000000000
0.00000000000000 9.03885691064998 0.00000000000000
0.00000000000000 0.00000000000000 13.22928075039914
PRIMCOORD
 96 1
Ni 6.560293832187081 1.9923086704593458 11.496337629121138 -0.1290351830245068 -0.39811886946488856 -0.025751397932491135
Ni 4.467247102184556 0.37859884617386674 5.984066708285988 0.43688082072443474 -0.25005443772307256 0.19479577436008388
Ni 2.7658630781547098 1.546729183403216 4.624824205229339 -0.3522717292237869 0.003922217872541632 0.06879423595557829
Ni 3.367652089214897 4.0823454611323164 4.7426574547244265 -0.36806164506819194 1.3582801186559252 -0.6175944059598395
Ni 5.0231458370401025 4.314616965491319 2.734902281801793 -0.5456703661260279 0.5276016815497753 0.5786578767956421
Ni 6.915331090221764 5.986886831621787 2.7417157720919367 0.11482778117587321 0.07391973010760172 -0.9232682328194293
Ni 5.220572548259675 4.670594264637934 11.526579836354836 0.1404511381709323 -0.6833495979787779 -0.42871988218019713
Ni 5.455917263946149 7.83518843481851 12.38833540914866 1.7372612388500983 0.2354094341163881 0.09380669883951585
Ni 1.7579311124553405 6.467781132373314 0.35431595725841125 1.0213707308208217 0.4567600761468649 -0.040596176254807506
Ni 2.7026181968066942 1.6411310042976948 0.46248486101428216 0.6796634073764424 -0.6624205611355946 -1.1747953984332864
Ni 0.5695582553204777 0.13204233245622488 4.598842011226928 -0.2476694824306638 -0.9234304694289064 0.49846439786418667
Ni 8.660327598531184 2.607990404491078 1.5627351911052405 -0.4546772254759073 -0.8633679569193711 -0.004626185918101711
Ni 6.85753663955159 0.694207706762762 4.801316020109032 -0.2936750026265007 -0.3263282698851477 -0.183023207205188
Ni 0.7620226341318653 7.4058065792295285 2.4048321541457707 -0.28341064458601517 -0.11666046350923778 0.49865285972590895
Ni 7.414312143521151 3.842183034747187 4.017573916863096 0.5071295297383525 -0.32012522639822927 -0.24173974720979013
Ni 7.696351593671516 3.823102007946321 12.605097139046455 -0.2973725060827459 0.2579659792606654 -0.03657728490340152
Ni 7.8208528078615345 8.79746513459122 7.0976674299377605 -0.1936179520018988 -0.11470205423128634 -0.20619578866690938
Ni 6.910567612664181 0.730881060642039 0.37264856671246926 0.1641595375314657 -0.7415372620631036 0.15432429660859873
Ni 1.7693562275080619 6.667548907515871 9.18122697579524 1.1147411134538672 -1.2111361418458497 -0.7317022782505527
Ni -0.17631555717120437 4.936752443310744 1.425891417892682 -0.04146778022648342 0.5989608500190523 -0.6413200317115536
Ni 6.495747355453314 1.7192538440134144 6.958138212356402 -1.2448661871084432 1.3096603007656928 0.8418460236871953
Ni 3.3004572274253956 4.333200855165682 0.494595399957947 0.6644404197791008 0.15134027427961033 -0.06362734704265817
Ni 5.887947504590863 5.559791806814719 4.969777714567174 0.16027048688970463 0.007944708768373413 0.10589988255862408
Ni 5.502096783569846 2.7455527668228545 9.413770549745292 -0.5507701492464386 0.8211902951100566 -0.6875474381102094
P 0.179819018084523 5.53834259952033 12.450195537627943 0.32962802368234195 0.1869351406650845 0.015285979624793028
P 4.163704211598729 6.144388912154752 12.630576772608258 -1.2483034949247662 0.1455684047928396 0.3149686218979543
P 2.4381954786482227 8.423265500044062 1.316901785935239 1.0470501378647967 -0.22789615645847847 0.10251245414362992
P 6.176802252802741 7.795607280692033 5.971180913967033 0.39233234469009853 -0.41325701065790765 -0.647443113890156
P 4.834586244385974 0.9228311284989175 12.629028416430621 -0.18737094265092247 0.7075321087622525 -1.2345632625205385
P 3.9220142184067077 6.134645024475295 8.248337407398644 -0.35477469815129864 1.0596868527922008 -0.6693941642399504
P 4.773619154963027 0.9892034543154777 3.75895414479944 0.28272133182847436 -0.7861978381952718 0.6760859744378291
P 0.02310060644006311 5.558680027422722 3.4611771409953613 0.2519017753444565 0.11747473188041704 1.6432547652949507
Ni 1.221619580384008 0.8747905082507303 2.304408646820815 0.07404391439029183 0.8152029671783703 1.0643490341545603
Ni 1.6670454068737643 6.480751891946616 4.958705114931427 0.1341413939028206 0.20572296279554894 -1.5222283115075332
Ni 6.034205247208018 5.600141263773064 9.382920027445891 0.11152108540014342 0.40763375093385923 -0.44082566430479564
Ni 8.663590625852411 2.4012536707206342 10.152811890347456 0.48795809901622417 0.0783440844275425 0.1261699456615698
Ni 2.2941884113856 5.238822000230754 6.924893296878626 0.4911480667084316 0.3150025604596833 0.3955295114711575
Ni 0.6704409365731849 0.030162665293457992 9.007473030654054 -0.9208652798048915 1.0230226646019478 -0.8006386962109501
Ni 1.3692150738142974 1.1511616912732783 11.211802550595728 0.7325479140802997 0.50065446353697 0.8170986415391864
Ni 4.1995432789911655 6.513626214293726 1.7059558778223043 -0.022754520087696295 1.1677271787325954 -0.25407692861890435
Ni 5.479047698613802 7.681970772430315 8.160283575666764 0.31548489941274055 0.9902673245477976 -0.304794766688746
Ni 5.213766289055007 2.822364972295976 4.943941046159976 1.0011243218669597 -0.5863999826349062 0.42429424230867574
Ni 0.6259806075215034 7.475875797495902 7.026891373066069 1.178165857567416 -0.08243445244683222 -1.0168553594489713
Ni 5.1099007850432825 4.504622775240729 7.378075366427512 0.23555238745215562 -0.2443481313669147 -0.6976511022031147
Ni 8.307134267292984 7.17877761184092 9.08970674246311 -1.292450878865942 -0.27516845918188093 0.5896058911667136
Ni 4.588765493615557 0.4275758919912483 10.351157853308216 0.2489090112647197 -0.5373669884666552 0.1259673427324605
Ni 8.027318375926614 7.194215979333047 4.538701977205345 -0.004384759331256965 0.04015394651106633 1.2577726107574663
Ni 7.218611853959072 6.0314845512975195 6.9854174823161435 0.42149199697319023 0.2792418579203062 0.6243870034016409
Ni 2.154257868560301 5.372407265550507 2.507676267333953 0.11007381143065559 -0.9282273765969175 1.147142155492392
Ni 2.5024165565355525 5.308728519073908 11.539133904627562 -0.4009457973907224 -0.5843816666532967 -0.8779800504055912
Ni 0.9525780063774819 3.2557058471832887 3.8167133439279164 0.34821144311148416 0.7629761486631699 -0.5855589747908496
Ni 3.7717341844933028 2.346107605106194 2.515560862160289 -0.8183661953977003 0.7284079237699972 -0.36098365517548797
Ni 1.278718039077078 3.5200833710575328 8.272493752318262 -0.7348565076088183 -0.4625296316407905 0.37860213958819955
Ni 3.4599117010369906 2.808689181888723 7.138917157037918 1.3167035807657195 -0.22894902320302504 -0.04021359610440816
Ni 3.9950752982889437 6.83295094893181 5.931281592079594 0.29551848359314264 0.8585720781926247 1.0695310925761323
Ni 0.8299686249252286 7.381211849752903 11.256252936904879 0.20732784538882357 -0.9681784630685584 1.0200332429563206
P 0.28669446142580185 5.574380521763367 7.9538406047438 -0.5843688111374904 -0.797241240493627 0.25744301687765986
P 8.623620800881579 1.6944512208293423 7.9271307827653255 0.12055491346763754 -0.3842392832693189 1.0491347883079674
P 2.0346014816394744 3.232159625100742 10.70099324922831 -0.5088575681730527 0.40259181763457763 -0.8101630907616176
P 4.041110196203112 6.048540874164992 3.945500784034074 -1.0075042572513746 -0.19490504624443852 -1.7375299191304527
P 7.086988020574794 3.9885040493622594 10.396983953629254 -0.06626041379013105 0.33484890576164916 0.7931359600760017
P 6.3881307258507025 7.989590187453466 10.234753647080403 0.03988423778944744 -1.4767490961288114 0.339081455785758
P 2.32812931884048 8.462078351338672 5.64593934363788 0.11022370674495854 0.2973894753636104 1.0274896992343658
P 6.638488982757565 3.9054279160952015 1.4395048401877006 2.0731067041970617 -0.4635110217174533 0.9204654732633114
Ni 5.128349091864963 2.783045945018019 0.3714554376088623 0.2141404974352828 0.4252843741360869 0.05602330944315514
Ni 1.5969490720368547 1.2125988012521915 6.865216052327534 -0.6437540950743429 -0.16019335379486604 0.13210996529508862
Ni 6.944201198986314 0.8034341567695572 9.264861710415353 -0.31913072369544393 -0.21976247160775056 -0.7434725314126035
Ni 2.7932598532534425 1.7115527379810422 9.184877770075142 -0.8498928052510718 -0.26302462473049537 0.7393250849031332
Ni 6.323041917706205 1.9797446594440906 2.5242264142180773 0.8923003236830052 0.08855573485322168 0.4014993559013473
Ni 4.101842275348076 7.012950744153243 10.305212440076817 0.12667465321213023 -0.1664514188894359 0.12438482873668899
Ni 8.291081257535362 7.294013997764293 0.2969933349155729 -0.6881881570180018 -0.1764902911826767 0.24905067904890657
Ni 7.776933002449214 3.8087302255619644 8.336775390546457 0.007546701999006359 0.22780976739225925 -1.0944011163449345
Ni 3.175232904687737 8.488128336767423 12.261955920506146 -0.9792941133657457 -0.21919271514720962 0.42053554659719183
Ni 0.26346821487558614 4.9152038085910545 10.293372441494887 0.047513215089614945 -0.5620886595830513 -0.13947283341806302
Ni 8.612846483521732 2.3447879320067497 5.868165062498786 0.2542908444019233 0.4576201101543151 -0.6832565240443393
Ni 4.0450963320719815 2.663787267798395 11.380501966988906 -1.1479060302416102 -0.46792380607316836 0.21175477081192565
Ni 1.0408334046170158 3.4137592979838303 12.822983302735834 0.48410838625283076 0.014868432471400198 -0.7447429134845949
Ni 3.036278558401752 8.503069567133046 7.849196855157677 0.2735201249451805 -0.5363863697209407 0.5030209068866175
Ni 5.459813011246562 7.905944606205141 3.6265692396687705 0.523604130354608 -0.295335163937743 0.26600093375
Ni 3.0139887374207315 8.201289253632092 3.505745936329189 0.11211783844387789 -0.04978427051197877 -0.1608196745249553
Ni 3.5100321622453285 4.365026670118714 9.240454085275427 -0.41143795517129783 -0.9810974851230716 1.1703080520858942
Ni 7.393215451643737 6.1602430670617725 11.411934591669159 -0.3860053740308062 0.4726168406734635 -0.4391122811581147
Ni 0.830696252901292 8.978594786918343 0.008414271837482782 -0.40704856785435056 0.034238866578212006 -0.1474730780147202
Ni 4.761154571373072 0.2644850862707057 1.4659100526904814 -1.0849731381628154 -1.0886837542451833 0.6156907611792235
Ni 6.141216273401979 5.626028549778597 0.3594066414338011 -0.08956977794003285 1.0884739522272222 -0.2581482704748006
Ni 8.231515190923469 8.912620170802985 11.097686079035514 -0.9823722380704372 0.7049674333588698 0.8494004389956855
Ni 0.06864650219889004 4.847186410828612 5.790429989741738 -0.41212598237725795 -0.3153383465325472 -0.1240475000019283
Ni 7.873684926123525 8.732195549309813 2.6734525174232964 -0.5808607979842318 0.5865539917142673 -0.7168045352031138
P 8.492231977775283 1.680531381287261 3.631305600655816 -1.3349848955734105 0.04406510864001443 -0.6920095876466211
P 1.8812120809712152 3.233578725625487 1.7053340044713332 -0.7831785917529738 -0.009354701742022598 0.5168732393886776
P 4.614960100753837 1.1111828274455993 8.221561601765197 1.1616614321544898 -0.08397274346822957 -1.3236535297209915
P 8.593132736741682 1.629235868689007 12.620641261163675 0.11678670467445694 0.4526162291818205 -0.6770701927279694
P 6.356603193173573 7.7196356889055435 1.2841982979825088 0.26204169199193583 -0.3661646851557952 1.1579994099218702
P 1.8136285483373566 3.26819754734378 5.925990245282234 -1.5790224376784419 -0.3888400152661239 -0.2039517298277391
P 6.863348624503251 3.893975684471944 6.257026626735042 0.19064858496092973 -0.06266601157065337 -1.4067423279223707
P 2.3098346725851733 8.501306990048173 10.122992701614129 2.0688985796529855 0.84037998066463 0.9346039695472226
