# total energy = -340891.09732736717 ev
CRYSTAL
PRIMVEC
9.08742391456391 0.00000000000000 0.00000000000000
0.00000000000000 9.08742391456391 0.00000000000000
0.00000000000000 0.00000000000000 13.30036346984934
PRIMCOORD
 96 1
Ni 6.166125933406035 2.0231331319494466 11.554503803158447 1.0178989702221373 0.21278295496612387 -0.8482236450787651
Ni 4.551318009280712 -0.006032231833032577 6.025197258368595 -0.3874230803139392 1.5573146136877052 -0.1480510620053773
Ni 2.5767208071598695 1.5981870262304507 4.72238694240887 0.3432448431348282 -0.21110556726370094 1.587800698091704
Ni 3.476166739877654 4.521320423741633 4.8163409070044425 0.30907205390786124 0.20635056907721883 0.6021132796051049
Ni 5.011532406268161 4.613839484139501 2.831567607856438 0.9787379837519596 -0.37191187205221754 -1.3495764202343403
Ni 7.006967070867377 6.079577310360236 2.6589956148530405 0.5800704408724526 1.393949547033077 -0.8923712861302566
Ni 5.36212521150829 4.4894690037736025 11.839424523752934 -0.16397364677290469 -0.40126821372714766 -1.2955014927668076
Ni 5.7006135684181976 8.060590233593041 12.523702073750302 -0.8022824024619603 -0.3272289273225461 -0.17628023205439963
Ni 1.919082130912654 6.583683963680236 0.5104842072525435 -1.1892629959218421 -0.7308864672174767 -1.2640378749408874
Ni 2.5798287060554657 1.6404617211495043 0.17806624935508697 1.257164801970138 -1.146806369419528 1.2088810272630859
Ni 0.34577010949775 0.15878909752108275 4.571188569880455 0.6852463007808586 -0.12085778942003701 0.5077499369311708
Ni 8.367009072366807 2.455467313113238 1.3976157721533014 2.129229515332559 -0.6751153829944437 0.6894819361287609
Ni 6.665552563535298 0.6649204288350566 4.843500490130963 0.8076374961262864 0.7241074966224302 -1.0156011753268959
Ni 0.8008283022940834 7.537327291173867 2.446016392495049 0.38879142141637557 -0.530318566260306 0.7319812429435523
Ni 7.766666602367363 4.102362930222047 3.643421681290953 0.004601503327753365 -1.6333488190351484 0.4156733334088841
Ni 7.651374458249128 3.759294511781786 12.923829516680511 -0.21214814959560238 0.7807882371439262 -2.3693381546968295
Ni 7.926659783524897 8.904312084358196 6.8268370675965295 0.14045679459788712 0.4003269328598009 0.23427094963657075
Ni 6.805462538379182 0.8732614301511982 0.37511976172906264 0.5574694156434851 -0.6281174169783506 -0.5125440158857043
Ni 1.9241529133212592 6.761415795844218 9.161716086075879 -0.6094944025605245 -1.8865942528916928 -0.5693332569606065
Ni -0.014689820364714012 4.919694902645644 1.558256886618602 0.4693710800426561 0.2270111827503639 -0.3483006603911808
Ni 6.223031380435939 1.773083582208976 6.829789571547347 0.5796045569796276 0.6947048750905971 1.3499623428188492
Ni 3.577664174862801 4.333692387199567 0.6759234814163098 -0.6352519711406027 0.09750857317113529 0.4525025864220916
Ni 6.115954267316591 5.473391626940122 4.879836553680798 0.41601477590870295 0.6218866055772904 0.9117144665435588
Ni 5.56271191420568 2.899342522339626 9.116002710039592 -0.4364882132717063 0.5879542144959036 -0.13308569894479658
P 0.45809066607545806 5.493574794914158 12.408959718764182 -0.7866416106009098 0.09985444769549254 1.335647983078706
P 4.120946711629929 6.125441537629467 12.717301456386803 -0.3624422419988855 0.9021944428682657 -0.27885310712231975
P 2.58264580739358 8.699018096199053 1.4113950326661475 -1.0732563639465194 -0.1721816365049938 0.009461402523215963
P 6.328436407599761 7.566652407361266 5.923995164652767 1.0282129505536355 1.1136823331720498 -0.6844687991848857
P 4.523056121662858 1.0829482789130644 12.54890604330275 -0.11705409940323067 -0.6208869606681823 0.4114544102315301
P 3.9459592814146904 6.137927657753882 8.158855271978295 0.3748989797049995 -0.5849012866021928 0.6598072918824637
P 4.702251029037925 1.2867337547427655 3.6511887023028433 0.13101750356185823 -1.2587925673815483 1.9044695905102167
P 0.22638953346978122 5.675168782138458 3.710973953894193 0.05571066329874277 0.37349927114399545 -1.8246460933236708
Ni 1.4620301573628294 1.0983514620359784 2.6062722001966856 -0.4083636871213483 0.6241355495124671 -0.8093195118143998
Ni 1.9172646461783867 6.701802296560256 4.615731485747873 0.1743948421062287 0.9418092290464103 1.466211172711965
Ni 5.993201348364191 5.778847198804725 9.29680790888922 0.11844583754443473 -1.0307714553094314 -0.08665851783050882
Ni 8.464907887578105 2.1213772692602557 10.164722298952205 0.9937966778572949 1.4523632110852793 1.1556324523515904
Ni 2.3081238257062027 5.476354127056978 6.769246428821808 -0.2710130422526107 -0.3390400610248613 0.6573706574165131
Ni 0.7261124136107292 -0.09192656037449674 9.226542131577718 -1.2437850382291225 0.0953673584584164 -0.3007771608889207
Ni 1.3764175389551765 1.1438703672056985 11.252493273607646 0.24892983720032616 0.02306639490116028 1.1473185331692561
Ni 3.9066925237308494 6.908295824644015 1.5307519813925705 1.8524942258841903 0.7429182015710303 0.8504515059680192
Ni 5.97094624779309 7.959665306299188 8.092100875173397 -1.2907904604443834 0.1510746793230495 -0.1444278634304932
Ni 5.46057835956354 3.080227690517561 4.8718568869549985 -0.12633963847021468 -0.5548625741482573 -0.13536266790443138
Ni 0.6899153876430651 7.461810800465067 7.088907461369443 0.04555840535608928 -0.13261724394881033 -0.24660350305999465
Ni 5.053661702408474 4.337609066801913 7.065405566270635 0.04487809145961303 0.985182968046355 0.16595982396499806
Ni 8.264175786101973 6.977233020614767 9.18513801184638 0.3964576797123817 0.7372558610789303 0.2708320365900561
Ni 4.714564488112584 0.1973161389180772 10.333211312500069 -1.2158703140967253 -0.09947109621414482 0.9015820060952473
Ni 8.261885755336797 7.239795952750667 4.855137844884476 -0.606316261942859 -0.09480865774146897 -0.18710431925309712
Ni 7.2872595665860525 6.054486933603678 7.187117066470302 0.22824402671620045 -0.941902560091165 -0.6512599165330848
Ni 2.4127655092816322 5.378518923811378 2.7910013485875957 -0.7518327304518406 -0.9474340314323553 -1.178955443348247
Ni 2.5703141734715778 4.9380696733090845 11.813688031173344 -1.3137586392047826 0.4634002071712019 -0.8524312554022092
Ni 1.0504607392880396 3.2614945304896925 3.876125156727578 -0.20891781558376277 0.713495525434539 -0.07584780036825002
Ni 3.552519273564216 2.9112197850780617 2.9570294878052645 -1.0061302597219832 -0.18686932042415558 -1.1953935342996123
Ni 1.4322506699918627 3.6039359166966327 8.268849448096141 -0.5919877611353288 -0.5495717580629632 -0.9515454824975677
Ni 3.541396266990501 2.506166049775619 7.014172489096379 1.2232311253371708 -0.8062344451311728 0.8233677623773498
Ni 4.360027740999098 6.781190029753044 6.103589918669373 -1.186703719835098 -0.965430468009776 -0.30624564020265965
Ni 0.9626217020809097 7.411893582238421 11.369549286660487 -1.0492147496162834 -0.14753529871122334 0.12485662616678499
P 0.32973716791441254 5.433552361564987 7.887740165425301 -0.0602265488912253 1.7105850151104927 0.8851945658761594
P 8.451349451460473 1.5976872179285273 8.041732011990286 0.8973139748475127 -0.6935370800347411 -0.8383310685554013
P 1.7449670933698636 3.3497606766093755 10.387530478753112 0.6605945636704494 -1.6871419535962042 0.8886560420621986
P 4.320279349860676 6.348446914524042 3.731004453150551 -1.6341769713633985 0.34113139633625117 0.5966275739001854
P 6.9753791861858145 3.87703117286761 10.382941329799088 0.28348803479116985 1.2588887266397804 1.1349664393618066
P 6.331989590255254 7.836421666468535 10.297287817984913 0.5067412931609983 -1.979801627584313 -0.08309599729023108
P 2.2281999345168058 8.501321194229147 5.934582013229874 1.2936659822199656 -0.20324287668617252 -1.316146936931301
P 6.770230596805413 4.053508940564948 1.5498782819936308 0.7448521853689494 1.07043843488175 0.8031617197431199
Ni 5.344768232296038 2.752398881574129 0.5230675628102419 -1.3625093262459245 0.46948935078807524 -0.8513215672777983
Ni 1.455759835029608 0.9960815960387674 7.038778506171255 -0.993802848504882 1.0704770014291694 0.3489074407372443
Ni 6.868183936558739 0.7647121543970943 9.366195841074068 -0.744957343488246 -0.5216614048059403 -1.435132963249922
Ni 2.5949047419262117 1.547261103976286 9.204728679797045 1.136288757717656 0.4263819780756399 0.08681381246145049
Ni 6.349119383875721 2.1862705616972633 2.5382810050301194 -0.0447150835191875 -0.8499334286810202 1.8506939394506576
Ni 4.0338801054348625 6.517045885898331 10.415341630156867 0.07361659704488613 1.0029873432176277 1.001459336608875
Ni 8.147211556028212 7.124249360769634 0.06496871805347966 0.13444015609016202 0.15303720236605903 1.0099424343792218
Ni 7.980829916029729 3.8125195522247988 8.35234833175784 -0.5775713285996827 -0.29130933060780156 -0.38619255034094785
Ni 3.0007945202064166 8.27191827106995 12.38222542706548 1.236901680845728 0.34041251589235566 0.33217007337790533
Ni 0.18505720438544546 4.8795375774420116 10.301517104961553 0.22748503706298884 -0.46631532393546793 -0.4292880959788413
Ni 8.642039949779779 2.3201919243417364 5.748537005891353 0.024143430015422934 0.32263050931858633 0.6368164874142452
Ni 3.6719461954529082 2.8365302499233547 11.434361701026821 -0.13883468561343187 -1.1097675714986759 0.0826609666353415
Ni 0.9908018028857214 3.1181949466164016 12.8611317458025 -0.36370105410665104 1.796582502318235 -0.46186500147359816
Ni 3.3122932288124587 8.474222496841223 8.146685394197641 0.32199159018300677 -0.2325693935644317 -0.8353354762621871
Ni 5.763798425204994 7.94865134880953 3.7267751661739115 -0.3861313580857092 -0.19807547355262017 -0.7004556615314452
Ni 3.226008141053127 8.668411653273996 3.73625789277495 0.377499393442324 -1.257540440142002 -0.7193524984359482
Ni 3.52975527726752 4.191928577926731 9.353068148838458 0.5710546105270875 0.7317565285272559 -0.43735081838231776
Ni 7.476541514236302 6.067963582908269 11.40664415008688 -0.6279222702484089 -0.4018317995401015 -0.2647917439332472
Ni 0.5501998836657487 -0.1614817011548995 0.41336236676514426 0.5455037586411766 0.8646763913181494 -0.8274673863680202
Ni 4.685166672535814 0.4046647935693089 1.637753668895446 -0.18365209903843854 -0.2817317142216954 -0.7467260053528946
Ni 5.976344177453862 5.6920532153198 0.3987825042268534 0.6796999170413326 1.2852942132165026 0.751193554205945
Ni 7.816601995441352 8.951866572430296 11.346686237445773 1.4878997134289922 -0.5852704970161533 0.8658994650919732
Ni -0.058904680237597415 4.993721055872344 5.687913893837507 0.11335839571919831 -1.1521532355537383 1.0786263700091812
Ni 8.014535170426713 -0.2017998737575142 2.2766495338205317 0.6980881897405332 1.2850119060893934 1.736481166150964
P 8.331022874628319 1.7574623009179502 3.5737011493997315 0.027308715117282 -0.2569570783801768 0.0910183374611013
P 1.701792743507348 3.3713978323708256 1.7277973150852421 0.5626643295808632 -0.3977386033073344 -0.8984295765091946
P 4.793779560255618 1.047625463102583 8.330509435190887 -0.4329580886312608 -0.32142491904625936 -1.2159407623233447
P 8.58986905048264 1.5603197317919952 12.476099422332744 -0.32089244358155705 0.059927529593567765 0.5801648003584718
P 6.446109456719886 7.962028036453736 1.380298777605204 -1.2285327400557424 -1.5975120118421973 -0.46977422901834576
P 1.9898277241940014 3.3739332235751283 5.992930543138785 -1.6012743070981068 0.04807602957162043 -0.9055641306714469
P 7.071024320326622 3.8637453594601174 6.3280729106529074 -0.7289105744380285 0.3283432434326474 -1.3928208327452722
P 2.607281812966571 8.455593278314986 10.230347128994755 -0.7079704818512518 1.0922740426996027 0.7095198286162426
