# total energy = -381167.84583904897 ev
CRYSTAL
PRIMVEC
9.23256401266324 0.00000000000000 0.00000000000000

0.00000000000000 9.23256401266324 0.00000000000000

0.00000000000000 0.00000000000000 13.51279067440125

PRIMCOORD
 96 1
Ni -0.11553168648758683 2.457403795687979 5.9394929117508575 1.3728870699358227 -0.9758578339906872 0.9690603514528795
Ni 2.402257692408292 1.449457113392113 0.6909632245489831 -0.00782335269916072 -0.6809648997966853 1.0637453391322904
Ni 4.153647338121782 7.801424043244975 11.572218197544382 -0.04724324925767993 -0.6781809092936449 -0.05733945715141738
Ni 4.751058840703177 1.561411181426514 1.0584626548548486 0.7364968714257187 0.14306389320343105 -1.6066995918787361
Ni 8.135015036665639 8.488179065236636 3.820444112378624 1.5962989653707025 0.27239423887085346 -0.8787601231047253
Ni 4.147489218100428 0.3164442760238735 10.009693568929599 0.36926492134767375 0.08244525108010962 0.3539149212541647
Ni 5.361192816132287 0.2143829000477654 6.189695389380106 -0.997236042556147 -1.1771548998043986 -0.9918063869001434
Ni 5.523575147370045 8.668749547062202 4.054755501281103 0.6501301738040158 -0.06798125313597969 -1.021431408855428
Ni 1.0680045094906356 5.906394170706546 9.626147019569586 -2.1456269828539756 0.41111091084918233 -0.4521865978435696
Ni 1.7330814717969292 8.560414644017863 9.828298619161142 1.7804048641171082 0.11466888700050575 1.6931123122470262
Ni 5.806442435547349 0.2592402342842771 12.445009379101702 0.06523994294541667 0.5835054346959306 -0.4349105843719413
Ni 3.976068206951267 3.2966069103222293 6.476774573140231 -2.5689776303024594 -0.5013327205509173 0.9038540899588755
Ni 1.5309714187422472 8.334189134447772 0.8312972702949911 0.24089539693162382 -0.10926314260390214 0.9142724570787223
Ni 1.0613385984630224 8.058273966774335 7.8346889704367895 -1.2350432874807504 0.09446387280754052 -1.5316791725077878
Ni 4.0259332837658635 7.289598406627533 2.5267431192207814 0.023192378956063284 1.5440924585704763 -0.38836641806381506
Ni 0.006821018098615826 0.4799262056042745 12.93192925174672 2.1994021196929023 1.042428065711753 -0.5824409979871582
Ni 0.20253105796168916 6.24942084427987 0.9776057080437256 1.0770952780766354 0.3063909075312723 0.5336666567969326
Ni 6.323521400938629 2.000770425168975 2.7336236379651693 -0.11705512784449518 -1.966507481578568 0.6704568011765099
Ni 0.5466831810561581 1.1617150315547269 10.361890948075953 0.15677841457604613 2.243707626478497 0.9031424086038318
Ni 8.920955491025236 3.5178560680309863 10.589243753679938 -0.3952400052551967 -0.8324802662015791 1.285808948069392
Ni 7.010747283681548 6.927469558655135 2.622183823731652 0.49785838884907163 -1.8628539718519592 -1.0730262502135843
Ni 2.752855068256746 6.429308116387925 13.37536559564125 -0.05711731383828227 -0.12188571646391913 0.6381352062256688
Ni 3.72657663673078 0.6118041462115139 2.7802157709303352 -0.6810993684920206 -0.9789030485749142 0.3358120410058668
Ni 3.1093151220865485 3.512528878747146 13.159768613460338 0.6258684730431737 0.924825292893904 1.4336535504909178
P 2.738276850095248 1.8375479306299531 10.064082601981772 -1.537071804278269 -0.11369212490953323 -0.8329510351904106
Ni 6.378593643708315 2.6616281058414466 12.657741496750939 -0.965854185810756 -0.4027568824575322 -0.1852909201934422
P 6.696526209008712 2.7519595095729805 4.976098889087749 0.032338050011073344 0.9264139775372625 -0.9217178576131739
Ni 4.324523628009684 2.5814894524900858 11.560151236722925 -0.09241521780862794 0.0048622131883077555 -0.8633597293892551
P 2.863276530708621 6.942906405245396 8.960993426984166 -0.9997153573345751 -1.7415261847740393 -0.12058525248494072
P 7.79055731571104 0.488318606053167 11.450603174801817 -1.2248349794891809 0.15724892645456143 -1.153014298002453
P 2.8397519582732214 3.263323518002914 4.432721889110521 0.8852534441385528 0.4388502857459797 1.5355047169014653
Ni 1.6203241707162643 1.6597010551106832 3.433924677491061 -0.30785669344352146 -0.3287204242664081 -0.12760025035019318
Ni 4.750421793804416 1.7697162847575512 4.44650518353313 -0.5917743595729421 1.1451989157230924 1.2338474674004363
Ni 5.6648241401836925 4.374296379186779 5.886293032909704 -0.14978475686703233 2.5039868272533714 -0.5440161183520567
Ni 1.8373263490999492 1.8586535713628114 7.765665400584242 -2.0583976801216615 0.8162236951334007 2.539882512708716
Ni 7.8126693058926655 4.313961575079505 6.417940060642357 1.0902492989600903 0.22261948144057142 2.811593609469616
Ni 4.898678302504434 7.05270005336226 6.109605668616621 -0.1546071179563402 -0.3486019936816835 -0.3772006312549826
Ni -0.004229437453946819 4.011521251751869 8.55108329183558 0.7415390618353165 1.2155507259737774 -1.8649612480029494
Ni 8.064182807574436 2.148537607990234 8.652928625819934 -0.7788663375308651 -0.9629434399218642 0.3655689605533252
Ni 6.7116399158677185 0.08230553606352262 7.91507597975303 0.44247142743833473 -0.11203119226734252 1.2192579996220356
Ni 3.0016449636322204 8.233267980094809 6.591984966409313 -1.0220294474507432 2.0449050449518653 0.016273797459359068
Ni 2.807631868986426 3.7171132588868696 2.4676113181701522 -0.34532692247483754 -1.3989855667950877 -2.787030832528587
Ni 1.0542202918116514 2.6759570447816903 12.772856794613395 -0.7331161278789439 -0.3532523479695013 -1.6483463208852451
Ni 8.2564232499802 3.708942439967981 12.876810846158284 0.05657326840935418 0.8295165555875651 1.5490217775512936
Ni 0.4699781181634806 7.213069685702483 5.519379870401974 0.2861902642136813 -2.095730869354481 -0.851610816383443
Ni 8.981391853333761 6.161757651472132 7.620659677580655 -0.264981234236234 0.26219621529192905 -1.7467298404621658
Ni 6.442870752536905 4.040031408612353 8.720789815896335 0.6295778035739609 0.01841886882681989 -0.4502307596687794
Ni 1.8627251319766305 8.22692520879845 3.217395206371384 -1.3025326885819761 0.17736678025035907 0.757681990143766
Ni 1.3121781229910319 8.000247303604601 12.13694457793747 -0.03217684184286071 -1.6824206368611347 -1.4191489291168398
Ni 5.378910105968838 4.201481250911344 3.30341777260072 -0.5977012665803384 -1.531691256692646 0.08509760110129215
Ni 6.217189964228074 8.168741592044961 10.091027839286603 0.695904294715337 -0.4137005259532294 1.3146423273613166
Ni 2.424009612603662 1.657226728025641 5.699816480053162 0.7917419079419525 -1.1606874982769946 -1.0346695048122567
Ni 8.51719701310338 8.683780160847457 9.610553219395571 -0.4680490187971229 -1.319627953501366 -0.5692558667554519
Ni 7.69043016184059 1.341149908039024 0.8244744056836252 -0.6400625051553686 0.4337525595080981 0.8831047732266661
Ni 7.766783464054387 8.146611136735837 0.16686012465658343 0.18577274492586715 0.2960874687227352 0.20783383849096468
Ni 4.7449930463193235 5.148197570416171 12.544422855794263 0.496799351456938 -0.17183839423296213 0.3094510345138348
P 0.867098382748974 4.246231487408354 6.5155430315835146 0.7692336995371075 1.5962704261256122 0.6119076399877075
Ni 4.203549345191379 5.304523339833825 1.588090520895342 0.25210309272198517 0.048551940766774444 -1.5006588128668736
P 1.5740874914554794 4.6042980073306845 0.7125184911364741 -0.03547068210278407 0.386626809664889 -0.362765172555943
Ni 3.8809635677609022 0.9347693820121232 7.6897912684290795 0.42253509352572394 -0.12221456055824757 0.11046204800800977
P 0.4597244328625565 0.7730804163120026 1.7556624762170625 -0.12579456460002206 -0.5631461543132882 0.45301192195834245
P 3.550594739089042 8.777712264441552 13.410160358646467 0.4412784355714981 -0.27984683849415676 1.2592263124848573
P 5.280435581009666 3.6678298335885327 0.7232291883430311 0.7027693972662865 -0.2284502291897356 0.3531888417214175
Ni 7.5702129492497985 0.9101738321817056 5.204694397772505 -0.5010103042144919 -1.592127350491516 1.3528594618609862
Ni 2.5678991186498554 4.659388715227871 8.16019870080694 -1.6369280517459743 -2.7882868164228753 2.161353906670929
Ni 6.864872776429071 4.6569236207065785 11.060867114703697 0.864457333328808 -0.9128393241766215 1.6872028887411268
Ni 4.2790070887214116 2.7860184372473085 8.950412908926484 0.3383399496340431 1.8643292708459056 -0.10077207441375548
Ni 7.443532942033897 4.888633273144263 4.35840159743451 1.3186234234962515 0.3566778287112825 -2.6331479943327816
Ni 2.7390893157052623 5.9912506641342365 6.547649272024684 -0.9260702210445987 0.30870181505263605 -2.562039765532046
Ni 0.7925205025443327 4.42435533984013 4.143007731656102 0.559522955738404 -0.7368280295128923 1.002398560593693
Ni 7.78463000978344 6.1155948327213485 9.524895339434366 -0.5420546237503115 0.01702481669277068 -0.16677923454249988
Ni 6.024857196184807 1.6828378598685758 10.24304661771481 2.3354021640710165 -0.17493400243915033 -0.18616509526827937
Ni 8.616096235995059 6.658903511726824 11.618243451095287 -1.0535455157811533 0.6958636712853886 0.3447985607751933
Ni 4.554128255912333 7.921447371997013 8.486910510977363 0.6955826497098601 0.39516441482225495 -1.3115634313256765
Ni 7.342177857184676 5.937212468504569 0.4217499749017866 -1.4720848578839227 -2.175085140214093 -1.2792418363748355
Ni 4.984771959474645 5.305178851860086 10.160307151155031 -1.3093240004721967 0.7025554814832675 -0.03654617455514996
Ni 2.324270226410718 3.8732451444657707 10.59164975979323 -0.5394835205890257 -2.1391663148302964 -0.627148625307178
Ni 0.7552375636084495 9.350648240521283 5.302891945819173 -0.47489200986088537 1.2869356054746675 0.4763500824636505
Ni 2.5682222583811103 0.752201896647398 11.928009813758674 -0.38637484155508295 0.6631348135937999 0.06518415000681678
Ni 2.7459491105716287 5.92204336626306 10.994803504789452 2.104539725895363 2.1109993654777774 1.2927522121564445
Ni 4.617722155023413 5.496893038132092 7.945196295731541 0.7173138707393646 -0.2220525531935079 -0.6909981156629712
Ni 5.9956268993518105 2.208853946970008 7.075729760380652 0.6907050099025847 0.7626089951317382 0.5820514758582234
Ni 7.261586808209557 7.047732934064677 5.4679507972881 0.5995910274038836 0.21414898207571503 0.511393704331345
Ni 0.7914458321238145 4.918399058674768 12.004587467271598 1.059331269224995 1.2290821848013092 1.3604560432613215
Ni 5.554245724148066 6.258090221641267 4.17003329226556 -1.6663005913708204 -0.295159300481511 -0.683747604748145
Ni 5.481779331273086 7.447586037520216 0.23802380278641683 -1.6921748880344212 0.3526666506693603 1.6182194195928779
Ni 0.45913724180804655 2.9154774461520074 1.5766587604598978 -0.4578471385634567 0.8391147407989612 0.0453095225700768
Ni 3.1916326604829464 5.417760734229499 3.9346952422740644 0.26866202552193086 1.0752122021213095 1.2175803548092965
P -0.0622524075981821 6.168635911465999 3.3317949805432017 -0.7798029904125215 1.6957962868370924 -0.3842716791691511
Ni 8.570847441055541 2.5543641801921253 3.6677495102839064 -0.5522649886244102 -0.5434605029589028 -0.5203966791609038
P 6.1643058390671746 6.673583288089573 11.90579534211942 1.1297275595603704 -0.20695374987885645 -1.4126568936345927
Ni 6.460403391098453 6.941595381192874 7.646361288548341 2.5156244114922997 -0.7202333583790047 1.6638184483789153
P 6.597820869955786 8.870896530371885 1.9376261519125275 -0.43647690041779663 1.437136881053828 -0.1103484052482809
P 8.80577925824203 0.5091177256695202 7.540745375528423 1.2094824082925106 -0.3273829364019072 -1.0836683033084629
P 3.4673354791901283 7.834568947108037 4.6026047551389055 0.1960882679192623 -0.5430954063100002 -1.0885657406100802
Ni 7.362766474347526 3.7977227729894882 1.9677732423259142 0.19037913334962697 1.3679366679090827 -1.4390744643961733
