# total energy = -381170.474861867 ev
CRYSTAL
PRIMVEC
9.23979292041243 0.00000000000000 0.00000000000000

0.00000000000000 9.23979292041243 0.00000000000000

0.00000000000000 0.00000000000000 13.52337091160442

PRIMCOORD
 96 1
Ni 6.3404844437006656 7.030696968848673 1.5159432439217277 4.2712279002950115 -2.013839433895312 -0.430313194809246
Ni 5.79614052811774 2.9171411964806304 9.699016088023804 -0.2498862875763245 0.13617719338592676 0.12768046876882527
Ni 0.18506473477164592 6.307794056632745 13.005182130405528 -0.7649957501963599 -0.6336414321203733 -0.736599458441854
Ni 8.834138214945572 1.7015632902430575 6.479993303853975 -0.3054455128988675 -0.7906607590626319 -0.7532206119383028
Ni 0.18213017656566188 6.7795132004932706 2.0859525320763215 -0.18081514381027572 -0.10460584633754888 0.06271434831008554
Ni 0.05544614887427257 1.730955071267098 11.251890783927013 0.36245329774247903 0.23706008234593368 -0.32506380135042723
Ni 8.218841930144285 1.4926700537163355 0.288356378930007 1.0095413422860613 1.2810526643313291 -1.848863056889506
Ni 0.7094950488258034 5.911665657996261 4.806855312303894 -2.7567105842784914 0.9827345065058624 -1.5883429437484193
Ni 0.6176034610734344 2.651450953366427 1.828386838806331 -0.49906757866582435 1.0160182082596567 -0.14227893540829045
Ni 5.6034631280252185 1.556286027419736 13.327795965269118 -0.13392799234043387 -0.46861903236798 -0.7350809649147985
Ni 7.925792660430842 4.926075435339131 1.15704566655474 1.5751452141112228 0.16485913470165156 -0.052648993654283514
Ni 6.011612497146543 3.7109133197793587 0.8046649150778042 -1.6906700213541204 0.310637084402136 -0.24153868694257755
Ni 4.5572875837162075 3.288682506369874 7.697273179932676 -1.6004762366768435 -1.5574292848886984 1.196792214419352
Ni 5.367164665935056 0.2681323203618148 3.7131253261852546 0.6371314475515027 -1.1032040593485453 -0.7146185832953886
Ni 2.7501134613119484 3.166125894140113 2.71541157134276 0.44413107452894474 0.16678694785198372 -0.15356093608001295
Ni 7.327220400669956 8.064934700808402 9.388438007313598 0.32014245278940995 0.5577003007073685 -1.0097614287166674
Ni 3.350773914254675 3.393193803183115 0.40069193232016015 0.642130443427991 -1.4113561725452983 1.2320320114582524
Ni 8.987380179196974 6.037539355855583 8.799224733720347 -1.1964281462117137 -0.7503983119981592 2.6231620867646632
Ni 1.2112352036027727 0.5209007131892773 4.6825486833102365 -0.06879706416905572 0.8950076953118393 -0.6054539139425636
Ni 2.530067794827346 7.533628132922718 2.8017583594118447 -0.7171752882789714 0.4259546607302341 0.4333013309032925
Ni 1.638409306181657 3.1188920731420327 6.659029073797521 -1.9836238295438804 0.1638818583900468 0.7193237020805419
Ni 3.559768788502637 5.362590968479256 6.746525292095902 -1.0857799503348269 0.17446220500905438 1.3958629620057057
Ni 2.620128055638827 8.547991070483608 11.328987615383973 -2.6597427141021743 0.149866003726929 -1.5850820136089603
Ni 0.17140277707842178 7.757776267428281 10.861065102401405 -0.2389423869703111 -0.5338422631428483 0.6008284993554104
P 8.186234701211925 5.242926411408414 11.378226471428333 0.4809670124103717 0.49064181649597444 -1.2037143954604816
Ni 6.494484070964948 8.853495580945372 5.724375057129459 0.24983743661626004 -0.32687205820375964 1.4118164000111686
P 1.8778308182517394 4.264349191516844 4.926821086621319 1.5117603220966738 -0.8359458561526764 -0.7740041243425573
Ni 4.578520627662527 7.951774957896922 1.826412295076423 -2.10844497448704 1.5313984080425755 1.9116283130421852
P 8.570258971228009 6.407925691639826 6.675109085276974 -1.077024829850016 1.2680436536661712 0.5991102311127231
P 1.059416167448731 8.901828937291413 12.810189238227302 0.26085255677984104 0.7974996363613363 -0.5678556439738156
P 4.732307739691489 1.762869315736458 1.819731924853103 0.050216215843074806 0.0005746415565473974 -0.2711847919437846
Ni 8.573539097686208 8.277745609499286 0.36777332236909177 -0.25583247785743035 0.07831734495466512 0.34360993978373083
Ni 7.527899461361917 1.6280145392366567 9.465804640721485 0.5927691193860437 -3.0403204893595057 0.28459695158463244
Ni 1.328146302407294 1.93850853783202 13.254431086140233 0.9487221541161597 -0.6806576529689117 -0.03265840946496956
Ni 5.886551901057141 5.442330380688457 3.4418875114499152 1.0977067836793999 -0.16059264611581375 -1.1424622335182195
Ni 7.124083555082554 7.554158952613198 3.9236299825832726 -0.18914783204568716 -0.13677420353997735 -1.9434482857662594
Ni 3.80950190938216 6.499002329663707 11.02283169952699 -0.27054998657326307 -1.0531482803427348 0.2409182797497593
Ni 3.3337264964648745 2.5410077095499064 5.323420714692642 1.5736550027189415 0.9351636987054346 -2.178871860950035
Ni 1.055720250312731 0.18831436991347397 9.598875213223884 0.5494036079162151 0.7670708875578337 -0.49636432080204834
Ni 7.440167628346117 2.8174623113227093 2.222890881861543 0.8153981139083119 0.011684635426779878 1.72952273255526
Ni 1.4357252104434148 4.395341734609525 8.537019740465393 1.6221982017349676 0.45779983026528903 1.9722821792788163
Ni 7.324402263853756 0.2302935207234464 11.641323104692349 0.5345326043416536 1.2853638901121733 -0.2042296660794741
Ni 3.8147593515081195 0.03659142760496838 5.767217204590688 0.32708597398677863 -0.415773092211542 -0.12214771187605417
Ni 4.993793877063491 8.345926040865647 10.298479987793751 0.7334406010978982 0.45097997912997817 -2.0753296799903094
Ni 8.052562618195644 3.801962238424719 9.605785654288919 0.24527784227003563 2.0873539581446954 0.5560149425851456
Ni 3.5071296886931567 8.161638372671845 8.21919396625149 -0.4733434344268429 0.35732317560476523 -0.24562956918249954
Ni 4.570805400641127 6.518322736492148 13.544332358433088 0.45429618798740473 0.09158552281848098 -3.0371068675182147
Ni 0.05498138729442057 3.85329852744376 12.527780513948402 -0.04571215732513418 -0.637380073227199 1.5719362202556217
Ni 0.3461337275378116 2.417859750578385 8.574371603021092 -0.04237975051779153 -1.5814454452976376 0.2064302732752187
Ni 3.3259743102721147 1.1172295512486115 9.649777231979444 0.5878202600212006 0.6526226012085664 -0.5756288601613312
Ni 4.405764220933046 8.64341965093513 12.391288446157352 2.45953168226379 0.5080638686271638 3.3032366135365954
Ni 5.326722092674375 4.314364190159765 5.982009124866466 2.140838817436713 -0.4939564826915041 -2.2532775295551195
Ni 6.71930671034783 5.511721224916857 12.911046196972322 -0.7583353074570489 -0.6031478915172064 0.8644596473216531
Ni 7.009962873715712 7.224335307396555 11.447533233541892 0.6331477803134063 1.0489470977771935 1.4777168593587195
Ni 6.950671123061432 2.989876845717111 7.330356386359852 -0.5015090982277814 -0.7755678692852513 0.13645332986544886
Ni 2.024087499116101 7.665433777785319 5.279997384261779 1.7190146339350847 0.21206253186033158 0.14621349457600624
P 4.3139853586533246 6.154884724923584 8.749337244218617 0.3544453398363379 -0.370465112303362 0.5211330431062962
Ni 8.004571134184683 1.1967379686368123 4.1806144928836275 -1.2966952559645928 -2.110536566908746 -0.3826871082908506
P 7.247906018931395 3.260676694271834 4.707417585739097 -0.5124583981504336 0.356086989204819 -0.10148658398227682
Ni 7.186452156752555 5.585362373851658 5.4298899236086795 -0.33587220481984087 -0.41788396790695775 -0.1534267244949938
P 6.525243341329308 8.495943317415888 13.427814874803552 -1.4873505257937416 -0.012146148444230695 0.018968056462070556
P 1.7781888922651785 2.826286313484909 10.159540298879385 0.7025336271063966 -0.3070043727455551 0.7016422256403787
P 3.1300722224784323 5.083410627818653 12.621158784368728 -1.3803651234804226 1.029095610268905 -0.19671356020808703
Ni 6.832022943202991 0.6251514478444304 1.7018894549303096 -1.325042439648718 -1.7790781748858842 1.5958449085524193
Ni 1.0398555260064508 0.35794865064231973 1.5873326553414204 -0.5394308129742194 -0.6224995565709408 0.5187450024900938
Ni 5.283544540733055 7.054470955825994 6.880961505980052 -0.09683571547382677 -0.13377526881265348 -0.34099615630996755
Ni 1.349120632154094 6.057876139896423 6.896269994757364 1.743014596394108 0.5636464909884744 1.9040286463180567
Ni 1.6473996246149771 4.921307702233691 0.7634388073842919 -0.9143146231705672 0.028338184823060872 -0.8652170943129681
Ni 3.9790890671675214 5.525885827340577 1.822733933546819 -0.20836579973503466 -1.1698329122216886 1.6190249462133084
Ni 2.037910229204741 6.666307258617588 9.313126303833323 -0.07858242569059369 0.4077836462481622 0.012531042587475193
Ni 1.3697068906016143 5.014306217168292 10.949210878136437 0.5504747294932069 0.09342540424069716 0.0665468346822983
Ni 4.003186446894241 4.073704545849122 10.04365851299724 -2.8773436592822317 1.2524733100317398 -1.0466894120912684
Ni 3.931116062742241 5.399254466468376 4.432257478943178 -1.9204022025800733 -0.20238387111998693 -0.38925139177192963
Ni 8.76139332591625 4.388993996928446 7.162801982999291 0.010467218079911005 -1.7284760364583005 -0.7874723340323212
Ni 5.5888642553380175 0.05390033153214056 8.099538648973487 -0.4709458807289438 0.8348734490241041 -0.3389184478453324
Ni 0.16828896689134173 8.015427890771683 7.96445380163197 -1.3986896328212235 0.740576440811731 0.009758107828028356
Ni 6.053616595397182 5.476194221447057 10.60640717193816 -0.6286642906207561 -1.799016051460392 -1.9511286851296525
Ni 5.135846452185653 2.999763424055911 3.4663239915738635 0.6902699792476951 0.5825662107111128 0.6170336483603631
Ni 6.607144865063068 5.320115640793776 8.180976335106681 -0.6404096040821422 0.255933779321985 -0.3107718102077874
Ni 2.2397627435873835 7.3401838300244755 0.2612172594003587 0.32569140763209714 0.20267080623278644 0.3618058939664672
Ni 7.127215844855313 2.990662228108511 11.885650022781187 -0.30219049629667954 -0.22438917174648454 -0.2720337702076412
Ni 5.622127509562018 1.663624700842017 5.508433706624386 0.5588763232933407 2.24647284792846 1.0213167376544348
Ni 8.375391740232407 4.888173805109451 3.357081920826543 -0.29439234040849943 -0.174311538363803 0.36732888066722547
Ni 0.2112974306236902 2.8582097977471093 4.140598798052155 1.558392420132916 1.3645176149252047 0.7469702601532167
Ni 8.72964539771801 8.142604399421444 5.434812885233832 1.166568382537804 0.7931968952209243 0.6866082141253916
Ni 3.276532178785274 1.0990918379036914 3.437140105888724 -0.8961603208590436 -1.3024581265902988 -0.4513908414151516
Ni 1.8791798280063794 5.2462157776594545 2.9526931473910984 -0.5025087431368894 0.24955461526851863 0.5555269472051335
Ni 3.3146370844574347 0.3162457696382633 1.0362418430267266 -0.4042818037424909 1.325675959467659 -1.1913710434037805
P 4.228988504318164 7.519445050913317 4.290965338771748 0.17684433208798578 0.8990682385344582 -0.2501282283838015
Ni 1.5750520466777764 0.13235633651586537 7.064649511618537 0.6603009436894306 0.8381408069214662 -0.6702580549021425
P 3.064007703672432 1.5988075540694164 7.1267215159383746 1.6100636232549628 -0.5483787661961266 2.5372962400387786
Ni 4.816371374949809 3.9275864618773606 12.14775984616989 1.4248004709756623 -0.15707743387370368 0.3942275048302823
P 5.4426814928163765 1.1980962181842925 10.98437106183049 -0.7808813110783649 0.3254173280351041 0.03835983072512104
P 7.627338111905999 0.32402659918882737 7.6983006448964835 0.9670134962261798 -0.11143418211329194 -0.8694234190848318
P 9.208312865794214 8.61647641501369 3.242430875350686 -0.42397825373015363 -0.05472104569196382 0.3802167923734871
Ni 3.393249241940155 1.91514110173966 12.093260776061719 0.22079219842384556 -0.7491631540394775 -1.2068524268688314
