# total energy = -381168.08534603054 ev
CRYSTAL
PRIMVEC
9.32296808288861 0.00000000000000 0.00000000000000

0.00000000000000 9.32296808288861 0.00000000000000

0.00000000000000 0.00000000000000 13.64510616936192

PRIMCOORD
 96 1
Ni 1.0168654269404842 2.989670685887363 8.611876195734062 -0.2510427697782709 0.5529985243563251 -0.5209409817001479
Ni 9.268381878462172 4.267830932907071 2.851704746081377 -1.004155909604432 0.40462787422799995 -1.8055011449641036
Ni 1.1139921060565274 1.118038274105708 6.976620175548105 -0.6229111901870628 -0.597018895801333 0.6968309202946644
Ni 5.483079792839519 1.524473057755536 3.886140238241874 1.5778150476339021 0.21445571468285646 -1.4224728512837501
Ni 4.574416730827121 7.037572807088975 5.986899501814981 -1.3288178475307502 -1.5628247448726569 -0.4302535452159042
Ni 8.846955762501095 8.554923117403098 12.751269261983216 -0.38855950791122756 0.01453110373663949 -0.09563475318719014
Ni 2.1850332992038966 3.387127451492581 1.9936588734455125 0.1855655140110675 -0.9905712289414617 0.7785128108461882
Ni 7.716583201922885 1.6137684438731656 12.624219585238947 1.0318883425226937 0.47173366673756173 0.4924698708436486
Ni 7.196641284635331 3.8577415458579827 4.07134472387365 1.7072310110365951 -2.4835136470006844 0.2468503289634781
Ni 7.13180936616989 3.2384820520084 1.2322353073647228 -0.09434894449623106 1.392508700821492 0.040385088685265934
Ni 2.947614777892309 0.4905699070595741 8.532298139011965 -0.9969555352012508 2.064919283290263 -0.34905836449281175
Ni 1.279101866773088 7.786980932197912 1.0211428045924749 -2.13488311407391 -0.10152515052969613 0.1905233722369751
Ni 8.219715808167415 1.3031271549360794 8.441285462215397 -1.2925035864807481 0.9553784830904127 -1.6615589629207772
Ni 0.5664793759306288 0.4815685815953257 9.571372739977235 1.684163073473538 -1.4098777882275588 0.2619612164629876
Ni 8.571061174760542 6.866869265659262 3.0399932694796714 0.3162585443539715 -1.1677307782770212 0.2613654918605176
Ni 4.552022962038799 8.891277151684976 7.348640155657047 0.9896317478463278 0.5375798758084097 -0.733356268914208
Ni 8.076766742042794 1.1536333653770705 4.919702168314333 -0.03666058864582719 -0.46945695488824307 1.36116875305763
Ni 3.873693143858323 6.761818063866252 3.3712690831707928 0.6494699145121975 -0.5670619444279267 -0.7913446725035338
Ni 8.521444339834877 1.905055251542743 2.725405568249456 -0.2810318599411934 1.1354246099451477 0.8513390507792951
Ni 6.748253145636856 2.902118694758666 10.274710487132648 1.0533022894220956 -3.0292984272173893 0.3543702636240284
Ni 1.15361471944136 6.70188070352482 12.454311292967288 1.1629945491436164 -0.12734802513007099 -0.5887276023268183
Ni 4.326714797880859 6.841697252450074 9.007953162096703 1.8339668565039642 0.7504227374781914 -1.5549281157333996
Ni 6.20774476126061 9.149141119593464 12.240260612494568 0.6062314155385365 -0.8540770185357485 0.3883785022486731
Ni 2.2850780672586346 2.1076713119409933 10.374988329383767 0.402416725509294 0.2242909556057234 -0.2589885069879088
P 2.746247995186663 2.5354184001079334 7.483944388140358 1.260315431783978 0.2445473918619143 -0.13932268099344391
Ni 3.053756766924384 4.798727337424548 6.591459472247183 1.3077278596296704 -1.1947340463387424 -0.764082237243155
P 1.082377922059359 2.2825795118734264 12.331287273742918 0.9691056028685181 -0.8320596337243927 -1.9258588548192705
Ni 4.057197120153301 9.098899645821497 13.216185158395485 0.2573363160964665 0.3948083170344168 0.4724489476370315
P 6.7815174949444055 0.7518954929327195 6.717090193283883 -0.4750707015305947 -0.4245629225890301 0.48528749416259653
P 8.922201436060856 4.931309263294126 5.059946641464145 -2.0972753310234653 0.42410603755726956 0.3136733001252985
P 3.208890952035822 5.337669463201111 12.715969708792866 -0.20865350617878262 0.5059141692740126 -0.046198867153565595
Ni 1.859661721055508 0.16825066858699586 11.767975842289506 -0.35921293642831037 -0.7055880976620043 -0.7531082547301546
Ni 1.674619455064413 4.3210930482641405 11.272331443826316 0.340077244040124 -0.6578897631447767 1.2733936051241748
Ni 5.797077350204496 7.111904829798921 13.013501040331894 -0.3460805128114104 -1.5895847865753203 0.8797631104479429
Ni 6.368752416120859 5.9059323228824505 4.030914741472553 -0.49753725806422705 1.841776839466686 -0.2798743492979825
Ni 3.3317863143037894 7.181566045613384 0.7079022722173437 1.941936219997107 -0.6745710804551994 -0.3973655362386318
Ni 0.15184224516174757 2.965141957460188 5.792387897373304 -0.4035546957684792 0.4444704601462346 0.04649968622343604
Ni 8.375455986189445 6.438376340063901 11.362225364480253 -1.658367709676989 -0.769288978255075 0.48302646604256166
Ni 5.495050483565666 1.5773902233019619 8.430560319994713 0.005781639678783591 0.16622593314219114 0.6181070839302
Ni 9.128583975472628 0.45645530308362614 1.176613548843488 -1.0680766195177929 -0.6150171321509666 -1.7279152788588241
Ni 5.282775828469371 3.8059804283256087 2.8785987114534297 -1.0170877871747515 -0.8018383729460061 -0.01626994080461714
Ni 8.73643197857705 4.339282158549742 7.612181810989386 -0.9593544370190251 0.6403543253641746 0.28704052802911856
Ni 6.437192323146284 7.536444817023654 10.525656812892539 -0.9967063953049223 -0.7347636907846959 0.3985194473374169
Ni 3.007617399008728 9.13209873435406 2.4170260313140544 0.6072169193802575 -0.1587221685659783 0.37964369347883653
Ni 7.689043154878462 0.2747702378172083 10.459437636810234 0.03568305522390629 -0.08909643784804011 0.18659292683431736
Ni 0.6887547608362217 8.777779341015105 3.146288155184572 -1.623388365388327 0.9478109551557999 0.448614307111279
Ni 6.676167958180027 7.758620463982228 5.467089038374186 -1.0063215497971831 2.165782117645612 -0.21778143662197977
Ni 8.529657874515356 6.998751968939695 6.21035146307294 -0.6529380755664562 -1.0300561744099614 0.16535098673640555
Ni 8.098377381531275 4.048051288687296 12.157816675453764 0.951548053600729 -0.17720505786151416 0.7976343621669877
Ni 3.248094031867168 7.465972503005784 11.694674007527563 1.0919469983774872 0.08642557588409631 0.7830374381894192
Ni 8.687766086372621 6.0365564255024236 0.09533294010069233 -1.07342965629959 -0.294651250496841 1.0916137834077846
Ni 6.41999144745334 8.522078301649035 8.425744074800688 1.5541963797736975 0.08668294331054104 -0.0709876440624713
Ni 1.7227819070046588 5.211641583733779 0.6288957134247735 -1.3673769387508707 0.09497603655726869 0.6678203919949273
Ni 7.390894642867417 8.969673988379812 3.2662700899977724 -0.7735631801503968 0.49365000719467894 0.4807613241574688
Ni 7.056787443838655 2.8919193679250177 6.937554143344232 0.620308462456893 -0.9418501095866747 -0.1711475388135246
Ni 1.848054626075716 7.355980128249488 4.362149534105111 0.6553682822745035 0.08294764463782489 3.1949052387183428
P 1.4016802481339767 1.3596429860746333 2.3798432386169424 0.40101907383081903 1.1513849899291462 0.21839181651246903
Ni 0.9334528335395205 5.731975065671254 6.660599534158538 1.1684411740804845 -0.5548402055507542 -0.25398591156699485
P 0.37371396336824075 7.858506741583427 10.711653750792012 0.6755663544889333 1.6266148427454243 -0.6859947489111088
Ni 5.637430848651116 4.288192294702946 8.91141382995554 0.11447142627771897 1.674219589107581 -2.558453076622052
P 6.602926722709146 4.996579361248763 13.375096077785088 0.04116233317092265 0.3386351122769587 0.5578067443782457
P 4.480748872785377 5.010563813031646 4.669969692969197 -0.645677794459617 -0.8915631884066645 0.7042367258404323
P 5.724218356415681 1.74260253666493 11.815147262746736 -1.4420536016291552 0.855121914860495 -0.31625982990555207
Ni 6.603047921291265 4.950710359400911 6.092949193465288 -0.534599453023847 1.4059378297432044 1.5023503416366837
Ni 1.5108242328154433 4.559984776587187 4.382876356240913 2.6766281770036033 0.5219694229646623 0.4327292604499064
Ni 6.506387390567983 1.0411051433641465 1.2440531014180434 0.4015636334803794 -0.7873702612368182 -0.09379692864750297
Ni 3.460853481291935 2.018525093309048 12.460560478320664 -0.5056344332500646 -0.44086628773474396 -0.2715385757387775
Ni 2.3240573958614545 7.880965771146736 9.579887406519441 -0.3637319073445865 0.21279169671687223 1.4641280649306914
Ni 2.5329198447227252 8.60073618144382 6.430242050610191 -0.6166405266870025 -0.8614126329652132 -0.7474754819244095
Ni 3.144553150866709 4.415199085795081 9.161146305300676 -1.3603963936679795 -0.3355726713015511 -1.3878305786195324
Ni 5.288593360411051 8.32789952715979 1.9348346754659975 -0.9362291638554715 0.1353994346796378 0.19273914894137129
Ni 4.758163104286336 2.791054178699017 6.463795411921253 -1.1075592509934475 0.6244913901899891 -0.338145831345366
Ni 0.13568274497823463 3.0122042991935136 0.27217752045666194 -0.3418911573204112 0.6281503270988149 2.188908676360746
Ni 0.7876220380508411 7.828197773085994 7.865448623448449 -0.5446825482914619 0.9643179516718875 -0.38640415213112167
Ni 7.396609622162689 7.9205977074994225 1.3040529256441062 1.0372642621226265 -0.48109068247242953 -2.2089535108267633
Ni 6.065793252696503 5.691261665047356 1.8366582301694525 1.3164729528121522 1.264624600682293 -2.0249856803201194
Ni 4.221421198923612 5.585315458340242 10.81317341236145 -1.3363570933305888 -0.40998965276054555 1.3555611770628655
Ni 8.233411247946783 6.840308130239642 8.872552903044483 -0.5487253509022678 0.06429429120269572 -0.01911358090099934
Ni 4.044685697291549 4.892404518434148 1.1862581590897487 -0.7675632538132199 -0.13362897304277632 -0.5446077291894684
Ni 4.556805644548544 3.1819196060305703 10.554420965616355 -1.3975478059072965 -1.1373369964765123 1.043417683318532
Ni 3.373879514170264 2.975620973329494 4.145492151820061 0.4810544299178554 0.2042461211397063 0.43173527196775324
Ni 4.228301549200791 0.0673286092570783 10.341038741938856 0.9281078202999178 0.05502109343088589 1.0207870904032097
Ni 4.248877339257338 1.8380044667277513 1.4154474747658312 -0.48197334218769894 -0.14450756762849304 0.435081819842483
Ni 6.246658829088443 5.021816635232938 11.081927539021663 1.0007797940433474 0.83333361534081 1.4551484871399003
Ni 8.137067698130581 4.561467128476172 9.830739570303994 0.6008871205074877 0.7878163476353013 -1.1587594280163465
Ni 2.056171237508566 0.8248691592261547 0.3137532956071702 -0.3571275146541914 0.7419987750805543 0.9998346565212586
Ni 5.101416134781102 3.232664520066721 13.355092717954854 1.470029260906475 1.0096752967607645 -0.01836564699138127
Ni 0.7737503941790076 5.750387927185381 9.710485404829418 1.6841643590251187 0.7448601557887493 -0.9100188240086908
P 4.949265299383346 8.53544743755347 4.191913073364946 0.28597223466560423 0.4734208246319976 -0.30598930121747947
Ni 9.063593566553648 2.5500834285442493 10.467160783381528 0.6149654529774248 -0.7925644038432479 1.3350383745191654
P 1.608771333102749 6.248765819823732 2.7254326048562363 -0.6794752026250362 -1.555559064449179 -2.683437229505637
Ni 1.4644984055426828 1.3505530924157598 4.662259598552901 0.3616575413140611 -0.5114512970421579 -1.003110241948737
P 6.407386794913035 6.311882312203806 7.91088690418139 -0.8473720957117471 -0.19529174015989592 -0.4377987045530138
P 0.3637057573756248 8.593361713870312 5.505758844444212 0.6985813273268678 1.5871761771338277 -0.22453263930288428
P 2.4874517304926482 6.380816336525559 8.004355250711031 0.23171064510856224 -0.3592831275446135 0.10925671484599894
Ni 3.918806985309901 0.8396218235603097 5.286768855601777 -1.1588792414236622 -0.6007385107447654 0.4771941756315008
