# total energy = -340870.20076105365 ev
CRYSTAL
PRIMVEC
9.29441841854277 0.00000000000000 0.00000000000000

0.00000000000000 9.29441841854277 0.00000000000000

0.00000000000000 0.00000000000000 13.60332084974870

PRIMCOORD
 96 1
Ni 3.580107658082185 1.4131047566765906 7.942571110586163 1.2870929569881382 3.5302850772827976 -0.9907897727101711
Ni 2.4504454793111794 8.62751582545663 4.656702426608905 0.2182630042440886 -1.032462469858609 -1.0326319055569377
Ni 8.685113335139242 8.532870764766292 4.273007465503458 0.03025082846474145 -0.1307778767472264 0.13948234649975977
Ni 5.206166124916592 5.954552679643693 1.2232430285756482 1.0141868114778727 -1.4793243130551554 0.3927655755727752
Ni 4.476359112202648 8.975935681108082 11.88173887429312 -0.7649304441760633 -0.71471345700204 -0.49285476498689307
Ni 4.101645347419019 4.550119615162338 3.023745642574816 0.138029158993001 0.07381997130494383 -0.011739399924115266
Ni 4.4408265513640774 5.403263557598446 9.453995011473754 -1.9629848131372905 0.2268270917640158 -1.4829791361989233
Ni 8.183679472402938 0.9093361360845069 5.926980788006858 -0.12465993677494662 1.0676061076392773 0.41582759959856125
Ni 1.671099217507625 6.867859391189941 6.691296116672004 0.33262978662314324 -0.3437539215607628 -0.17858548314880857
Ni 4.768482676721684 7.347256188336852 4.510466838728754 1.1319171110125215 0.5519916803583655 0.4182475218939635
Ni 3.881646468253712 7.530198222076215 0.4998324344777403 -2.108072421638969 0.8309805417276012 -0.29511944838251114
Ni 6.163398256950176 7.932720886161178 0.03245332008371362 0.6054647125758411 -2.124131274874045 1.9905958899863396
Ni 0.7272203761245181 1.3972484792006288 4.204541063159422 0.24463686625192704 -0.0785428307019099 -0.633067047674142
Ni 4.5717477263502415 6.467223494002762 7.039827505342043 0.021857976415355907 0.981566197229374 0.10733790055673127
Ni 0.9989919530766649 3.8325440568202387 12.744923576727633 1.0199532816480048 -2.4760307083600774 -0.9656994054004466
Ni 8.863621931389723 7.917403684941727 6.668456942790597 -0.7997033288808745 -0.1433703687002563 -0.050974177055021885
Ni 2.98737472521319 5.872789682600296 11.333130262461276 0.8524937332090287 0.47506813042743345 0.8776908012999465
Ni 8.07816923681846 4.169717666430709 11.565774197609024 0.2675088857540941 -0.9284865437955752 -0.47515786192776227
Ni 0.9857938792103897 8.176662186650095 8.725101640070411 -0.09002434897894819 -0.24537065909415806 0.15106799445483016
Ni 8.954632874557728 5.908089882983475 8.247053463006598 0.5532492069145505 0.05957477423983933 0.148584308801028
Ni 3.16715665675922 1.7186401666808628 2.993682846856177 1.0744861225885625 0.44583880124867087 0.8563814982992091
Ni 8.52339045818629 7.886462566701706 12.223018757871278 1.0096117905126807 -1.4748323387220728 -0.6581867255599051
Ni 1.667056145583801 8.100224891244286 11.455723638726184 0.5441606143497209 -0.8137937455356694 -0.05738959366306245
Ni 2.1391940021042597 6.740451506289308 2.4850950704192596 1.532609140521225 -0.4603112838332331 0.19974283395271408
P 0.157961425901062 2.2169418104784797 11.535642623195589 -1.027224104277805 1.023211383573986 -0.8135410060949151
P 8.823061090296465 0.5944709890753281 2.374527741883628 0.10511749586664476 0.44123087016301427 0.3345761117162367
P 3.9971853810929145 2.136452148730632 9.911569444092052 0.06265264183421466 1.3058725515884864 0.29405012657773233
P 5.224160118582161 6.465262371759252 12.364982631139501 -1.0257747734257883 -0.5641838515491832 -0.0006515175410698457
P 3.9061372602520468 8.262421783526237 2.7200245030062455 0.15503777773585556 0.48579323015442144 -0.2357058823108844
P 8.521838290344272 7.666222032662791 10.022096806629357 1.224007341381563 0.06436576787057947 -0.8609493201755494
P 1.0683283129656884 1.5223141707109105 8.661519454498722 0.05244510517359355 -0.739940864110261 -1.2696079128294973
P 0.8922176766148548 6.627803157515183 4.435593793908645 0.4540020537857536 2.6481444677416133 1.8905987460653952
Ni 5.411786539102231 0.5027415873792502 9.618377021478212 0.9352143494377119 1.335565707777545 -0.4132400413770432
Ni 6.591452687873632 3.8271161165822773 1.8884268808777431 0.22685897344321576 0.27196717863576386 -0.015781174093656695
Ni 1.8043811747205738 9.25178471933145 2.059175567359947 -0.19849070671316782 -0.09557278960100316 -0.1078140688622014
Ni 0.142487149013765 5.072066258900662 0.9649325575252806 -0.3861071897159931 0.5053842649124716 0.6995616889622661
Ni 6.629048609556085 7.589617437729101 11.048331628938023 -1.8070463779640362 0.20179971648174277 -0.1311062066209226
Ni 7.0855625490559735 6.0346240925718355 6.558214918892514 -1.132621593278714 -0.738172973576561 -2.0425709975020503
Ni 7.620921038279533 0.7244413450780277 10.809810833152493 0.05509899785667285 0.17916243869820114 2.2266750964762423
Ni 5.4360914427362514 8.711983498200793 7.307758628687468 1.5837319273389694 1.3678255962525154 -0.9011428616752996
Ni 7.496189945825016 1.8880030554071079 3.6712775358016785 1.0111976469425616 0.49778485529865885 -1.0329808042559243
Ni 6.732811494516012 3.500584615828769 5.494313537322958 0.7571963087565992 0.38275704229683755 -0.5959925114193478
Ni 5.684921607206619 0.4275302257360911 2.6627680984721502 -1.8956890161041091 0.6859564394740056 1.607695380133102
Ni 2.44341889914012 4.090417690214469 9.976185168969328 0.09563218208402886 -2.0242292617700683 -0.006211528127350593
Ni 5.521033130809413 4.514633526414846 11.253959478658233 0.5480653487207657 0.10547796452985705 1.0210123190401383
Ni 5.412604447905212 2.049707343523627 11.588777882692849 0.48331725781010304 0.17286349306336682 0.9017642973093825
Ni 8.058920496693775 3.727535719819409 7.653255389810086 -0.6713533448488502 0.26815731797137043 -0.8436673931666503
Ni 2.8400860797492014 1.73558389108806 11.7519358178183 -0.7673241412192204 0.11868315036622142 0.07455530680907159
Ni 9.168423082354956 3.1294863797310417 9.567922272194355 1.2231691617509837 -0.2980337938158287 0.6924397332055042
Ni 8.558988079952371 2.938142191924697 0.513010060623941 -0.8041958174345891 -0.5600533743205774 -0.7826132061678069
Ni 2.1979347252274 2.805631671423651 6.646963600666821 -0.29780265164162906 -0.45602834018716304 -0.051534420433866086
Ni 2.6255151408218556 2.0169816969861936 0.4898641709414162 -0.6804812752920474 0.41063705653655735 0.24654102525317545
Ni 4.457073194405098 3.6295353741532073 0.5682951190544894 1.6950969467772228 -0.33555364513815755 1.188190845903586
Ni 0.550421023383902 0.5165214918258275 12.562761344676565 0.4179575014573705 0.1847756711199205 1.2563559329155976
Ni 1.4959087285601445 4.6171881370067345 7.872771888669999 -1.5306468745885318 0.06850935772530782 1.0803932321016168
Ni 5.377462252631699 3.5662032084315176 7.555691881800023 -0.7767094390888624 -0.15307165514842025 -0.1819420583258673
P 5.2501937840043 5.244282534019123 5.383351196013159 -0.5910858181463498 -0.7442523470014214 -0.09758493493502549
P 6.5830691226430815 1.4012915511244528 7.36729960121898 -0.29101133975140847 1.2480733811918312 1.0713506622833744
P 3.3124562967250517 1.1548128744626542 5.437723542574926 -0.5098577273027929 -0.2246902479266711 0.4286342644449263
P 3.1348399646232776 3.766674514925666 12.659427011886994 0.28808311036102 -0.5145139951278817 -2.1967006616013394
P 6.366741538672972 4.923160384667144 8.96978463513294 2.5602585052619067 -0.3226675332041088 -0.21398417436307668
P 7.420933041532601 6.094963455628073 1.791543724281067 0.8551607385182304 -1.584423554089355 -0.7529676153872322
P 6.815764177091017 8.368991582787302 5.646344194960589 0.26900912444870445 -0.6431606844647181 -0.8723143674793815
P 5.3618941021204245 2.6723775974653488 3.383867170759817 0.6454397103068819 -0.675527787941514 -0.9302130395683786
Ni 8.267301353089472 0.4315918864963462 8.728666049456129 0.35310090999330157 -0.04733812296433138 -2.2113973443815658
Ni 1.6954041211416457 3.748410983131842 4.451537438915835 0.8350295149859942 -0.011285343105832176 -0.6313127839871966
Ni 0.1987918051225741 5.215246771513317 3.218518541260927 -1.3925182139031889 -2.4801537293895155 0.3760906860202555
Ni 7.099838775435268 7.110945605203014 8.408185214961032 -0.9772009782821427 1.5283305677505292 1.9698825686983878
Ni 7.266524871715395 5.662391937451794 13.174421430799985 -0.25527197736827006 0.41621352218307023 0.6857918888716834
Ni 6.739010871465876 1.4129932236580023 0.9786687782062441 0.9908661344740612 0.7020674861032554 -0.9598547736942115
Ni 5.779046180476879 1.1907729785391465 5.127500028022662 -0.945659713140752 -1.250844259068749 1.2348514831849187
Ni 1.1100788395905536 7.454792607092347 0.29106493028426955 0.48050678494450144 0.8098288473506504 -0.703962132022807
Ni 9.124311773503305 5.2195222038925335 5.866092124834072 0.8709097738223711 -0.5125681842554205 -0.521666804122579
Ni 3.1817024212667704 8.72875062866189 7.60137208844648 -1.4609974897215097 -4.203140717708787 -0.9794280678404487
Ni 6.598479268044691 5.582106752904691 3.846964346681877 0.9775280226042583 -0.4696071073128622 -0.4887219737654422
Ni 5.038383287287013 7.666510159627477 9.28274256752426 -1.5543020521136264 -0.9318192077132339 0.3718241974344177
Ni 1.2554063628110326 0.540392346129176 6.274395917049194 0.025378587974104683 -0.35007266468993903 2.425590549431655
Ni 9.185041502124603 7.368400989777538 2.2753730294750376 -0.6112252692087022 -0.2596348823226561 1.0076161002388906
Ni 4.201374454873338 3.09867538334604 5.164310571365889 -0.25672285088218366 1.157237334944865 0.4294055953933121
Ni 4.472018618895922 0.5902029922306846 0.6545807800016393 0.23855029373821499 -0.06734053422818725 -0.11502267079549869
Ni 8.367058343798439 8.676999308036947 0.6919452706705219 -1.0173960624437897 1.6665201635807942 0.39275374849823325
Ni 6.5155637631425485 7.666426509863536 2.7539240345643203 0.08065164951479659 0.48193580408154413 0.2211043303476257
Ni 2.9497788035307373 5.891220513922003 4.840224432044927 0.2070583937775208 -0.5915136497123877 0.5306409825967313
Ni 0.9222033286623036 2.4309364954764527 1.9993343851200691 -0.07472217140423906 0.4972444094141565 0.8874447953629168
Ni 6.745191659579307 2.7359793013152935 9.543409173592304 -0.22895982183630245 0.18228015839157638 -0.24994336606650502
Ni 2.56467387918197 5.542893602452709 0.06541132707653903 0.07284449476555198 -0.26321308659221765 1.6337769077115025
Ni 2.6856779099319965 0.35430043405651634 9.74128361963699 -0.34714572085113116 -0.12480057611786893 1.2580315208458075
Ni 0.575374677409378 5.592414262705888 10.42116380602173 0.04172154810850234 0.7341042028238259 0.37651954602755805
P 9.015994623617692 3.1558825274635924 5.058707391599255 -1.232817483474025 -0.15290067678819474 0.2968600852227017
P 3.35430906195029 4.793205829175411 7.121148088078374 -0.007014740754936306 -1.3114109649082124 -0.4225366361876207
P 0.5404174410583583 5.79311792965543 12.628180107287676 -1.1133401193412826 2.985405325378865 -1.8851361802889275
P 6.425640266905779 0.2925752732443187 12.672962473134499 0.979174814179062 3.0945113735796124 -1.642164360444249
P 2.966545933991836 7.458473196705759 9.725775882844117 -0.7167379436312366 -0.43678928945189294 -0.06560838202842895
P 6.656290549346263 3.4045732756607237 13.143405957214238 -0.8851153758987917 0.017674277351311496 0.18924090598012572
P 2.5024756324825943 9.19230973716927 13.485991706551703 -0.04629219819832028 0.02356801712792715 -1.4028923580486614
P 2.1128071487899245 4.320073469905875 2.1589148986743036 -0.36823493742126256 0.06993297754571182 -0.043904157582117936
