# total energy = -340861.094296882 ev
CRYSTAL
PRIMVEC
9.32845854949807 0.00000000000000 0.00000000000000

0.00000000000000 9.32845854949807 0.00000000000000

0.00000000000000 0.00000000000000 13.65314202222790

PRIMCOORD
 96 1
Ni 2.5467438249142016 4.4065959294255865 11.121453639708308 0.68985988829347 0.15826451220326937 -0.07997956314843645
Ni 4.996313096613366 2.417274148032996 11.722137342823858 0.157853907028412 -0.4996445342152169 0.48865821040704227
Ni 3.843240986235667 2.2845768244768934 5.318649587853431 -1.0106487164176272 -0.8310720730001429 -0.13556449950259233
Ni 6.654913035332176 6.226074465124963 1.5453720411025282 -2.760187487083498 0.8981845503779241 -2.985583759938258
Ni 6.854961829965612 5.748121560399445 3.45281141145973 -0.026203912088877453 -1.6121891542383977 2.937467878267638
Ni 8.145656690039141 7.832537648739728 5.234082446433547 0.4299321573207434 0.5512177783068184 -1.011001728881672
Ni 8.14510631098186 2.958977738817031 9.724409687388638 0.6924407616467688 -1.3505567818697386 0.37764337521935604
Ni 5.81910180187139 2.0240609612114255 2.2468152240723165 -0.30422809555199865 -3.5070253354239083 1.7712985309404656
Ni 6.649577157014138 3.48036394677469 0.9045750331698529 1.4014797939718509 2.0230498967499866 -1.4255769441303707
Ni 4.010528234273037 4.153542833038493 8.393337527119664 -0.8883518805582185 0.309887350720305 -0.9144889439649025
Ni 0.13636154209338489 9.225052634410083 11.49422537520415 0.7199034858434118 -1.3846159283369768 1.4881701934815594
Ni 4.226304810102648 6.353473224197421 11.63281828459417 0.36142588491922917 0.1596552219032089 2.9949875697506614
Ni 7.084376612265453 0.3941021889259574 11.038633718583824 -1.1287543970138236 2.0581197438699266 0.25114587101503844
Ni 2.501342216917889 6.914589337323827 6.658869234623575 0.8184065617173323 -1.5892592849151017 0.029176107343323945
Ni 0.7236346531284958 5.4935665821780795 5.309802477719118 0.08423165355657107 -0.4297202984202535 1.336819377678988
Ni 2.5538241249900597 6.491720980619314 2.6835792527043636 -2.7408193669695313 0.28288871064427407 0.44010035610299686
Ni 7.140431319980646 2.3380195637846555 7.24088949062217 0.07604140443629484 -0.2888390146904381 -0.9651540744199378
Ni 2.56388020335867 1.2650229420119192 11.58519650345154 -0.30425277814234697 1.2175327894008128 -1.16094615125502
Ni 7.29824085408248 8.939751056649813 7.272796550410661 0.1867731611659235 -0.2832512361900154 -0.08518527571909201
Ni 0.70354861607535 7.090197570430585 12.896075349393493 0.3281455255995445 0.22383432768427902 0.8262006038404545
Ni 3.2984590041143025 4.452230748886849 5.757174829468774 -0.47150920943158153 0.8882410660119671 1.5206311422237424
Ni 2.694161456137899 2.6219032158380347 2.0343866320335167 0.3596826769758773 -0.49735008175408535 -1.0399875745910605
Ni 9.092560536943136 5.347287022903335 3.171105954488976 1.058039804107081 0.5698047972803864 0.0035038993882004167
Ni 6.562495996002101 4.444730668174082 12.196461477154767 0.2171833980266647 0.3398715557872211 0.14709949672538536
P 1.6240473280719352 4.836320703199607 7.41937648605226 0.5098466715591994 0.15128988065764912 -0.3058167801953572
P 2.535577659972434 7.330535977748648 0.6357820285904073 -0.1263234405202986 1.531445459230427 -0.7800135637614308
P 5.341260838649047 8.856335979866778 12.144538343752615 -0.3932859668526194 0.1366181375780873 0.47626189362521854
P 4.337378766628659 2.114425739649947 0.6888525624001103 -0.8450480755642609 1.1034457430457059 -1.2165807099001886
P 8.422945121863757 2.0140142113014132 4.872314560699868 -1.332608167811118 -0.7738179764736801 0.4282943646070043
P 9.051543304487868 3.78835233584522 13.376269882720104 -1.006071638569906 0.6409456790912703 1.501147322467518
P 2.8836690925556305 5.474956307275132 13.188457227229621 -2.3504369469169517 0.6133523428540341 -0.3568968867006241
P 6.7415650872487065 4.542576870408174 10.056385274897986 -0.314022198824285 1.1378090510169243 0.5296675629398685
Ni 4.456792365141255 4.306175072618455 13.31818996664329 3.2125399210809706 -1.8223472699871646 -1.2327051262658768
Ni 4.039054660665625 9.275174442456969 10.469529646359977 0.938357523052384 -0.34471037193676113 -0.3512818545066918
Ni 1.3978415355297955 4.520627007327154 1.1757318691580239 -0.3081950506195466 1.8294327160790367 0.5187205770100614
Ni 7.418829838378421 0.5337902593553778 3.568057987516613 0.12767224123870918 -0.1651905498991413 0.2638854300688939
Ni 0.7406880082914422 4.354393875111354 9.418319639642796 1.0057929309872227 1.7090320688010758 1.8636576987001776
Ni 4.84792530569548 0.5722085832452516 3.962974550878173 0.08556322788380102 -0.7525205005474846 -0.9115473448380753
Ni 7.964973775455088 1.8341055587809916 12.591392033204224 0.9434611628275364 1.2683830392834607 0.5238147037035172
Ni 1.1725685888474526 1.1976061717244002 13.379382789354244 -0.9999593550245811 -0.6546519729337693 -0.002513253340156962
Ni 0.7407271878175538 6.942378815487175 8.205210502574431 0.26887671263589824 -1.3768262570892287 1.488297205977727
Ni 1.0213729318915783 8.704823155318572 6.717523783750022 1.1154558801327048 -1.5362068851748125 1.1986830036841614
Ni 6.088433058511937 1.0865228867397905 13.703249147804378 -0.7615872387354432 -0.04728207291541535 -0.9055767290769372
Ni 5.133049642742389 7.379230531630044 4.56312559900778 0.06576856175537706 -0.39031711403228264 -0.022619022951096527
Ni 2.5768654177270425 8.87496491168692 2.212354965165561 0.3280838191236737 0.3252586909700527 -0.1807387820463855
Ni 6.842638936157696 5.991659629016611 5.589063878537204 -0.12639234608502103 -0.41684704200201117 3.0825500874526783
Ni 8.226151959281012 1.4612750539959818 1.3941633243046165 -1.4639380604070724 -3.854011904989356 -1.6340052216722245
Ni 7.796958907647076 6.530294156921914 9.561868759085915 -0.052686017539806035 -2.07595857182356 -0.9480037878928964
Ni 0.44545442066191454 0.33928909905015386 4.912359767769227 -0.1316584795799668 0.008476927122759595 -2.2282028459746788
Ni 4.108337122672737 4.728726261730637 1.8056556257489067 -0.9649388730853381 0.7886452712944999 1.320913762192325
Ni 6.764755635323256 4.766357263714842 7.896062586100174 -0.6433445183407501 0.23531636018194957 -0.566093152756754
Ni 6.128862598075533 2.4776665889962444 4.8996348173957385 0.8899462216285319 -0.13044646154973663 -1.1702214059093587
Ni 7.490295159697457 7.6043635514334165 11.629446046811005 0.8747368608779451 -0.23673252380318585 0.24144535589782287
Ni 9.052019055876364 3.187422361422683 2.0884804977514166 1.0830268130697218 2.8585177848249805 1.247630637227458
Ni 8.021410949972797 4.030285909583535 4.929685513923235 0.33277505395175594 1.0072183505798393 0.2455634918312545
Ni 4.773941300554991 9.2649224664578 7.098910350761088 -0.7408356080103886 -0.7650047490574244 0.22931103452813412
P 4.065043746319565 7.850550902292405 8.765208133514943 -0.10787808933091741 0.829288755847475 -1.232493267365387
P 3.7974942252712287 5.621590347976601 4.061564231262523 1.1020048968341214 -0.43115934485962515 0.2986184626747051
P 1.0210650927578453 1.1079503561393245 1.7962077628808844 0.3800190745403842 0.10619144565711387 2.091864187310223
P 5.591067631444047 3.870927851354438 2.9622399007887403 1.608562099008772 1.677402357710937 1.6104384900958781
P 0.9977346178043258 7.3941560653867935 4.38228969770272 0.20941583826610385 0.9922308760320719 -0.46652306907089974
P 8.275266293799316 6.961614097116186 7.212531909330205 -1.6686796331259586 -1.0464695827709785 -0.029595454268929677
P 5.2385171956510215 3.248467794487789 6.691746454106255 -0.3814478365671108 1.3762647281588039 1.1818337933373066
P 0.4870080394865655 1.3149768378040407 10.066093401760893 0.19673335770242892 2.6493323174021275 -0.99575817245904
Ni 8.654981201029626 5.808887139706613 0.9128148606494386 1.3101097295982855 -1.474410677803622 -2.001440031789695
Ni 3.2051277758416274 8.591146558843727 5.129485238712105 -1.7303328871613812 0.30405788852272153 -0.06670058665134318
Ni 6.096483518281984 8.285201102206152 9.51339995390259 -0.4361655398249649 -0.19505931243411567 -0.8558382242012293
Ni 2.7169881943271283 8.12067507791378 11.964999098192672 -0.8095339418180509 -0.5251673610766697 -0.1634601974715959
Ni 2.0723637198317064 4.198608616525279 3.512925864356759 -0.31915386362389553 0.44406088341264166 1.0736307165668024
Ni 8.947642932623694 3.8516086135980445 7.602452150266693 0.28328491764142827 -0.16065846635674266 -2.1914700093300192
Ni 3.6074268813376196 0.16379560598415063 -0.02016439610536885 0.5080839232318217 0.1479729004692742 0.23447946610295103
Ni 1.5813323161518371 9.020479537356632 9.308808199931944 1.3770499430642607 -0.7668343460669954 0.18170345995249998
Ni 4.508173515098866 7.419622757359248 1.8996295848189824 0.8450339344968737 0.6115723681354758 -0.24652739840642063
Ni 2.6789094263302204 6.569137858523856 9.759757082708063 -1.8085705279180464 0.19720027003651844 0.15702344070731666
Ni 2.3940462861240546 1.1582960471925607 3.7175456037031993 -0.4018834787136434 0.6272036469148294 1.402957406958642
Ni 0.9416612531719367 2.7549456923622624 5.294374140043938 2.1346488865759174 0.7607457166707544 0.7824216589822912
Ni 3.3725549507579675 1.156710209230906 8.570582904710365 1.2304664667433456 -0.45323149416831615 0.481325681301371
Ni 7.106848869027959 8.422646611188622 0.57689986507417 -2.203491459270928 -0.462384621422494 2.054553880895539
Ni 8.556323422897512 8.678918025792013 9.33522639468139 1.3114847555689415 -0.45743267673385735 -0.2856282210626242
Ni 4.929969099064613 6.366579708527566 7.29603467362406 -0.10519077230674143 0.4546121765659267 -0.9037293914555531
Ni 8.820309472761423 5.392380791765915 11.650799821387615 -0.7933976983778207 -1.4135691210362171 -0.008970321819410357
Ni 1.7887226077018743 2.636576881212639 8.170449867300823 -0.8178925981953914 0.7022718888045776 -0.6652171500441253
Ni 5.773000559480228 2.6626499229939613 9.195719296348772 -0.6891926870231162 -0.4597042463768535 0.3462491771787908
Ni 9.280640919195378 1.2251157961298096 7.20387603259715 -0.5307412556200214 1.424214002344573 0.7223676311131881
Ni 2.379904342889534 3.24708718261529 13.349946838248355 0.7465354866086433 -1.4589737744232616 -1.2850083065449676
Ni 0.4610254837536436 7.753348363701573 1.814379600229727 -0.14290577035901195 -0.06219215725802838 -0.18210583759724122
Ni 0.5976855365221635 2.963688610409005 11.671866279439408 0.5139478382117664 -0.14333565880757893 -1.4900535265472015
Ni 4.904605020136737 6.064132423864229 9.674111571474253 2.5885789494731544 -1.6076336736572312 -1.7706112750654537
P 3.665207353893437 2.7821194922581447 10.067472147941672 -0.5982509684362213 -0.45774480865763745 0.14705347397879837
P 6.519370531903693 6.686676436858259 13.178900221396002 -1.472691124009354 -2.8981695948886474 -1.1680349397810013
P 7.259994173830809 0.9049798882730048 8.92171354910478 -1.1185661436269123 2.0059520607274357 0.21425516863627617
P 6.398996102155507 8.106159996335343 2.815878251078333 -0.08504540770711805 -0.413221786544598 -0.05577982597378135
P 8.887493031583993 8.871373455126703 13.590925177826238 2.764551934699781 1.211026612851179 -0.7023119980138938
P 0.6180094492695576 6.883189745683065 10.684088858342552 0.4360364704462685 0.9943502363679197 -1.299395171394259
P 6.1923894011276985 -0.05553138118784707 5.54320331037787 0.21348872278389686 -0.15341129787602611 -2.015122414372794
P 2.5360720682781257 1.0039940135235628 6.5174777876541645 -0.7060408689287067 0.1154687571939818 -0.05546229473336255
