# total energy = -340863.1568478049 ev
CRYSTAL
PRIMVEC
9.27651508547877 0.00000000000000 0.00000000000000
0.00000000000000 9.27651508547877 0.00000000000000
0.00000000000000 0.00000000000000 13.57711751211594
PRIMCOORD
 96 1
Ni 5.716234982496191 2.2893511596469276 1.9501897084001218 0.6213986101972782 0.4202002747449602 0.3019552403574219
Ni 5.746708334574639 8.49962550641767 6.049434417493129 -1.1643685466730076 -1.642913837015764 1.5195330240635572
Ni 5.30773436388842 5.111489687109252 10.079543114905691 2.124710544416283 0.2531094224993125 -0.02701509513626315
Ni 5.037787774700342 6.304959736318601 5.078887374817104 -0.16606035409860434 -0.21039954233561184 0.42553762779747356
Ni 7.02353714840406 4.4087751158317525 3.654946018743764 -2.1609196473469883 -0.576802311644142 -0.08685649277392783
Ni 4.189237109655634 0.4181713855915719 2.1382191034134834 -0.37907213724608263 -0.9093925032786014 0.5214929975488761
Ni 8.927783060506183 8.768662997126695 0.9119111184286391 0.3463674479242099 1.1467114957128766 0.39205003756298934
Ni 6.063863109067807 7.895334760270257 12.030887749434815 1.3719131360583277 -0.03165027991542936 0.02722849669864988
Ni 1.6008389329758526 3.3709742663875266 12.527239748921895 0.3505891993150414 -1.4958562492719074 -1.349797535106211
Ni 3.938158952165445 3.2204442559835775 10.51934733369268 -0.46893990604250846 2.0951585417907785 -1.8501470658082524
Ni 5.150998364887672 7.047387068706553 1.3862100585866186 -0.9135034401231816 -0.814338562295546 -0.6503626015297961
Ni 4.177196193065733 8.771056338020527 13.323075689302678 0.014213572496220682 0.7208846188097584 1.0049881756977403
Ni 2.561078839732741 8.376795170079548 4.07268697403505 -0.909461408843324 -1.2817730874371216 -1.10350924929379
Ni 4.057492042313742 3.5957071210153746 12.798198405906549 0.016755107971151793 0.5453402364801189 0.5638429232699967
Ni 3.62832334808016 6.133418419230425 3.1004571715212683 2.3512887533942863 1.8248497246940443 1.8384197500689952
Ni 6.591112397373056 3.1864551046851197 12.489644816207031 -1.1038465780285507 0.5348493642511241 -0.8733849748357411
Ni 8.597724653519522 3.95564518311457 13.187766584862297 -0.06219344280960903 0.6187123216143667 -0.9321938174438333
Ni 5.250776561221244 7.567298633573735 8.335575902918094 -1.98389019583139 1.6659846027922984 1.1526116632473957
Ni 7.503095872619415 6.275293441053191 5.066288012018642 -2.4729834368933217 -1.0663493524140408 -0.5208880169750255
Ni 4.846264844103192 0.7400024513428051 9.656874474797338 2.341648659201361 0.1025556486767395 -0.905370526603402
Ni 0.7015781981786836 5.653089744262403 12.172944590953389 -0.44970779728577387 0.669875474751743 0.40182228645840473
Ni 0.07704795140272898 6.593681992053644 6.204783577487566 2.1382918826451434 -0.9673485109680953 0.846948120800451
Ni 7.979389263522256 8.276237746478218 5.7794664923203385 0.3089247296967195 2.85125956060067 0.1476491985812683
Ni 3.378089353463378 1.350938892902395 11.315129470285928 -0.8315181593986261 -1.5592401128451918 2.834769276255131
P 4.932016949617096 1.6997173073454648 13.339287327078111 -1.40382155473115 0.9905876840016942 0.23940595687029093
P 3.69803635899935 5.7076263764904684 6.826561482235614 0.1925763981112619 1.6375921676925347 -3.4722971879141036
P 1.0788030461525175 2.4203819353267075 1.0087366000083091 -0.7580635418529009 1.9326488811579103 -0.048162932858471896
P 4.155683954566518 8.606991892096804 11.224855063664492 1.0698337114182157 0.17131337496742755 -0.667241893783638
P 1.3597794117854272 7.629544049843563 8.907769906845896 -0.058801643519240665 1.5293541239190371 -0.599934012565599
P 2.3310862010475173 3.8207832067016394 4.561938728870427 0.03572779241891266 3.889207479053882 3.116838062101271
P 0.6425925493123156 6.660862514352615 0.6932738618679906 -0.9310172806372289 0.11506663665955667 0.011031061003181
P 5.987842067885803 2.879096330129499 9.874135096518279 -0.006878729397704282 -0.2081567690480222 0.0636682275829226
Ni 6.9554104215656665 3.4506409780008327 7.691952732779017 0.7211723252535064 0.6707151970442191 0.37998950685402944
Ni 1.9170846089899676 0.5568905369799111 0.8471211540689728 0.7416701880965421 -1.2068966498432052 -0.5506359376614194
Ni 2.499093165885499 7.0057076863965175 13.093704577128642 0.20199640587358111 0.33021989163007 -0.08935740481891064
Ni 0.3825031850613947 4.697460265506424 7.744319588126976 -2.356766745789722 -0.13147541703488325 1.2163238566943761
Ni 1.5215154524209642 5.934826784132888 3.0046159281928992 -2.1734897707025147 -0.06536644122095195 -1.0471056736930804
Ni 8.202109114375057 6.64282896901304 10.450402418223138 0.8270063875712016 0.5874515638278722 1.509579255284955
Ni 2.307996954982599 6.355674444328609 5.219206725058878 -0.35488499847691785 -2.1010376262793753 -0.007730792985354428
Ni 4.774279086986372 5.95754496959411 12.3302492403293 0.22218856455073993 -0.43920098421717907 0.5719218436233893
Ni 3.336317206002419 2.5611530518534797 1.430077770806945 -0.7725735625436179 1.141795803578814 -3.6334361934516908
Ni 0.28610164022144624 0.2057391899762121 9.51064876739625 -0.7856507074425502 -1.2830601816796612 -0.713019871349701
Ni 0.6401222133432164 8.76149225096029 7.133132680659893 0.7579987500532366 0.38508183377527233 -0.1405627240481321
Ni 7.220069397151091 8.643949528224821 9.7941798852856 -1.5500707876410982 1.6252655278063817 -0.6266122931877337
Ni 3.464787663516703 5.56339511983424 8.76254977368082 -0.5577514656602781 -2.2842238414249887 0.8098183058276892
Ni 5.645501554916842 5.54619646085298 7.494595801840274 1.6733839805801631 -1.0886575289929379 0.09743529673103864
Ni 3.1001464082656742 7.166803647490681 10.189246254736595 0.5839168112017363 1.516049436390331 0.9584074997247237
Ni 4.592459391175845 2.816442747195606 7.967215692766533 -0.5828294916748286 -0.12723078282591635 0.9373180260442762
Ni 8.378409283705622 5.828805493142148 2.224800529376645 0.7478439210074218 -0.40582677963210756 0.8868812095499629
Ni 8.403159025972075 3.409694440383095 1.83497446330133 0.6854381050766905 -0.22670470725353858 -0.20090548680224754
Ni 6.499302727503832 8.628281494233802 2.092722435142936 1.4661024150482427 1.0527147923497417 0.7675786804321878
Ni 7.48349459622923 7.269169991535026 8.028991717372687 1.301292902637604 -1.1921104926729662 -1.2620447557702588
Ni 9.223490532105782 4.031452864449449 10.384879609171175 -1.0888861000639762 -1.1148398438152607 0.4374235806017822
Ni 1.3190647870449985 2.0067514038728524 10.370908249790551 0.6042313543893723 1.293655183586688 0.022506151522316078
Ni 1.4386112370404198 4.627404023528817 0.8028322880634527 -2.026699320577116 0.23696495152896604 1.0261450122810134
Ni 6.446908970262106 1.1330613829278118 11.508345364887434 -0.5197114801684211 0.006766886410188346 -2.51790369444478
P 7.31647094199104 5.942591227265204 12.290902901564996 -0.8997616650570568 -1.3543936391173255 1.1127294823404772
P 4.991544346964859 4.511373372753406 2.5456009743011148 0.15102994212804313 -0.23050376928465463 -0.6684950494644487
P 8.094241796880935 4.382865809178752 6.084680536586602 -1.1872822180463873 -0.7181003711964019 2.1028445975811265
P 2.0658891875867353 3.704325836231979 9.160684814324375 -0.388416297465144 -0.3776937688413173 -0.7572837262640829
P 5.271231276999928 8.031133664707516 3.8292628691475787 -0.6763484840705964 -0.05240730995712265 -0.7678386189617937
P 5.948472537833769 2.4761523440620588 4.558788424345057 0.19512564689567685 0.2535061437170989 -1.9400510871592525
P 8.100011789268391 8.886094401681055 11.679579629326055 0.9708202715667795 0.5636786297779904 1.0535216045217533
P 1.5334728803750342 0.9949897322929203 12.468939634520853 -1.0724395244721787 -0.06185585696453218 -2.5377739510061454
Ni 7.57681633805851 7.02298983401361 0.6010467488196103 -1.6434170019044276 -0.4127183645456183 -1.8028619075690433
Ni 9.245429490299246 4.651699216555745 4.521084956403612 2.5351527113332146 0.4229315576331942 -1.909978436143588
Ni 1.0665765992607688 8.244354364105728 11.307688777530334 -0.39243416037528545 -0.12703563609597476 0.6653475049744024
Ni 2.7322676492474067 0.4389489240954707 9.082019038689536 -0.9252454111504581 -1.5666965691232373 -0.952861887316146
Ni 6.5792848406302795 0.41687731173618575 4.296682345713053 0.5321458492770319 1.5819000163365529 -0.8684937081817108
Ni 4.917508480012623 3.8379447596225313 5.783064852524671 -0.19379535812002754 0.7072446594288208 -0.04131479958838691
Ni 6.621159029757255 0.6047471506899583 0.08275115288152039 1.4829827357433492 -1.4321785086072882 0.8667181043385266
Ni 8.703050205878336 1.7639015152695992 6.48254377533795 -0.37007173351968525 0.1425635565282448 -0.9199517668516867
Ni 1.27194009037574 5.764825368550045 9.84522947549044 -0.15067230167830825 -0.022569400660083713 -0.33826487342173356
Ni 2.240937027379829 4.173838094602294 6.769714070098037 0.6178062648603295 1.2033649825408632 0.5746004188968169
Ni 1.5600037135392233 0.9618818499282383 3.047057840043528 0.7474497708927966 0.5457855515476535 -0.059595857285761875
Ni 6.432521095353834 4.534008069578798 0.7946207169036834 -0.18844643510328837 1.3951104001103973 0.7545992374533842
Ni 6.1243738170153605 1.5373504636836466 6.433856913527135 0.652024048392619 0.17248117002328361 0.916329596718067
Ni 3.423238152417961 5.356269090851719 1.102209549033595 2.0244202947349526 -1.0083365233446828 -1.584141761182878
Ni 1.1979506059989666 1.8452565526297173 7.943157050874461 0.5688758577082138 1.543460224303116 -0.27676305736251045
Ni 1.3760318662272661 3.27262465337818 3.010128033460788 -2.790026167711485 0.4710515530688726 -3.10406430737537
Ni 8.777206667526771 1.8824089955746741 11.80549347928088 -0.31261426273316484 -0.41811562430178956 0.693287168807464
Ni 3.6334439844111506 2.676432304906409 3.474017796033615 3.111004229028313 -0.45969370485389216 2.6055353748218355
Ni 8.808227333995669 9.281246115070902 3.7243389898922663 -0.20363239881510733 -0.5089609265201364 -0.7799186900547794
Ni 2.9278165873946462 2.3646579091668185 5.849062619149364 0.2311527157225632 -4.106859846297166 0.7242653623565334
Ni 8.343242014990434 2.4208457610813263 3.945496675603513 -0.20068540037164148 -1.0297561266710396 0.7289771660099059
Ni 7.9025797185574005 1.86031233662464 9.419193460403555 -0.19548740111046978 0.7135703445365323 0.06999314135968591
Ni 4.1006463905234645 0.5460704097761663 4.755629581044664 0.9722755159560675 0.6838270518358288 0.13599207395831417
Ni 3.2542849830405567 8.022163274613192 6.39383153385807 0.6598067776618314 1.208777926026318 1.514863643612346
P 9.1470798772899 7.1337143181561835 3.820859274125397 0.3055974650956995 0.09666165178980772 0.9958630734680205
P 7.7152033902065424 0.3466550201384254 7.793537066601074 0.3932335163481292 -0.8516354989737914 -0.04282429425437786
P 2.7448744332579427 8.036727403308218 1.5197139531900252 1.4697855203267849 -1.7637189188209945 1.60613549184515
P 7.696316405478469 1.4057538205832318 1.741251976020059 1.1576913917631482 -1.388647675204189 1.3023699377518667
P 4.421947767262923 0.6372066046496834 7.418292754599462 -1.0716993038720446 -1.2296984782290694 -0.03965798071125427
P 2.8231867736677625 5.408764889759462 11.544338243445846 0.14186987289532987 -1.2699364998135096 0.551898606423927
P 1.081715871891523 0.9118767953227974 5.093523860329851 -0.10129632234834168 -0.2976684400566099 1.6646198612342882
P 7.765305848220453 5.175850148820141 9.148723675764268 -0.7805979755099911 -1.147825554712662 -2.4029990372843844
