# total energy = -381165.7414420518 ev
CRYSTAL
PRIMVEC
9.22668052383339 0.00000000000000 0.00000000000000

0.00000000000000 9.22668052383339 0.00000000000000

0.00000000000000 0.00000000000000 13.50417959379542

PRIMCOORD
 96 1
Ni 5.340005843928558 8.21204999903114 3.6001196568126863 -0.6512414045903236 3.4543799413140506 1.5803748379412783
Ni 8.640684661740266 5.714101599041816 7.838500463395075 1.9084224045103777 -0.723776595645573 2.8724698761296983
Ni 0.10558459400821427 6.130040349578396 1.5534131317455444 0.5276309921258139 1.57316829289051 -0.2124469117829438
Ni 6.160257727750695 0.8615680357970211 8.957835191020301 0.3974203007359672 0.30572036382680895 -0.5166505818549102
Ni 5.306134700334508 3.924273236484408 5.667920218514182 -1.771597550238123 0.8811522774859857 0.4612530789212121
Ni 1.8992475649223874 7.981226136516199 11.02650029267134 -0.2516276957474634 -1.4541375293768828 0.699213561594228
Ni 6.676822654271126 7.364625541554829 11.228725136748766 0.975849349350255 0.2990316389527237 -0.42202961464421507
Ni 1.5124835776776588 3.4849263978796983 2.3842037298725374 -0.5531327359413442 0.5752311105022803 -1.3166619288945067
Ni 7.345572446615654 7.324212681586989 4.532934272997759 0.4476511718670613 -0.25668479855539666 0.3200432082073843
Ni 7.540006281798824 5.340845471841132 6.055895668889911 -1.873708140957644 0.5834830660984274 -2.469708365686476
Ni 4.962699204050733 3.4431203091778073 8.657123838134034 -1.2136303690226131 -1.101710248411838 0.9639533692436173
Ni 3.138206203388491 2.9838715210409896 3.892876688562361 0.927658391467325 0.228345071070439 -0.5216344082227468
Ni 6.764060917055583 0.9662825538474803 12.573660503138298 -0.16261944673785542 0.9796934056866934 -2.9905470174808046
Ni 0.4050854064315183 4.0251208527968485 9.410374337200814 0.891208376170407 0.2634671115845527 0.09852647291268839
Ni 3.147285256860718 7.301921021842172 9.127893059365794 -0.8099036664526439 -0.4873911707691606 -0.7365338953112412
Ni 9.029829132517348 3.5637683815384174 0.6285962020947465 -1.0393414563666294 0.23613551364913524 0.7226237129880523
Ni 1.9679678802284313 2.974829374290194 12.863932789867574 0.47242040839194116 -0.784844666601487 -0.33622341751167256
Ni 4.479497953704666 2.0766858548862066 12.914843766746696 -0.11772592865927467 0.14417615243100332 0.37054841604578764
Ni 6.963514066353482 2.3728530676961817 5.505829588657784 -0.20969891672416144 -0.6036855091882314 0.1342529797800204
Ni 7.8201190707859585 6.057730855613108 12.960217812743007 -0.7735984042637065 -0.4632973630447505 -0.596100754862438
Ni 7.985396596037995 9.098770888151982 0.591758680765614 1.5130278759551876 -0.7093948730026041 1.5234544706051503
Ni 8.845581552449358 8.246216396396646 2.8163509897939356 0.9616548030174277 0.6876312560732674 -0.002952397760104593
Ni 4.059850077664189 7.836228854690947 1.4876739568631556 -2.1404742350084427 0.08766921848321031 -0.8492117200236472
Ni 5.672369323782788 -0.07819796136973431 0.7530142960496171 0.26059981733908666 0.3664084257354851 0.008181507369527845
P 0.08561713504556537 1.5238600745590167 0.10472097672670974 0.6387620411763902 -0.4397131479669072 -0.2698118228556579
Ni 7.06437090934628 2.138476933243427 1.0858843206554987 -0.256639547139758 0.17751076202739105 1.5402581724260507
P 1.2213818123842008 6.182973814791979 9.32319051183047 0.9057772751235174 0.018806848293857936 -1.1324130768123335
Ni 0.32291628183572046 1.7512331586200847 11.290399036265441 -1.5563123976754358 0.3546808528859118 0.5492254304671379
P 1.2185861282357406 5.0748310504409515 3.737078654710088 1.9522406872469087 -0.07243414670101074 -0.8951308511532649
P 6.472673124671028 5.063500686961383 10.813012439880957 -1.8967845631611329 3.714984643749144 2.4551376669611527
P 3.3518592137572814 3.2599061173099084 1.0416220896423203 -0.9435318681644718 -0.015815112655385665 0.05918268100774323
Ni 4.501125292463711 7.090187160987837 11.195558911534064 -1.368099161628876 -0.626472939396392 -0.0009528508315725526
Ni 7.335792165436222 3.3969315473058876 10.451627359628816 1.165560767208896 -2.457142613206323 -1.3015217308189586
Ni 1.6292656709682867 5.050140453803066 0.3250467223303722 -0.9929147894729737 -2.0441146878400858 -1.1957501463080826
Ni 8.365978707442894 0.8301890185676543 4.607639935852007 -0.6220696681223739 -1.376610798644313 -1.389165495380872
Ni 5.503567206634014 6.4593590249145 -0.20737333171716613 -0.08325360591401791 0.6276561610712159 0.9695295777798141
Ni 3.075058803018652 0.30644019872052153 3.106501484342489 0.21006118515958663 0.8733201830360765 -2.108995190563555
Ni 1.7833604596264816 9.184062321380912 7.324802266461862 -0.7296927040196918 -0.952480078496695 -0.4926642462426418
Ni 3.9701944246259466 0.008299398981979896 10.384673030943286 0.8360767253035859 0.09623639132693103 -0.7067461225258473
Ni 4.897152866787826 1.3540337958905098 4.2927896179852105 0.8716132276472988 -0.7529719862626065 0.8081427178974793
Ni 0.6619100541951763 2.5364697904837854 5.128995354814287 0.31895306046699906 0.13927434425401172 -0.17856799964731185
Ni 6.342429304738146 9.093982241046204 5.75400883692604 -0.43405055036449114 0.03804075682280546 1.1213856153535784
Ni 8.25594131749393 0.22778736200914002 7.567444583847308 -0.09048689043766352 -0.13916892902439904 -0.9613480704102862
Ni 4.923181332077615 6.326854668293919 2.8001046510196494 0.042871602552545525 -3.5548149441033616 -0.09463793649155959
Ni 0.6536466392665925 4.943858322759791 5.678858448078538 0.37961026913773976 -0.5005271939304864 2.130390111299563
Ni 2.9774128447904213 5.51621698540477 1.9646416619593885 0.06745623387044512 0.3587653073679305 1.3905376931380504
Ni 2.368581114690449 0.9050985910578137 11.718373068660936 -0.13309341225428045 1.7401246764408225 0.37243766264870054
Ni 1.5516139290757434 8.250820509895266 0.16598797963959788 -1.9626477415128454 -0.2163609021253693 0.5094862028959871
Ni 6.843465728216138 3.6968632457019086 7.483854550476386 0.8972556108057516 -0.27295911023538794 1.1382649076074203
Ni 2.2515591277105145 4.426915102344685 7.810223456102054 -0.3956976616179056 2.4158810354533746 2.671627124244586
Ni 2.6773519728693898 3.354368870814645 6.123443273122458 1.3118614221820697 -0.9271112607146034 -1.7884195068914681
Ni 2.926518475935946 6.598672671639252 13.049047677889213 2.331258831326604 2.0477085758389317 -0.2755687799440932
Ni 5.2172171817249025 2.1072815269531833 10.691623465087602 -0.354841289723176 0.26235613790856105 0.7312279097172955
Ni 3.4269920719121028 5.432134247302732 4.70492328554217 -1.1695323502621342 -1.9996158340967627 -0.48296373112542634
Ni 8.212935760345506 2.9065242596002587 3.335356373269044 -0.2133303428291616 0.07486023964400011 -0.6960112526068464
Ni -0.38516869421083816 7.937999139039182 9.348228031649812 0.16611254749277846 1.7399783806709455 -0.8656816926542124
P 6.18684902054232 5.354030398072649 4.114925978056889 0.756062452262472 -0.8342119041807051 1.0002678874039352
Ni 5.203949215370165 4.212284063857952 1.4095525769403925 -0.18789236237203125 0.07237475421798505 -0.670137213053562
P 1.9623672852511531 7.642348620329254 2.4275654368827797 -1.2572725311925959 0.24853260176190745 -1.6336087575647547
Ni 8.350219537391508 5.3379852009301665 3.4264965991768808 -0.6287833326971236 0.0315561775397263 1.343271561062235
P 7.077924902792115 7.3443452981280455 7.438304274885238 0.702744714675938 1.2531543952591644 -1.5753881833599643
P 5.099807674169934 1.9263647784944151 7.117985303570281 0.7831968465854189 0.10450145954920068 -1.2591046993053285
P 0.8267806828434259 9.033123057405136 5.315528383606941 0.8404866814458235 1.344363508574833 0.5631608096013075
Ni 7.2049209312389975 5.157326799521421 1.4645279065171914 -0.5467486867918712 -1.18449205689576 0.1503105474635153
Ni 3.8824302410610856 0.4994355944358874 8.135538674830842 0.0008860021493791192 0.6846022394389565 0.37687564381539607
Ni 2.6345217226477655 0.7145122815839097 0.7100188882495859 0.15505526123735233 3.7493170984824267 1.9947847312567066
Ni 3.6928035063444087 8.63610822828272 6.172354828368009 2.2602827572283593 -0.016710113665829286 0.11080400472846079
Ni 1.410943960338372 2.124904486436876 7.790763464559092 -0.4839098970887795 1.2038203249107267 -0.005465908210577683
Ni 1.4537373038385641 0.49800914965254767 9.579378518649428 -0.02079251126531903 0.4212503132760294 -0.45241774001776924
Ni 0.2955896226195672 7.419607329807878 6.735168490182685 -0.9251924464253356 0.7576156556822049 1.5516813266613279
Ni 2.6295762219759022 6.748135666757754 6.716047117808861 -0.3478890267750589 -1.1581115100197021 0.27113362699087495
Ni 5.687048972232294 3.2797250267187947 3.41316773673178 1.1025049763989916 0.7607714277023672 0.3560376240241223
Ni 9.349579740322254 4.0373738843122124 11.814347152408304 -1.8461361448766465 -0.17980110072346456 0.5484800676606812
Ni 6.917408344604784 3.5749142114108268 12.678952611379165 -0.8488227121153445 0.6926801313510845 0.6483268020466898
Ni 0.6691982090099244 7.081873921985319 4.645194370244953 0.03177986351475818 -1.1721967844681747 -2.5759239797133056
Ni 8.52056251016006 2.075984627179002 9.10684054279305 0.09027066066179938 -1.727625515532547 -1.2868543586147707
Ni 6.552290149479817 5.734538696034684 8.79891853920704 0.0959887940924992 -0.6574213081487904 0.9939458018406495
Ni 1.7401150087887498 5.507202518695048 11.399242493776084 0.8749988562900801 -0.06381529468374816 -1.1395455740920568
Ni 3.7824683860630084 4.885822503308257 10.260070403381256 0.43415390871157483 -0.04033520928393699 -0.2818558985043855
Ni 0.8992553343871211 1.3843157608253158 2.751206013126599 -0.28371866274473717 -1.248373171820437 -0.014347784081239807
Ni 6.808173675846962 7.424211443306498 2.01194685215462 0.6556948123759869 -0.8666785093498428 -1.3177088821017822
Ni 4.54893795007863 5.489358118882765 7.81640809994599 -1.1147341714753318 0.9499498558756737 -1.1826457477156407
Ni 5.400025399657051 7.824160356782743 8.783186126528692 0.033826461631141745 0.18132113691241675 0.12766504214985755
Ni 8.66664854026755 6.097350221070163 10.47871689315977 -1.0884466985337125 -1.8869259251994985 1.846641623758155
Ni 4.042079491294769 4.668672581083803 12.913816837222855 -0.11032089444445517 -1.1646323418573554 -1.2252304151553866
Ni 5.053102218197969 6.751604898572345 5.588637199534353 1.1331679527004872 0.15584304724597034 0.8686790847196395
Ni 2.701359795160787 1.0613173615344096 5.129346891335924 -1.8557950081226489 0.6609758582692681 1.08507443962737
Ni 4.6748175502022 1.7637353105051126 1.830747767276899 -0.21957529529760894 -0.11802263396408706 0.7310209359128119
P 6.855386599238615 0.33071651741033503 2.7056566602034864 0.7201114880891598 0.7896022358911305 0.2739677540055604
Ni 2.9535618760651094 7.615969541185862 4.236314952850243 0.7985640730701086 -0.6675154591599988 1.2228161492869392
P 8.63530550709158 2.702042569507275 6.893586901256618 0.8045771120334079 -0.36170844915665445 0.5110869717242037
Ni 3.906973210813244 8.965980504440303 12.749633596261273 1.7686878327904958 -2.5309579565255764 -0.6929020175539035
P 3.071598797884419 2.7612040439624783 10.388252060254137 0.25499969754348983 -0.5288337541846635 0.3615865788668095
P 0.5235975022892624 6.633558750072678 12.82871362827323 0.5354083220783876 0.3521627144497483 -1.1776236119107009
P 7.6661165489313445 0.5231970643617271 10.530626196853623 0.09808732849274075 0.12658286482927233 -0.4901782465959945
Ni 8.85942157298629 8.616058651864886 11.96082716176708 0.2267579290889772 -0.5452510192004223 -0.3513574449396336
