# total energy = -340865.73230351723 ev
CRYSTAL
PRIMVEC
9.34723661871332 0.00000000000000 0.00000000000000
0.00000000000000 9.34723661871332 0.00000000000000
0.00000000000000 0.00000000000000 13.68062562464513
PRIMCOORD
 96 1
Ni 3.2603534631268025 7.911164431789352 7.545207038593566 0.5867331976046088 -0.7812597774637061 -0.7223943705860656
Ni 8.508013520908273 9.007193336348529 11.853919435102036 -0.8376803223452799 -0.08639215154299959 0.8066851595153463
Ni 0.3301023288926004 1.8047737612354966 12.223447472622183 0.5537729406285044 0.7751796327078972 0.04464823483699407
Ni 9.427435739958344 4.217230058636862 3.2141668983740987 -0.946029180665029 0.9837904585742026 -0.7026842937516479
Ni 0.3753401491455069 2.894194169623671 5.756711489637847 0.8353179927606905 0.285691727310708 -1.3261459571255418
Ni 5.592171151663605 3.3295230128657343 4.238791328958861 0.5521392616798233 -1.5088835147695112 0.9300248348169725
Ni 4.779971081945328 5.385027044668407 3.518300734957956 0.1469010075613341 0.7300138348045363 -0.1770335652806564
Ni 1.7583927739646077 9.173602186889367 3.151496482139691 -1.645003372554941 -0.9591235519551417 0.39622216666280796
Ni 8.54068211230524 8.724476822645324 5.035387122145494 0.7578794508665528 -0.6905713125381977 -1.0220176203762013
Ni 3.4902674381171406 0.566236889741217 5.736067183211711 0.27035561117426987 -0.6777800743108005 0.8871200650336465
Ni 9.138456577832828 3.457589499483721 10.007336419943936 -0.21297913013732997 0.07214978269137252 0.77049071187266
Ni 2.1030347291570606 0.5444466121261633 7.913612473015923 -0.3478221780928655 0.13546294092772154 0.8346839587211173
Ni 7.498661539961136 2.859553311335498 11.823904524133566 -0.8803655199186321 -0.6750927572866244 -0.9285551922499815
Ni 9.112031940385267 0.5499053982136681 1.0422869685829632 0.5871209199613308 -0.5845529021238384 0.052844911715173505
Ni 3.2141968095307423 3.4791909629224604 4.686899713877014 -0.9256598729800574 1.3714166560378833 0.4765231177064051
Ni 3.407591131706215 5.365500667721835 8.225804562144365 0.9375373411439337 -0.25265896522545517 0.0013827392801395541
Ni 6.290185380893939 1.6762586072678516 6.984178429002962 -0.9635162817061987 -0.49258454204464197 1.6957407510088085
Ni 7.886226004937532 9.011530454061889 8.933968020713419 -0.06104235992430133 1.5897537080530169 0.0575492591693783
Ni 5.717844745750083 5.527553706076412 5.803526188680072 -2.5121894176688215 0.2820919257745916 2.85312978104019
Ni 2.7176248730603714 4.223109470364672 13.341865812652937 -0.06818154207224386 -0.18980886266845373 1.2036909984217141
Ni 2.196011690137216 6.459239499350468 12.151624242454753 -0.08900027858980801 0.011056000703845475 1.009674525429816
Ni 1.656984605705463 2.190973529690016 3.1145309661461025 0.27995122528250493 0.31629685379107464 -0.6458752551824037
Ni 9.30504302586624 6.769483624402478 12.65922965683213 -1.144361250313145 0.793194324117763 -0.7647406967627604
Ni 8.54106534899974 2.2239692743627764 2.9222770068176773 -1.236839717259541 -1.8351007129980912 0.29222927131890963
P 2.5724996799189315 3.3759600835553303 11.522725348991935 -0.34823818258436157 -0.8925985716497143 -2.3040426759231285
P 7.193717297976959 2.0335286789058853 9.436895143246966 1.8817968315030495 -0.9363307224303423 -0.05107213608546689
P 4.418849948889397 4.3855644398866485 1.5321475892813678 0.006709036589059413 -0.5696096505504449 0.34251130740291336
P 7.658863825498373 8.041324699372408 7.04259398320478 -1.0794344677327732 -0.12194742293978998 -1.5579234509162976
P 4.215631681203705 1.8459763795124169 7.921410872387165 0.33600384530169874 0.5186375303779519 -0.20726459625105598
P 6.460249000887198 1.1029739012424247 13.334984377177559 0.5730377023953873 0.27384922614982515 0.14760369005531354
P 1.3361781034635878 0.6193497567042654 5.135515653734468 -0.44706830278039783 0.40762449496247866 0.701155001591315
P 7.602556073116301 2.324741830543239 5.5434299871887855 0.3760683174227523 0.472255857789619 -1.1849255448887528
Ni 8.011880904551107 2.6621864136682625 0.47830463227377745 1.1932093821640997 -0.909083199568299 0.12408323833587019
Ni 0.720285889522624 6.568424568337017 3.067716267103878 1.811678991640041 0.5949954376134011 0.48710115033256746
Ni 4.546308865138055 3.8238890015336207 6.749664678954985 0.520745063639258 -0.7193848943357805 0.6892677632354258
Ni 4.211060882579066 9.121397871309377 3.4619228783025005 0.42207435183922143 -0.6364426490145942 0.13677857441535154
Ni 8.865825732260475 5.01425956359483 5.906350463261575 -0.7344356180213157 1.0248761728709188 0.1360866905546495
Ni 0.8501601316702744 5.6194837765740315 0.7286413841863579 0.9059729360740915 1.2653959316306786 2.02403257237823
Ni 6.4220001093288595 1.0175401600783929 1.9744971418219326 -0.3037318726418705 0.6454973030176947 -0.9975743997321723
Ni 4.684984465128162 7.536723486790452 10.528650491300652 0.1666069706306937 -0.041752915567070024 1.7231934479031223
Ni 3.096440324718437 6.0297433316539575 1.013134807538939 0.5064983239122567 0.9706096982178704 -0.2990969449730204
Ni 1.6278960058693068 5.0925052799278845 10.22915381872024 -0.2399723708967222 0.22135938378122524 -0.2739279019065605
Ni 8.9802452536597 5.438072611529006 8.661163316543073 0.3938678074980184 0.38616143999269625 -1.1263522153302343
Ni 4.923479203180708 1.5727005746249296 11.880980619351927 1.5519857452756238 0.514273082761669 -0.6883100273078469
Ni 6.7638846297682065 8.402847763595743 0.36306348879049166 -0.30071005509641113 -0.5471124978891932 -0.41183596194066496
Ni 6.012282693963103 7.814299020445493 8.773618048840254 0.5151907094799321 -1.5973343486137523 -1.6953232038554156
Ni 0.2191562405586442 8.189067118720187 7.779460000744555 2.9655391825825577 -0.7584718330349131 -1.8864759821462738
Ni 4.065832869836663 5.052517802389621 10.440520072420448 -0.008053466432095807 -0.051840638820375234 1.459996302150505
Ni -0.03150018684056755 1.4357168244324912 8.979633944395792 1.0594505684116786 0.031709158177822806 -0.5264205167574805
Ni 6.659924665957882 3.852762614931399 2.130825932573789 0.6911205001734484 -0.0895749201463554 1.8566087622731962
Ni 3.1513179499234734 1.7716471552524191 13.214868649884968 -1.3615459338913907 0.0032737856552653294 -0.24509477972495208
Ni 2.4514062316935448 4.557048839820492 2.68404305666212 -0.31155702511324407 -0.14439829574413843 -0.022829339189689716
Ni 3.0671741273897077 0.7829039612329046 10.60128038797382 -1.274817739165211 -0.20263841033295424 0.5119750307561118
Ni 4.4475272703217 0.051236876607291114 8.941205585897588 -0.10908702203735406 0.5223070088097392 0.10374401255788586
Ni 7.97016418826937 7.062528834384269 2.485031045379472 1.5367149351594824 -0.20620581596923843 -0.7830356384172064
Ni 6.50301260765147 -0.028280998606771864 10.565902967453294 -2.057131411814728 1.304108774819844 1.0637448249116583
P 4.554338141249642 7.658994686808689 0.8639762818688035 0.5858428245798556 1.1707124866131644 0.6454132279443207
P 3.890142213499776 1.6833344652614153 3.9254504644705652 0.7118428203224644 1.8049254749662913 -0.19743526886545998
P 8.656821525211488 5.4422882151685 11.001534661156375 0.8676889528922281 -0.23967772247443886 -0.3189486895916249
P 1.292292828325171 7.982156692636269 0.7960648701562042 -0.5224527903589842 -0.44817464847069916 0.30271731533442703
P 7.9578351833902286 9.292489687312269 3.0025688332099003 0.2179953524049988 -0.7280299716052882 -0.27502190630168766
P 1.3205495241171699 5.080316483595511 4.665695507987452 1.0123788117348564 0.3228130576430376 0.21318301861801997
P 4.188571431677461 7.214299912642518 4.845951354607108 1.4545224235201273 1.5540264298547366 0.30404091924185705
P 0.8066440723716802 3.599190784483056 7.884965062740263 -0.21780920453612165 -0.5887679686464505 0.6111820746755926
Ni 4.3793578748830475 6.407091267189184 12.776363615696784 1.919819590603726 -1.0002696871761483 -0.8256627290591136
Ni 1.6728375187267097 7.7058897720843955 5.460484480368066 -0.4236393823334962 0.5856343081134753 -0.4058573757597268
Ni 1.5297874120774382 9.127651172495234 12.499754586290797 0.11242071439627735 -0.9654919173753308 1.3545898142885315
Ni 3.0527046053632394 0.0007487136397416798 1.2645156457631193 -0.14545707602595595 -0.8266706014983376 -1.012478056316882
Ni 5.9766697230840045 7.806344522225516 2.764320862199666 -1.7319624523450043 1.311042268714884 0.025422296727846537
Ni 5.752111714580208 3.2454820099329322 0.1312305261567205 -1.5527624755406484 -0.3048636722534685 -1.2832838676546932
Ni 6.824903389321685 5.4319034354712095 12.894057474024867 1.5559262179806106 0.6260780179508185 -1.0234600092496826
Ni 0.1387120542122666 4.2388782582578575 12.777854499910752 -0.46646187681566115 -0.554939964353412 -1.400188585964253
Ni 4.148733509922417 2.063290279766528 1.7430894784466915 0.18531791677663567 0.9184124473890247 0.8170636745361929
Ni 9.42491198611652 7.454514542202086 9.894704090154182 -0.4582955389547849 -0.8088873093729876 2.192077818117347
Ni 2.424551621369227 7.548435574063814 10.178084257645423 0.21590530264518942 0.7778777483653506 -1.2408377826753403
Ni 5.49083776129607 3.1449805236095547 9.706595630191867 -0.7911251002935602 0.47058541206573146 -0.3795339073738496
Ni 2.7891779680943607 2.922133059376329 9.336603035020095 -0.3028039615109624 0.5159247594324792 0.060779336070901774
Ni 7.039048576418837 6.927405184245622 4.755098085748665 0.7211448144496807 2.0943877250630254 -0.17247551359632876
Ni 9.01773701906549 0.9258914413979533 6.593842508418784 0.09548485787288716 -0.528748650670025 1.3604634994604894
Ni 6.580865740053573 5.754588732239778 10.270921010078812 -0.04939320572114719 -0.05538079076314978 0.43521448876560526
Ni 3.136605399749273 7.1828371147477545 2.978149177981122 -0.3977080071797151 -0.4275364033950573 0.0976281294681351
Ni 7.270673095679747 3.923380986320268 7.5159987941308355 -0.5057712159382451 0.23651757957890235 0.3381813125689918
Ni 6.395407221625176 0.8101885444339779 4.448282527026957 -0.06740198359374198 0.1340434348723756 0.12334764572142629
Ni 2.5931851141854527 2.5311755475681452 6.790419564605892 -1.7232052749776645 1.0425975014100817 0.07334251744789304
Ni 5.7184336216465095 8.676217040847742 6.408894349100622 -0.9000686547745144 -0.6873818590666225 -0.5869298869964473
Ni 3.7619542128079235 8.68634944516085 12.636096181339036 1.0990733250096232 0.3197400751446687 -0.3074036650665029
Ni 6.156529246878129 5.987334919874831 1.3259671823642893 -0.9759113129364418 0.030590985412979575 -0.016510853170829627
Ni 3.027280122215956 5.817355425009633 5.8306556077560545 0.11275238670408325 -1.5218930396553014 0.9143485617322962
P 5.61489428347649 4.099043600947801 11.762916610460376 -0.9886737548084329 -0.21179282313871267 -0.832349911271302
P 8.324172074385933 4.775989159217113 1.0442994285909082 -1.0447508003076587 0.37246105968746823 0.22109147483181923
P 1.681334156660857 6.540392206219846 8.059448056127655 -0.9364412798662776 0.1916898817412505 0.5792168346229057
P 6.748536467515324 7.57365441800917 11.884564349807318 -0.5222064786761329 -0.5401640915958181 0.19423861630503322
P 5.961312213594672 5.792781540379409 8.159904675716065 -0.6379107489196886 -1.9090458970269895 -0.9112364984658758
P 1.435043823408004 2.2871659400093867 0.8013329726201044 -0.5065055230011083 -0.23421181426386117 0.24384882313299291
P 0.7957012626582523 0.1056882678301523 10.532015496423087 0.8370192917225133 0.364602739985314 -1.0092441227606168
P 7.130894521788397 4.887277356405185 4.519381346369419 1.6880567521009895 -1.607231038902174 -2.1781038724357584
