# total energy = -381161.279071974 ev
CRYSTAL
PRIMVEC
9.40117626919944 0.00000000000000 0.00000000000000
0.00000000000000 9.40117626919944 0.00000000000000
0.00000000000000 0.00000000000000 13.75957175543841
PRIMCOORD
 96 1
Ni -0.056175787149464536 5.873356510738448 3.941291684613566 0.6984319462331972 -0.7598797691260333 -0.6885080022512658
Ni 7.690397008223839 4.773653946590673 0.5230607507889812 -1.014123048119473 -1.36295258443093 -1.3108075269962587
Ni 3.2488114007725355 7.95515292710847 7.531590462773127 -1.0613521563097656 0.04295002119896474 -0.901967414459124
Ni 8.57725694743205 0.771939963622466 11.879450105842917 -1.1767669203373605 0.7051155289009597 0.7808789970855197
Ni 5.930929312643478 5.31022606754587 2.0154748800670776 -2.012720489799521 0.12020318655517365 -0.5608463025355179
Ni 2.264536475715219 4.633745645161759 9.472446328587983 0.7264317738802327 1.3863205697329093 -0.9044536712160874
Ni 6.032791054746844 0.17999961653734023 13.214912541697712 -0.5800596422391753 1.5108815190361464 -0.36522520406066133
Ni 3.682177411454476 9.15453616052454 0.7362267761834014 0.2769684885050972 0.7761659078805665 -0.9753179023268171
Ni 4.452951629251301 1.1296641121019444 10.945463951515578 0.12506180019905558 0.4968620863740733 0.9143002249928641
Ni 3.03849769218053 2.6452747030750885 7.361288159293435 -1.3123627872985204 0.9441476473715997 -0.2547112197687936
Ni 5.983904939478039 6.88769639668608 4.062912818461542 0.0705307590307108 -0.8135636318027344 0.01024764586993719
Ni 3.1137353038144227 5.420774496285461 7.333810402041962 -1.2658772421424713 -0.4461411629804381 1.3050482559149783
Ni 5.367798869450902 2.1290091223084713 0.8016053745322184 -0.288546937371316 0.17020111573985525 -0.61137285053016
Ni 3.6892658981684523 6.949114279580522 2.573521167271699 0.019272217966050678 1.868109563823944 -0.04332720203272538
Ni 0.27978463885938254 7.595040879921631 2.5080805211611947 0.8945191857111948 0.5727757069832523 -1.1776282398963913
Ni 0.057010611579439506 9.154489154644473 7.630370499379356 -1.2207551529928524 -0.8075325951173061 -0.3175543803472596
Ni 3.761466929950072 3.938838917791714 11.865883268738223 0.18706498137472946 -2.2762261679314926 -0.8969419362200746
Ni 8.48306656495548 2.1935387944632936 6.819532229884542 1.6737760738122593 0.12054668593752144 1.3406513498305686
Ni 2.1615089877862133 2.7164040007911994 3.4578625314259646 0.18448770756585645 0.18898482410526163 0.1703677232247066
Ni 0.0689933505259046 3.568122344061949 4.514749319656678 0.3543044433830995 -1.8392892971581423 0.21323572623282633
Ni 5.452268435929788 8.279004638412275 2.2280740145479 1.4223818342318406 0.8876666815657357 -1.267763660531907
Ni 7.872554194656216 4.109959123584557 2.9333342570613175 -0.9677367475454495 -0.4758600302011094 -0.269190130111259
Ni 7.89380085244612 9.620129402579838 1.3160837917387203 -0.32923181668518786 -1.9050717428705897 0.5969777581507525
Ni 9.12701891833381 1.4172554875227144 9.542579101646691 -0.46405069627100726 0.7311842009635536 -1.2445003191285922
P 0.36340057855626773 3.4317300824619843 10.064975189291538 0.04139913177207709 -0.6536914087927129 0.06821239531017931
Ni 4.68299840629508 7.009338213121285 0.34700022700118505 -0.12919047765544847 -0.3472171975190149 -0.45216371502543423
P 1.7431848587254433 9.218219726838171 1.8745766348039705 0.11961748925503271 1.2639558567500426 -0.5779055720106498
Ni 6.481866430546895 6.025852986849078 9.427260516197986 -0.2319952662285166 -0.45447050878173983 0.6285581040601949
P 1.168490969036591 2.947362691908262 6.291921309905157 -1.5474798869854705 2.4349773899631932 1.0257534332695497
P 0.10686316774240442 6.355373607288863 11.94556481627357 0.3756551411447337 0.26727183004262356 0.06914647708867447
P 4.288402845491707 5.597112354765648 9.578780210120842 -0.590820480300105 -0.6904903227886173 0.09546943125391945
Ni 3.5723810767959434 6.547411429711146 5.375795509767757 0.9805279857728467 1.1598668021479122 -0.0029135741023691756
Ni 4.620508789335129 1.9362850140372219 4.871521129006016 -0.7029159501464798 -0.4584495480341459 0.5553210018419146
Ni 7.685903246089515 6.650937179968853 1.8174738916996014 -0.5100040230726701 1.5589243813769862 1.0440278060987052
Ni 1.4264216341356153 3.1736207950187088 -0.06927820615910552 -0.24636953267231765 1.7796841839009994 0.9861635867920693
Ni 2.214747847549144 4.752849144073391 4.696568063752579 -2.951315068563375 0.0009325391165983938 1.7098787330720875
Ni 6.93110162633917 7.661460188455112 13.482371298686147 0.7185117477022078 -1.717593842328158 1.0830779780226316
Ni 3.5426827617701444 0.9313293819859984 2.727298083555332 0.32972906803658053 -0.14793587658375168 1.0056679753735842
Ni 5.384335538058176 7.965400208962892 6.260687782836397 0.8012650169410395 0.22706029082074444 0.049818980404656134
Ni 2.351469150309572 8.873365788320807 12.383380403562573 1.0270302430994442 0.3362218748497758 -1.0756572600785281
Ni 1.6957559257386896 7.608851207485068 4.548584152128299 2.3753496509982317 -1.8231638523511893 -0.19661971494270009
Ni 8.246749203510877 1.010955462582868 4.477914571919236 -0.4718318828783229 0.10683602121964828 -0.024850483384776557
Ni 3.9699380080434845 5.105459052801672 3.561967394126086 1.959055396175897 -1.1586581265517917 -0.7550116424004546
Ni 5.339087677906492 6.0607407510341815 7.433044515449629 -0.15439603038679858 -0.32053557446277053 -0.9948639427795447
Ni 4.962128723303941 5.855259246912977 11.952981404030407 1.0128074146318429 -0.3897010777148386 -0.2770484498134132
Ni 6.484038102205951 4.029748289839664 7.684803308495966 -0.8928374271333979 -0.7970188400701758 -2.374430995838704
Ni 1.5189856131618944 4.346661933245704 11.563268814048309 -1.1228807118418662 0.9004458356082751 1.936480853309491
Ni 4.798708080665936 7.661817433143614 9.190746670174704 0.41466777496250523 -0.06868959205691395 -0.47614567976232836
Ni 7.630577325251646 5.321601490521881 11.344725315974319 0.11054817996391285 -1.1784810748149896 1.0970156711496464
Ni 0.8848903928334378 1.054652128692369 -0.14671569298009482 -0.17285860796736036 -1.229653998144379 1.3561430177082645
Ni 1.178663041482908 6.84173404715739 6.668204319952355 -0.5568947740869377 -0.38794989935168667 -0.08798854949584202
Ni 2.140083707652058 7.3585730996608145 0.888047307738681 -0.16304342164915148 0.024314922596280705 -1.3898568650209417
Ni 5.320586163512452 3.3059517485809575 3.090688320817985 0.2554815222759148 -0.5968931688567461 0.4238535552268313
Ni 8.582916455392015 5.150001824752363 5.9503812859324565 -0.8828941998777569 0.247495932967277 1.581438503319102
Ni 9.583934874928897 8.336050974460564 13.114756172923148 -1.0270484979318892 -1.7331467024610925 -0.10070471151092979
Ni 8.502799633407255 7.007194744990268 9.139355141498374 0.21289376951237526 -1.3432309376322866 -1.2239435780231631
P 3.2937772256438227 8.825861645925947 10.131998053325066 -1.8867960844898537 0.14819915754746735 0.48711169185552894
Ni 6.85430341948708 8.580537957860667 8.34830352715861 0.338755697015223 -0.3718355102883274 0.6159393868549198
P 6.7955836741084354 1.9667354231440792 2.4257440815197104 1.715800240762845 -0.36846685092641057 -0.05282408577956709
Ni 0.9166391043477224 0.05514729849361699 3.8402967309386207 0.185324601644855 2.008827325392702 -1.0280766820860874
P 6.485147440975512 5.12599122121457 5.3134788744464485 -0.882970561641647 -0.9287711649155296 0.4730783536909143
P 8.149879485870537 7.141434137283202 6.984482443859901 0.48758246084436024 0.650376228376551 0.597996429223254
P 5.438317090726152 4.180467943683794 13.256603936963591 0.7175588968706351 -0.2499945310194146 1.2436032612356194
Ni 6.376789486247005 2.590522253974027 11.902249837910206 0.35462943082268605 0.07496334088076767 0.5425935269729171
Ni -0.05026808814274976 8.684157719878506 10.261214397274134 1.9373563139359082 0.0013228325764815926 0.3755733800642048
Ni 1.383430056227107 6.746396721207208 9.02158660958062 0.22235542914590736 0.9307151760157777 -0.41187144316429064
Ni 7.528894205492532 7.548711884528425 11.294310569485763 -0.2871382299492474 1.7178483815411256 -0.505275250138433
Ni 0.11136351069993844 1.891121764469657 2.424643203808561 -0.21537128451859036 0.333127037974536 -0.658818445606633
Ni 3.73693926173155 9.267538296203584 5.421697691769961 -0.8287184851663018 -0.8021325071476573 -0.22629975850563605
Ni 6.69930623055693 0.5364329835502019 6.511331596407565 -0.3992478408630092 0.9718559119201458 -0.07637539073694588
Ni 0.4277046224867723 4.425086543548082 8.077845795021954 0.10689927035741591 0.006040806877441209 -1.1999631559481656
Ni 3.021096115380038 2.644456800761937 9.704350778011976 0.6635109659862961 -1.641054672319838 0.5562046899984485
Ni 7.952153951960248 2.1654668828877837 0.3197584392676436 -0.5266650286681187 0.9675685973987015 0.15414611915952162
Ni 1.9298734119961978 5.478610531118863 2.27903872983323 -1.0092204686115327 -1.226013316067998 0.254758013846329
Ni 2.9145995935021496 5.030005214119474 13.706982315759074 0.4000474539461691 1.5224167733692555 0.49044255600097475
Ni 4.855716812010172 8.009886573857505 11.497800904527365 0.6147307112587993 1.7052489476095598 1.154892231751456
Ni 6.738208296899682 1.9426026043181137 8.959077250151042 -0.5913598977433429 -1.420893165501456 -0.04871957669289029
Ni 4.195425214720846 4.1011408204841455 5.697879799981074 1.8492417803851635 0.19642405399212623 0.485394452054106
Ni 0.14546439645273368 6.058070817046424 0.4907573698899158 1.3049441262369461 -0.508346175754273 -0.7070207163434726
Ni 2.0314719211711925 0.7357379150307134 8.285270522225092 -0.4730361875990692 -0.6693391426322989 1.099314494486152
Ni 8.961360795804655 7.9191558241538065 5.079937680278552 -1.6304743257008307 0.5993076918355098 1.0267096265352318
Ni 2.6480104452949385 6.577137948264984 11.004960234032916 0.3457573251440368 0.3359861046898858 0.5482054738430558
Ni 1.853714485113008 1.2693749888345802 5.4557938769347505 0.5587361981710507 -1.0804989044415456 -0.030584557655076356
Ni 1.3828565844902998 1.7522381912261853 11.271042658853014 0.38285860087170837 0.1753939727947044 0.43028594111573637
Ni 7.805730635554165 4.046933639591852 9.416197212265615 1.4307399763885489 -0.4830110394235939 0.8154479933096408
Ni 3.45158536620193 3.350127874667133 1.577383838320887 -0.41364293324241663 0.23179960527794274 -0.33533098760439023
Ni 6.853071865429348 2.7108949116474452 5.421753158708439 -1.2434147993738973 1.975682463209617 -1.0827848722622448
Ni 5.505291068644415 3.7786240761742196 9.963443428466235 -0.890308490063957 0.24261469361557575 0.21181390618463522
P 2.9896303792637515 1.809397341386634 12.970157624781232 0.5618374628041938 -0.8029228642594366 -0.23169033339358805
Ni 8.747568652087754 3.5181644947276363 12.490993785150835 0.5124650830186529 -0.02991889904661944 -1.401446112520438
P 7.90732914472916 8.565232843311126 3.2659995708775273 -1.6833277220564362 -0.289184828065631 0.1180491163266483
Ni 5.880332183340266 -0.07897269886395002 4.24735919125314 0.5915555586939167 0.7466419302795206 -0.06022500622932854
P 9.720251927120756 4.015148263491115 1.7749711749437809 0.09985676168833771 0.19484231132730315 -0.2314116258109047
P 4.9875024973636535 2.104124209401447 7.166452546889614 3.5185161096723276 0.744229464183286 -1.2643872878605062
P 6.596654789668453 0.35529488459765934 11.029727632239776 -0.23529913379076897 -0.0813659019730018 -0.3226989006626765
Ni 4.353477785855296 0.6036504519272071 8.491402587726414 0.9765211786062988 -0.17429816862736433 -0.053271457729630836
