# total energy = -381172.744397814 ev
CRYSTAL
PRIMVEC
9.17976753223844 0.00000000000000 0.00000000000000

0.00000000000000 9.17976753223844 0.00000000000000

0.00000000000000 0.00000000000000 13.43551768855377

PRIMCOORD
 96 1
Ni 7.471348705276397 0.12839373947339375 0.4847725186323021 -0.31723607777589236 -0.45625511148598846 1.5146353296516237
Ni 1.8677155443965432 2.4688159157846785 0.44192136282161165 1.8815834299406626 3.1264671005506024 0.02760593464272665
Ni 7.639843342145554 5.9602212387432365 1.8915462214497891 -1.3562885421471933 0.2414129599979907 -1.3120794517301468
Ni 5.713037632806119 7.629084654354181 9.192729572128336 2.277338941379697 -1.2541887500609497 0.8249533616969148
Ni 1.740777716086726 3.020602574873108 11.386560955375067 -0.38702867308899797 -1.3561553590034388 -0.9329116694464643
Ni 2.555986990244472 4.258255580661565 8.007326886339635 -0.47049336657255747 -1.522921995140448 1.9329466149039871
Ni 0.48529392943993854 0.9624527487086187 10.46818945135431 1.1247005386594242 -0.5509467840336189 1.0221888558467427
Ni 5.572357692189403 7.948889402883064 1.8144802353182752 0.031319636048887996 -0.3636727719718769 1.1053452740612641
Ni 2.1512143115134137 0.6225186054792887 12.618490375977585 -0.49346617331864684 -1.0652723172997782 -0.637175927636193
Ni 6.171934222132686 7.4908465319563255 6.136229515507647 2.0025183524555383 -2.035544943893204 1.286368420117288
Ni 3.861276524741834 6.243646567718186 0.31330822689923005 -0.8779430265200685 0.5749254063364033 1.0258537062928397
Ni 8.601102721047962 6.201841905429864 12.59809568598945 -0.8100301647281791 1.6358402179984342 2.6953404087011257
Ni 4.311700188444307 7.018731077084046 7.576718669280898 -0.43729502544371784 -0.7695594583076424 -0.8564717440201701
Ni 4.0283941964499785 7.747558736807645 5.158123426848646 -0.29830401675807977 0.42371368721485736 0.3435430911015374
Ni 0.43949147830081264 9.373001851008015 7.956446187686698 0.463992332229246 -0.8699252984219147 -0.06036924511667667
Ni 9.17118465724237 4.374003272096226 2.5431959018754458 0.8198255535520462 -0.5862930247433967 0.47265026501456026
Ni 1.95178385736019 7.448481903835859 11.943234922808315 0.26983496278410946 0.06555618863425483 0.6661352909830206
Ni 6.792211128329847 4.486905235531462 9.446741089310525 0.22036051020306568 -1.7041906815483747 0.5201956188936911
Ni 8.459082534341194 6.442434438129604 5.264129548757534 -1.243368262406678 -0.4920857480313525 -0.4531479333155744
Ni 2.5608614469144544 8.197707007477915 1.1368655818398044 0.24054881222548252 1.1399317537868818 -0.5239795114161557
Ni 6.300359172816396 -0.026532282699151328 4.693697863412229 0.9741786465160513 0.7316781098808367 -1.0342211044209286
Ni 1.672617940616637 4.052527805838647 4.312532793378333 -0.09631198175987285 -0.46717690060481476 1.2399234983911873
Ni 5.898092570678379 1.675399410241881 10.08856933623107 0.4133675680938429 -0.04266977095438458 0.17467432101986047
Ni 6.009452333133281 8.725378416713157 11.256921521419343 -0.49448304461893544 -0.29479574649450524 1.6105367062366391
P 8.574362057621112 4.221407992952887 0.44169921244230176 -0.0715867110990509 0.43726674330894366 -0.16341648871785405
Ni 8.08015090179846 2.6449756587168016 10.058971011106731 0.416300939690554 -0.00277422031102748 0.004725430500127346
P 6.6239918844928924 5.962112270897692 8.067491084108115 -1.5570099379630928 2.1093379186149543 -0.39740461700668334
Ni 4.609776426732424 9.087198962188383 13.636378824091768 -0.6817763399543871 0.3831367942337595 -1.8374789834222804
P 5.619183687431548 4.9717346687237525 0.39320617137855857 -0.1936752876023955 0.8263957505703962 -1.035385814152991
P 7.596129288167297 1.0865815680899717 11.525632600683721 -0.43709396517650534 0.09316006639445246 -0.10860468308429683
P 0.23653048547475441 6.704324031986328 10.612661554024452 0.21860316119232676 0.9317451599421889 -0.970107304660155
Ni 0.7233638619647043 5.1346112877359795 6.523615714138995 0.3783648267664129 -0.1043669908538654 0.025630556083910697
Ni 3.8816464293570703 1.4029071846453656 5.462424465641309 0.16369159675611164 -0.5393855615585808 -0.49288021890818995
Ni 4.325726873551148 2.969104077851263 0.7362366502666176 0.211869442012919 0.5072544853519909 0.6930033190184581
Ni 8.054383293752057 2.3722814782300046 1.717637357567534 1.2545186225965426 -0.9834405314339514 -1.1633640166678934
Ni 3.3550398731796784 6.930072880250359 2.9964028711567106 1.1444851774855194 -0.2734702455438516 -0.058252970104622256
Ni 4.587901040207814 3.2257887433993613 3.710944058346425 -0.8288511540894241 -0.752841117111697 0.003624227016148597
Ni 1.9601741650746225 6.44662959198682 8.515632657550405 -0.13390022442629199 0.0769160937317643 -0.2644536438675381
Ni 4.082710882168028 1.771998106170736 11.903505806006025 -0.6712792970778052 0.17409710836015177 -1.153333886125401
Ni 4.993233684771018 4.366806334188004 7.8978811054585405 0.6730276472274795 0.0875828294169911 -1.2621522278824004
Ni 5.550491485432534 0.4041815016885975 6.88779913183052 0.238362346097125 0.300029998310251 1.1149090064902991
Ni 6.347166808523061 7.084504112941714 13.360803114511361 0.7406661723120599 -0.46372416616952394 -0.9830939467278101
Ni 6.406477287891714 4.0667656256035105 11.896157401930092 0.5828680582222479 -0.48567547362963454 0.5335026204152424
Ni 2.5247115215540217 1.6578017954841489 3.3607607044352963 0.6318406314662086 1.7065229292259771 -0.014167035529001407
Ni 1.9418146295944636 5.2723720622113515 10.875473714539053 1.8362821349007021 0.597484522583842 -1.8175519054810503
Ni 8.070603943348777 1.4196969798419707 6.23717024157756 -0.20317242845955333 1.761946400301604 -0.14903322341298847
Ni 4.641143693100275 3.60394009568419 10.206949785053583 -0.8323581388014181 -2.0185926323095815 0.9657156033503626
Ni 0.8422978507819463 0.8463892732636995 1.2748301471590047 -1.5547537949390644 -2.4749544445767633 1.5859836994876233
Ni 2.460003338754203 4.174536098872042 2.273558584046095 0.7024955747796096 -0.026934105386682648 -1.4058995203061013
Ni 0.9479578954470335 7.541583108255745 6.452757086953323 1.0728221046225783 -0.15144054730290046 2.0389423996105274
Ni 8.997007744142104 2.3924861470259193 12.727318358489775 -0.8888164788994629 -0.3194824506079078 -0.26548594178679435
Ni 1.414620568281707 4.964390854531689 13.102733222011285 -1.0042297002651608 0.4300355156678271 1.825015303737631
Ni 4.182256283541449 5.559965005740296 9.565121538133038 -1.518073151688579 3.1202105781179292 0.2921187138829743
Ni 7.877305574045926 8.784266626765765 9.737217397886628 -0.19131450067970276 0.12063487477595355 -0.22727883458945375
Ni 5.703683449478978 2.7478074169411704 5.822564195643328 1.6185400361570899 0.14073318818772537 -0.9412579845286305
Ni 1.8593344164498509 8.508148392911918 3.582486978475625 -1.0237024642777919 -0.27047722435379873 -1.7204878760465014
P 3.4099165247298733 1.2442991576322748 1.5289077586689208 -0.14520587924709832 -1.4790780013723044 -0.6007871045945137
Ni 4.900765884325199 5.496964259740133 5.278250785472098 0.20755950178365543 0.7698803319821709 -0.002306536645989576
P 1.9466799064967057 6.152252800097957 1.5641498049998592 -1.2150547601739654 -0.0489445482195028 -0.04781069172537572
Ni 1.0895558128377574 2.21907115464808 8.72325146452778 0.030517708972882925 1.3571526899197013 -0.8027858244609399
P 9.0984717169732 3.3307410279716887 7.215907898257079 -1.1530934879798205 -1.3875282168877654 -0.6535273724110229
P 2.8382464887164316 1.888507718327823 9.806598082466147 1.604983637628894 -0.42419165529254044 0.8026909507542885
P 6.3514537600576775 4.469693171018813 4.1433120368809355 1.198130473614801 -0.3564626273766829 -0.30633280059982726
Ni 7.143263806245962 6.197637571804908 10.794888205455994 -0.037074022034161956 2.083513501352683 -0.11073149961931252
Ni -0.17341682833138689 8.757324008448633 12.331171907504068 0.23401152532759698 -0.32181855494025224 -1.3441300524077884
Ni 3.9488790482854115 1.9558045956303445 7.8302739520064035 -0.4593751451722089 1.3963229323612598 0.17810417263701586
Ni 8.918713505086968 8.69452521733875 5.121229940301267 -0.8744890065331972 1.4825430771027692 -2.016261927293876
Ni 6.069249340192159 1.7890265753285832 13.073498415689455 1.4581119406435987 0.4036290006498404 -1.0179519349472597
Ni 4.934942159621514 5.929184444014028 11.767445124516117 -0.3696881249280214 0.6693291153299697 -1.3255857137466975
Ni 3.7080937404631302 3.7563793187759478 6.112878940307208 -1.4169506359139403 -0.9544192045009369 -1.5886877286823478
Ni 2.090077058364485 8.440135493725672 9.636759527599844 -0.09050565949074091 0.6667176458490517 0.3460820554733072
Ni 0.1894548005500795 6.815591996763829 3.188597832377204 0.029782887689387416 0.2991277982109558 -1.0337176824219487
Ni 2.9788346316557472 8.811989525340804 7.080115265985182 -1.0938012779774064 1.275683686709932 0.42866228946938434
Ni 4.401267182284261 9.284049901606645 3.4354757520485757 -1.3534986381068819 -0.16806170079934926 -0.4669416446655571
Ni 6.47329681727175 2.6069806000406133 7.905929007836267 1.1131655414366313 -0.9087029334107447 1.1052719976211673
Ni 3.323764404489228 4.085382194580391 12.549419049570906 2.3391510895904877 0.6033646355137028 -0.9875275570191314
Ni 7.330384191859739 4.728755396411592 6.572735733339386 -0.2703275861498119 -0.5378148746373512 0.045549920715657034
Ni 8.97239678683095 4.60829848412627 11.212194939059357 -1.1757191957991364 -2.833626163789623 -0.30486804312884275
Ni 1.8471712241942457 6.407799174446284 4.750907093945178 0.7512837999269061 -0.8846826592367473 -0.15253403747739536
Ni 5.678714481225963 1.2881325485911537 1.9402100061934977 0.6164767474156286 -0.06842939641699183 -0.041898697116314935
Ni 4.36288657336299 0.1456140657770086 9.173019692813611 -1.4806533162792241 0.6174784492072656 0.4712279307457368
Ni 8.596834129048826 6.8585074109487 8.410096539749809 0.5098772676868186 0.09707714206067153 -0.09965801541397029
Ni 6.269450894835549 3.6988129952779096 1.9144405621935472 1.1327388355828685 -0.2586648050999029 0.5462043842526271
Ni 1.7531887620713131 2.3910449234907265 6.178228788872058 -1.1569843383937946 -0.10687484487738368 0.3416438171962955
Ni 0.3528307989273677 1.7515088645748789 3.8768858018070653 -1.059723362457091 -0.20626109468720605 0.03671355337094968
Ni 0.2811505825289581 4.473181482760043 8.999646927367378 -0.1721402417440971 0.8704965975443524 -0.5606902365736279
Ni 0.28360341646910725 7.625394387722669 0.8052602418810481 -0.03253499651322784 -0.45930495405590577 1.5835779182596081
Ni 7.00769699626047 2.0588842075836955 3.762885938150116 -0.3348134245380234 -0.006443184522182452 0.6424955400768935
P 7.637282186946071 8.882315725997554 7.415881794660516 -0.9117856861011264 -0.8088939942412069 0.1511721241328622
Ni 4.788892054876852 5.307264359391392 2.5486505198666007 -0.058282280680660915 0.16263590179808765 -0.6514388653131103
P 8.17274721899264 0.2530476415694792 2.6723919530493223 0.10117753738229027 0.351286225382066 0.23769745881961643
Ni 8.387416087594394 3.672650657218684 4.803063780313987 0.21454390352128858 0.2785016373201719 -0.13728970972381518
P 2.919606770196755 5.730809663150914 6.5318784230818405 -0.22302648707100303 0.9486596763093402 -0.4023030827495652
P 1.9412454839945787 0.4842777291511118 5.1701617742629855 -0.712569928296476 0.1539435162304123 2.5433270196138906
P 3.9112144612478654 8.064829869440267 10.971874127484723 -0.05799174602343561 -0.9053674412796084 0.4525599220225883
Ni 6.140823989261557 6.890498901522877 3.687673347125324 0.78331100356578 -0.4065747135417256 1.4381668649802393
