# total energy = -340857.06253892655 ev
CRYSTAL
PRIMVEC
9.38596506130582 0.00000000000000 0.00000000000000

0.00000000000000 9.38596506130582 0.00000000000000

0.00000000000000 0.00000000000000 13.73730861510631

PRIMCOORD
 96 1
Ni 1.75143980629248 4.7552582837321715 0.3458380753399996 0.020210413509603904 -0.02412260407981652 0.010138631095898666
Ni 6.60142124693135 4.8056233709261225 12.60259314924659 -0.42558262210279607 1.212972680833956 -0.16546231550328921
Ni 8.965210783678637 5.59814608195772 3.2412768170680732 -0.672186639383423 1.0275591190197206 0.6600446047042504
Ni 2.430927343064529 7.735686936854434 9.641337206450658 0.894751099216343 -3.125853892446636 -0.20958167442000677
Ni 1.8446987526881355 2.0527668206932574 7.024257084626096 1.8813774845774438 0.724156604692811 0.020964518066809056
Ni 8.630084909981287 0.23459280457055257 13.001565171400783 -0.37433462256109723 -2.20923067574755 -0.23276479740468942
Ni 8.512957455062669 7.997264390266323 11.194931199017354 0.3344259592916176 0.42327659967743875 -0.016195893033572106
Ni 4.2346657453027206 5.695638098484658 1.9999322861566446 -1.7957420086948106 -0.15199796246826724 -1.3457274788018954
Ni 5.913345552354146 0.07109774487242852 5.6905424581869335 0.7280811365581977 0.23626149770403826 1.1024512403429207
Ni 3.9020834680700665 6.122164497544418 4.498584058339315 2.188791948277224 -0.34772396195210437 -0.12667362477086572
Ni 7.7310314983065025 5.653391870855145 6.960611795816284 -0.6753904910327013 2.744961928382995 0.24483972629135253
Ni 0.7720791410694017 0.18117446302248558 1.3039883372755476 -0.49312035994345393 0.24855137081498482 -1.188087230446186
Ni 0.7474747729049924 7.488357378030772 13.197418344796473 -0.034696780051237025 -0.3021120776502604 0.5793649301649957
Ni 3.498759174031449 3.4814420689489225 12.704427113096662 -0.3805867741183962 0.9860134343674501 0.5368152297282432
Ni 4.297532937629422 1.9056605941575178 6.048413340418965 0.22898861819170882 1.9350744598802672 -0.5343654826361701
Ni 9.05428358976708 8.58961262970169 2.9948567582349237 0.2741035082524763 -1.6535098673640556 0.419596065502058
Ni 7.040355891475717 4.192278728200992 5.450057144905915 0.49158566846648244 -0.9886691268227424 -1.557328497644776
Ni 8.445960438217641 6.646436334181105 1.306006319710639 1.2651552763747824 0.01668208864137127 0.5122799635910404
Ni 8.763863066480608 1.6018087552216733 2.948328653457091 0.16215381995534653 0.0707953255460071 0.03731107774563252
Ni 5.541708275528867 6.24163844366663 7.60107249089015 0.8559801490957323 0.4726510363455085 2.3149870907497743
Ni 7.290069485362231 2.8970718996057756 9.804248459137327 1.489560388960867 -0.4357554488707398 0.9963765227693293
Ni 3.5633627698488093 2.4913729564691205 8.747272435074715 0.6316097464023251 -2.0735137098274934 -1.0097622000476159
Ni 5.378176610567967 1.8077555951787454 10.12397008738132 0.2092875402183557 -1.3164590688550812 0.6356769744931633
Ni 7.127016504606864 0.31829683878517157 8.529920709271693 2.226559911054617 -0.37328612669192485 2.273399240005659
P 1.003603673742134 6.559006071935179 11.070017147688729 0.37086903261 0.5453392080388544 0.08274786992219296
P 0.8266754212016731 8.054575091422912 7.568776324560359 0.30601064137371814 -0.5507907180717289 0.35350277341741054
P 7.550314131770477 8.892741749346827 1.307503381098532 0.1883811290829917 1.1921647429496693 1.190456502009311
P 1.150794373961203 3.509806454617971 12.152544583765518 0.8104795935607719 1.2040496673127135 -0.18085242480611435
P 5.6395757306483825 1.5243651595382441 8.157337327193124 -0.7734906750412486 2.2124887776735314 -2.8839187413965877
P 4.825108633880769 8.303246843215032 4.31808913916939 -1.5079064955682224 -1.9596526634402636 -0.32329488237546256
P 2.092169100984014 3.9207990819099354 8.037121889850576 -2.8992764547995806 -0.30414324914767615 -1.803314678835746
P 8.602893769914035 0.3256131983579789 5.050425289425273 -2.1111677727348415 -1.522855917789203 -0.6912660246123772
Ni 4.158123202241471 7.516121061951701 6.507569107559426 -0.888036920420961 2.037364770710762 -1.1422094940774652
Ni 2.5579757627919433 0.043406332880570435 13.687276541441245 2.538016663144571 -1.4759898493652839 -0.8037623294415963
Ni 0.7477112992183147 3.567436278578249 3.618956778040849 -0.8817557153979394 -0.6402193424482071 0.5784172215397457
Ni 1.813105595122941 8.90921411759606 5.800179913183677 -0.13591442664284334 0.4977349758973299 0.8325789965629726
Ni 1.9607749795475429 0.3471248911160508 9.101296010329333 -0.4040306069636332 2.3274808523414108 -1.6686675489411005
Ni 6.746537648926442 8.815804995763374 3.469494674336701 1.9526968009477208 -0.5964295989567664 -0.19563035444623728
Ni 6.39702309116865 6.753548964642781 5.158455867245796 -0.5751568056209191 0.07492477433334839 0.04166421250800567
Ni 6.69512133367328 1.6598327897041554 1.7251863241101848 1.5778312455838182 -0.5412691517345388 2.4986577017309743
Ni 1.3757947224914617 8.857478679539211 11.236939961737063 -0.65872434323093 1.635001267036907 1.8068054655978238
Ni 0.8424560438440861 6.067031340224765 8.568398472028234 -1.643675911992769 1.2603681393987842 2.203413554845141
Ni 4.693057494907292 1.4148684940137155 12.131060110305409 -1.0108150667921625 1.5497465715324599 1.4180860350699642
Ni 6.122014322107389 5.105533104639928 9.942528124361624 -0.4992010189198951 -0.5604935471817895 -0.4688134077669733
Ni 5.420460382056738 0.6070316427909797 0.3109879879842158 0.9875501827269507 -2.6884948465342022 0.11613030203738064
Ni 8.709133505647973 7.573450535037918 5.171340919742973 0.5459886686973952 -1.288924353769922 -0.5141936356739855
Ni 4.974542579690474 7.7903695678629985 0.8793898153886617 -0.02773706090395223 -0.9114249603275981 -0.0811455584320796
Ni 2.424188220327806 2.4707238338774897 2.3878598435137577 0.9617789873001179 0.14029430087809386 -0.661313701224661
Ni 7.855695882971066 8.17206859896929 7.183650477700337 0.15720547481113573 -0.36235508160171787 -1.8331700716342818
Ni 0.1322351038838396 0.6932877208386279 7.378046949356836 -1.0208307991569516 -0.9497958467963126 0.9739521323275421
Ni 7.996335179749699 7.11712369769251 9.080525808791597 -0.7459317915863733 -1.408742131961219 0.8021155378667928
Ni 2.0395326103049847 5.368161786111026 3.1501569320536147 1.0785515509071875 -1.4760073328667804 -1.9204744505789053
Ni 3.82316627591078 4.656114337397902 8.465300218717665 3.598837372430899 3.450592963467793 0.7616679713747075
Ni 5.014095035418261 3.399455666295334 2.253275432636879 -0.975027881890224 -0.03924197621975822 0.35368043664585536
Ni 0.2990377775825503 2.5840499730462843 9.085072370147682 -1.1543412443439927 -2.7751623632257756 -2.4582646426259083
Ni 1.1302015671584587 1.5846887554002487 13.049261828798002 0.5900938865467257 0.694460620290275 0.5440240887718566
P 1.2095035838751347 6.947894752089283 1.9779522337543352 -0.12261410998951142 1.0972149316446458 -0.7815446556939766
P 6.792904315109467 6.701269140626699 11.201771690174073 -0.060492143847786145 0.3898113780404577 0.8179622750910622
P 8.934021222600459 0.7437419746983145 9.903473124769 0.29290212901621815 -1.9004856661618044 -0.8487766893687576
P 6.804420893936707 1.470020423262998 12.245985617878572 1.198096277942756 0.44916812273221995 -0.3858763046521096
P 2.6170885691928936 2.0462623470768935 4.6601343461279 0.8061467705133729 -0.02559687463249785 -0.5755800092012668
P 0.7819437900893126 5.655625730480968 4.993470316335149 0.1743066532677966 -0.6809715846649046 1.3968564362672264
P 4.563934776955899 3.6046891729265136 10.818363474875083 -0.46916487756912106 1.0421580998798181 -0.3775654707935691
P 3.583692769636751 9.33106630617826 11.35058803949899 -1.9159739916053904 -1.6521636377488063 -1.3202840990281264
Ni 8.205313686341816 2.21248778393952 0.02980794705750023 0.30597516015009235 2.652034032604007 1.6453589561221469
Ni 2.110762697281296 7.275821590774006 4.234085692677192 -2.13966485173327 2.2690422485885438 0.8832477265624337
Ni 0.2036425855951426 4.470882321786161 6.965749672955674 2.064513563211412 -2.166909803492152 -1.717361671712694
Ni 4.965475737679785 0.6067275375309938 2.9856256618399835 -3.4134862884234827 -0.09744275293020638 -1.898103539082873
Ni 2.5259696227749155 2.1592881353716282 10.682267923663089 -0.5633762680462233 -0.19230231851426882 1.8261080225811774
Ni 6.478831160490765 3.6687202248901976 7.79916421689407 -2.0064495691891446 -0.8787868625776026 -1.4844912019680756
Ni 0.6181183444297224 1.73855287660234 5.134703744686531 -0.7125750705027986 1.4448653600463375 0.35692928260045625
Ni 5.8654114300471205 2.2267919943166317 4.07285077330637 1.444600793531041 1.064015562074542 2.1167403817266126
Ni 7.577092289385897 3.728621452335555 3.1038212395544775 -0.6755432145604817 0.013663356419705501 -1.2859475305297854
Ni 5.746097045326753 3.0418504068675496 0.21317591005710584 0.15146368723135206 0.34913112671227614 -2.089828644937433
Ni 8.892394468648694 2.1663276089824115 11.452697950714605 -0.48380936695517324 0.8820570486884421 0.041246408244296706
Ni 4.922215825850319 4.581176794319911 6.236531540211127 -0.9749515201263339 -0.30233242119118253 -0.17830266180106713
Ni 1.7408712099114911 0.43222743408801206 3.3871947804583127 -0.08660683865696699 0.2864579160527712 1.136464621173888
Ni 2.1494328723165315 6.134469497416067 6.8455614549110875 1.248572689425753 0.1975039173198663 -2.1802070348216906
Ni 8.596135875247683 5.312906611248786 10.97176862239775 -0.5514682037547277 -0.21259577865598225 -0.5079857070910607
Ni 3.034510582382706 5.432849855611716 10.882187097016367 0.25589624121583027 0.3407002223361036 0.6498913183203324
Ni 1.102362795519015 4.247308639907687 9.927733028024722 1.3915057134782745 2.30291293319406 3.123760500252717
Ni 6.276150636289096 6.266614496037688 2.557310297886604 1.6710645884183672 -0.13472503432043248 0.6407225073368708
Ni 7.370741852941807 7.607765622399283 13.455033982460211 -1.8805328771889613 -0.33497514692686825 -2.9893887355066453
Ni 5.838285991733569 8.551927980971964 10.435147671854788 0.44087657214738907 0.6206347354480602 -1.0224503370382456
Ni 7.736175007024782 1.8179393670023452 6.431051906603176 -1.1546196948163598 0.5358541513665546 -0.3129202240093578
Ni 2.6774027790900834 4.121649342972801 5.362976040551082 -0.8474250604368695 -0.20583120623863904 0.2553516815662699
Ni 4.689856880905588 7.529683781108476 12.083377531855408 -0.3211657518476017 -0.2842459960031169 0.45084139666958484
Ni 3.0798917222602213 8.331451667482236 2.418425237931778 0.8458317478078208 -0.9510554302350267 -1.1274763016323484
P 5.131607314894269 4.3755396912017135 4.121508553500585 0.7614093183966822 0.1433695973693079 0.08462528945056393
P 4.088526273142862 0.2819252865329771 7.310817160584413 -1.786598908742962 -2.0497304913649668 0.3081451712182177
P 4.290793814892699 6.635567386926056 9.554228882797862 1.5552425616500247 0.25227895617821716 -0.6378271880669467
P 7.230618784227963 4.865487054512222 1.0211507349626132 -0.66174744632797 -0.5444953719813203 0.24764814227442508
P 8.215591317813558 4.435253199350783 8.616877918890976 1.0609405226936437 0.806352972986908 2.193096746300165
P 4.232328640063941 5.880138008840878 13.251007510904161 -0.45740645148161224 -1.6097340078296856 1.933238178002477
P 0.5530792398449745 3.1539000548215887 1.3947215205396541 -0.47941200921842597 -0.2083930534285443 0.3406007206437618
P 3.7666158379041557 1.6108286674082901 0.8910622012318216 -0.6865138546393725 1.4268064456620977 0.3871772828517203
