# total energy = -340873.0265536062 ev
CRYSTAL
PRIMVEC
9.23886780766009 0.00000000000000 0.00000000000000
0.00000000000000 9.23886780766009 0.00000000000000
0.00000000000000 0.00000000000000 13.52201691558062
PRIMCOORD
 96 1
Ni 5.1860167281678455 7.023193314405364 12.55371910928012 1.4687357389060318 0.601855397958028 -0.973226309905111
Ni 4.32179455284321 4.3737816621689865 1.6478333809870616 1.0741824753052145 -0.1350991298303996 -1.673005257084506
Ni 5.648542168753649 5.195033863177968 8.399985105735198 0.6199155978938485 0.7159959232588895 0.5297390396077523
Ni 8.9035246523153 7.630778218919372 10.624330307035914 0.7382958723076705 0.40395578786163977 -0.5806065158815807
Ni 4.556434079330988 1.550171156842595 11.04861053031854 -0.1099812517168493 -1.0320870887970612 -1.4117896605382911
Ni 1.869355562918107 8.711430112222615 10.560681898724711 -0.06526616819766178 -0.1991386247098119 -0.28961420229356577
Ni 1.1588127152147534 8.536196505934718 12.984692892311552 -0.9778087870694709 0.2615884065046011 0.6332359691518384
Ni 8.0367987438065 2.9395490578284633 9.745425722942748 -1.254596784132646 -1.0187523193613681 0.30388459616965086
Ni 0.5076573099756055 6.720056821764874 7.094191242081886 -1.0821698643860653 1.0836575046751853 0.6094339816362343
Ni 3.673059730977681 2.7359798438806853 3.159081187627152 -1.360005328877148 -0.25796932169477504 1.3921155791481314
Ni 8.471173354089187 3.7934883732491382 4.759452656755608 -0.8127182530833035 0.43903411962201166 0.1292699247431322
Ni 5.722942771454996 6.334879182720814 2.248481743528119 -0.402530625379339 1.7565655956056652 -0.5884787195408059
Ni 8.704547155683127 5.466056051212735 11.144102544407804 -1.2536704156636345 -1.2613379595112213 -0.5373091386455262
Ni 1.5682331434663541 9.528598733647096 6.559341172397988 0.9807503861962981 -1.3472709120296154 1.2256477051984633
Ni 8.598512669503647 8.427769152985135 1.6662639984375662 0.25583504896059167 -0.3473310973890599 -0.9803770620172794
Ni 3.246722935714263 6.034791516466945 3.4425296529043514 0.6460999695987002 1.5210075517265547 -1.8495238304019566
Ni 4.287684652784428 2.9419049691272146 12.799143166195478 0.8623983939172504 1.595678043957252 0.8253189725664495
Ni 2.2527593393372243 0.7131361979055476 2.3838505589807935 -0.8929140460076043 0.6534381551313262 -1.976158631515087
Ni 3.370154210033148 0.9573592020019325 8.725973937973572 0.3194253721177273 0.03465512818002418 -0.4428308676602825
Ni 4.09188532668861 7.779976695639107 0.9687765948764293 -1.2436536548575807 0.6991577686556282 1.4143029138784482
Ni 0.008854530936169112 3.3350742288513513 1.239995570796151 0.6112741201687666 -0.7231086230442708 0.6404661683516905
Ni 9.139660875392872 4.090998395376139 8.156940057288187 -0.46079876499261285 1.3097376909708476 -0.365324448642687
Ni 1.1050517432640352 3.6534733311606127 10.286698653547788 -0.17994662516239332 -0.0806393082196224 1.4504197142056634
Ni 1.0078865702092663 1.9235138061858692 8.828917098974378 1.1819008991298163 -1.0477548772413052 0.46222624146775876
P 3.6434399206882837 8.770290939220041 6.6742782316263956 0.36869336511491985 0.19559153078850186 -0.5091550448088135
P 2.3272708084526292 1.5503836508028745 10.649859146646538 0.8959960273670375 0.47883556788966564 0.019787467039572376
P 0.4599080693272304 1.0331271571433378 0.9057545818046596 0.019754814029424042 0.2708528625256626 0.4805116700405079
P 6.475042046694752 9.148872026627597 11.129349920243703 -0.4455019867345424 -0.2678156183612355 0.324407398713351
P 7.632496648337284 5.658991328278699 9.020442524808225 1.5152171702970225 -0.6330354231052581 0.44329675155310755
P 5.722878099380128 4.94900281264564 13.131906860219633 -1.1301669610906344 -0.1849404788325589 -0.3951541304096098
P 2.6627710551304724 4.392555041616289 11.497974279781987 0.8049442655648394 1.529256164888592 2.078785499749394
P 0.2736737431043421 1.0874701777678648 4.7510286570607 0.014336471227330148 -1.7007999106992708 -0.2743433921774243
Ni 0.29408424993258164 2.1228331409280567 6.668030909194178 -0.9952393238410924 2.305538800852681 -1.8456221813547056
Ni 2.749246858096398 7.727195043679243 8.442052442663055 -1.3987235713829524 1.912019634943333 -0.839786055834373
Ni 6.444091839436648 4.232463939715268 11.0631598993902 -0.3243462064581124 0.28867163587463834 0.554328298911342
Ni 2.6109872008971378 2.6166506268819787 6.001854952623619 0.7323836205882935 -0.8074343789765449 -0.26744795060917165
Ni 8.109748844257242 1.912648897608099 3.1054126043548163 3.5549129031338067 1.075944452301644 0.34165872959463095
Ni 7.349269915888202 1.1893656511558124 0.9680873753356964 0.9090220073130603 -1.0571041796666891 -0.32995326823224463
Ni 2.9884688630319434 0.8076415009096873 13.118817232266414 1.8655433457586648 -1.437242810504073 -0.13768771649318223
Ni 2.926642359458442 0.39867192940859253 4.576378023333397 -0.3491000163640246 0.4640949192453814 1.1386878540774519
Ni 6.3470282939281 6.63116043542533 10.483552134463949 -0.22095829168806463 0.8783549172465067 -0.1926735858107585
Ni 0.7813624652305978 8.239804386816145 3.6431830801623812 0.19343283257428623 -0.04408567746530472 0.5580414860968712
Ni 1.3201418254060981 6.06673028258374 9.277374515502892 -0.511837476736983 -0.7357103709686814 0.027494348765526845
Ni 1.085123505336952 2.6454481779337726 3.59954698347559 1.549870498704834 -1.2652169828506532 -0.43766886384336884
Ni 1.2790842967329603 4.813293082969734 3.857790893403288 -0.42612383931824677 1.8966236121032367 -0.2648987018247567
Ni 7.247965730041901 9.173595236962727 3.6413981308960333 0.5020783404676901 -1.177024030653489 -0.30374061439261885
Ni 8.635357274442548 0.7081111776883289 10.864615705659642 -0.25423222324984607 0.7016810492981141 -0.6029866833489937
Ni 2.1658493095829017 6.8287705796174425 5.454308830756413 -0.8691701654234452 1.4454379447203556 -1.2473478158797162
Ni 7.1502277471811615 6.44361141830906 0.45141200646318497 1.5361343800656642 -0.6898015242517088 -0.30400286691507
Ni 7.908396958590642 8.279106530600018 12.641625088987405 -0.879299283437647 0.5002819106888997 0.3149215707101028
Ni 2.4456391831961586 2.6972782265062984 0.8246086816946148 -0.7602785472263487 1.103527247015919 1.0346106265498634
Ni 4.5695809882648035 6.752670025233861 5.466694456980358 1.0138014031139961 0.8396739557365409 0.4063497420151131
Ni 1.1308743788719158 4.600327940430466 6.196409803221627 0.337809788162186 -0.7049913446182698 0.5221473433034234
Ni 1.7557636828469474 6.489999773724862 11.673070226939094 -0.8329266097103784 -0.6855975134726903 -1.5242412281725037
Ni 6.043245080538934 0.656743996394499 9.085064709789577 -0.44869401130927883 0.4837785137172378 0.3180925122389167
Ni 4.169057589741428 3.841317992047706 10.225038449595376 -0.6118431052983593 0.4489938019378848 -0.317729215362227
P 7.575345011889932 3.222683401599163 6.785604741303619 0.5640403839927834 0.5782169326034816 0.722633226069749
P 7.389773112491046 4.06616431862695 2.7551375602300596 0.3683107849645205 0.2011350863145504 -0.6788095440165793
P 5.6126768838056025 2.922540302138263 9.143101429775834 1.792419629189797 -1.895788517796451 -0.7625930542921382
P 0.5791227243647427 8.59073354278385 8.620921543445299 -0.07578532256143077 0.11189929467516857 -0.05938939770191061
P 4.485692068293586 1.794640838710261 1.4327654721278102 -1.3305494855098763 -0.36985241842002753 -2.8014032992001754
P 6.295115095545031 7.304886394793297 4.232945284729641 0.5380100213672928 -1.2004290398409907 -0.1736692767941138
P 3.16002539992022 8.189313974080164 3.0845475452289355 -0.03797930745725072 -1.4154421696892139 -0.36095228771692034
P 2.2437329654592637 4.627702705835171 1.945398836321092 -0.38341678736802354 -1.2063574895102835 -0.6751295240618308
Ni 7.653034651541692 7.807794926700049 8.648870966429541 0.1828306315784077 0.2756106889256221 -0.19067455310285872
Ni 8.220393525488003 6.380011052110617 2.934331869160209 -0.022926526889186324 -0.685252985649078 0.9081640301881392
Ni 5.105361411940011 1.5943791394485731 6.933712107731659 -0.5412701801758033 -0.4697338626987136 -0.13299853854762902
Ni 5.252961564523732 9.117866386162465 4.743090621814084 -0.8471856907325539 0.6930763383482386 1.5723977332730725
Ni 6.057103382296295 2.17441374006895 2.715842807540458 -2.2858665192347343 0.7218603524594666 0.9298379156171469
Ni 8.523945767181214 8.892308666759677 6.184727254840173 -0.1788986435138532 -0.1553375683644615 -1.0222521049845104
Ni 5.116401859006709 7.51887705166261 8.024898158144063 -0.12435474682970195 0.38059680142072516 -0.4917689881218822
Ni 1.097291094279914 1.8188559113142875 12.443811689702851 -1.639402481428396 1.4308435918459488 -0.5919895609075418
Ni 3.437237629406608 5.6942930422886135 13.325135933282853 -0.8296268559131841 -1.4146309866418283 0.17427040071322245
Ni 3.6792220558257873 6.225638809401467 9.89163912146395 0.533575639745023 -1.279626987628396 0.5076314090754354
Ni 6.77425202050399 2.0094814714206914 12.023858952115658 0.8051556102446973 0.10077927350260708 0.1692703763954698
Ni 3.3926878086906154 4.74549827077273 5.303957343330465 0.9483804545060248 -2.382675752346 -0.8406234641340039
Ni 7.000456460655455 6.968951921327057 6.4309356916349945 0.24719254279424524 -1.0066205690948407 -1.2953873357864463
Ni 8.244257521114177 1.0005047148065127 8.157224614417606 -0.7354668874993076 -0.596958731987359 0.6631355849247482
Ni 0.9613041985688608 4.665766841328719 12.831717566419542 0.1343743358492331 -2.325213653573789 1.2621224030857296
Ni 4.413305538780976 8.368778981837975 10.178576183236869 0.4135210629525717 0.5991608818450004 1.7109285144928406
Ni 6.7067251354742945 1.995983485509023 5.205935727227091 1.0466241060709716 -0.6694805533061696 -0.5351509546519428
Ni 3.113895732803888 5.817012923783953 7.216105494301732 0.1853261443067518 0.1344509547234394 2.4177476563484683
Ni 5.474685153773651 0.38406250769598377 13.249764325571709 -0.632784997657349 -0.46915844981121785 0.003938930043089991
Ni 1.2490579762586806 6.438095814209631 1.5038373107470382 -0.04967037064193381 0.6778019286876714 0.5502713552331492
Ni 6.994081641847069 3.463974912930474 0.6210875098595958 -0.9544312886857949 1.227524610506202 -0.2553162003426442
Ni 6.095768044199328 4.725985781898367 5.963750166111583 -0.08322763777208893 -0.8894682535508487 0.5887777388384634
Ni 5.438773674486413 4.824730801353476 3.6603562877001012 0.3656628058187122 -2.1950962932286973 2.3027013314038856
Ni 4.155531887226245 3.758463825274371 7.634044158700189 -0.7106984223053759 -1.5210497178183997 -0.3062320133559049
P 2.171152419722051 4.140112216804222 8.407232997554297 -0.4791651833149425 -0.008970578929726487 -0.9052957075014086
P 8.611798161455036 3.2897668209726225 11.900767668133218 -0.6696476750116531 -0.14374677820306855 0.4023488483858361
P 3.1550733667589235 7.753100829097668 12.35628357969015 2.056352881777491 1.9399731827334656 0.22556776543561796
P 4.874445149191044 2.997689253134507 4.904841024378853 -1.2206543657489302 -0.07681093561246771 1.018022126063563
P 8.995599209191198 5.974988324950019 5.1140404043872545 -0.014083731786575746 0.9394862373401885 0.10013598349165335
P 6.201109615290939 8.243961877343354 1.372822773706526 1.517137270137871 1.4823219622308987 -0.6935005703698508
P 6.50869924222946 -0.21689258525730354 7.034978414219822 0.04909958574012834 0.8887411455768371 0.03277539465880807
P 9.377635633170256 6.595295150477283 13.200179321883875 -1.9191631879666498 0.9400264261143745 -0.20604152247723223
