# total energy = -340891.5087784575 ev
CRYSTAL
PRIMVEC
9.04365743149308 0.00000000000000 0.00000000000000
0.00000000000000 9.04365743149308 0.00000000000000
0.00000000000000 0.00000000000000 13.23630679789342
PRIMCOORD
 96 1
Ni 6.671370513236984 1.705950340273231 11.370517372851152 -2.4011568418693225 0.036403735440014726 0.1973182836716215
Ni 4.458984394317369 0.24274262079328782 5.88009660104056 0.09489196148389464 0.31969379528776554 -0.41009352532826143
Ni 2.406191700026278 1.6469766494474471 4.4774054203629206 2.035846534294023 -1.1285664493727339 1.0957974824718288
Ni 3.2568652593186727 4.1752305953065125 4.881484178592911 1.4711024393659955 0.8256861260978813 -0.10391859046253715
Ni 5.0986513358598495 4.71528164903332 2.8479237264288106 1.0046837570834442 -1.3659330072154927 -0.925767087981883
Ni 7.267962513911008 6.426721489434023 2.8329266291283357 0.6508544535645501 -1.6536834168274424 -0.4396316439966945
Ni 4.915833798665674 4.77430960180435 11.326453055847695 1.3718169768000954 -0.4561756643983047 0.36143385533902916
Ni 5.437707100734786 7.739923870010561 12.459759000615845 1.0971529680584589 0.6568235266637913 -0.3765552843614999
Ni 1.7033367232438412 6.5914426678883755 0.3103502914735995 0.892044241808141 0.5330575624580239 -0.38350343354455885
Ni 2.6509854223498968 1.8620348257757926 0.12800845066608768 0.7370499157157113 -1.24117716829263 0.9561683259815597
Ni 0.8235986573457256 -0.06422715149143299 4.36018514877766 -1.3128536108920097 0.17955298926840044 0.13278436565429388
Ni 8.396791848196292 2.2847625102213707 1.5118110482033 0.023209091126611642 1.4348280304149932 -2.057749247904385
Ni 7.114193204738978 0.3259189479306746 4.789425171018614 -0.4718419101806519 0.6319349909522278 -0.20683650757470187
Ni 0.8150487835063304 7.484946989295616 2.431853982665021 0.7173632359200613 -0.7154943010321226 0.05735899753544315
Ni 7.637739583453202 3.880787193082027 3.743955750118801 0.44876934463190454 0.029511893416187887 0.2738975628892573
Ni 7.325552525132997 3.7258060337994845 12.628972163770882 0.6686984237245064 0.42290610371189746 -0.3040406621315409
Ni 7.685553400873218 -0.36630159194913386 7.0372154004802905 -0.4345082067272001 1.4620241312138111 -0.028452341803421967
Ni 6.872935552513947 0.3269942388123164 0.30444026127046353 -0.8441384192657978 1.4432262817810175 0.27128429363612633
Ni 1.8086501153104342 6.702544000781299 9.079445102763328 1.1380368507570142 -0.3528006051440633 -0.17602492151048393
Ni 0.2660761616151871 4.989123599379085 1.565643419716945 -0.9237824534516863 -1.1451292388274212 -0.707701287350265
Ni 6.2838497875990695 1.9391500936291064 6.965725287617566 0.8239696576274067 0.15620942944645355 0.150743778346192
Ni 3.9800322909385137 4.240462497150767 0.5778363592994505 -0.24090079624826258 0.5341855054148801 -0.5700349110133215
Ni 5.85048676188511 5.530142324462794 5.016639831813762 0.34306512302385433 0.5389672430742395 -0.4100714138410744
Ni 5.081414124586434 2.9556933758835777 9.380796050617738 0.15181875657792562 -1.6371658787883934 -1.1154072862829565
P -0.01772556878063738 5.557689305333111 12.609951543230352 0.4420096573105678 -0.37936370034457245 -0.7737961220968093
P 3.9360620279734833 6.1866576000044216 12.671540659817035 -0.8744419553453456 -0.42003906657674756 0.7691542524494237
P 2.408117999082541 8.79867390200954 1.3798586584835206 -0.3782761237073485 -0.46267052809402903 0.11898139833293056
P 6.134611350855152 7.685182610914031 5.720957168020601 1.1407637627698741 -0.27650826103922704 1.031638431295417
P 4.616877611328158 1.1348704975227673 12.534756243873023 0.8679167526323182 0.043766603562989136 -0.4627916270529255
P 4.101144952729481 5.999725198629026 8.241454368806629 -0.6979195253731528 0.16152775633557342 -0.7206740454608492
P 4.721295681298178 1.095033186054039 3.7898857736729967 -0.14785103017942922 -0.12754985672823194 1.6033468733564193
P 0.13934105793089213 5.649048333813723 3.6178401369760746 0.5919761911711031 0.10577749804814686 0.5739483871351148
Ni 1.3876407257976728 1.5360200150751817 2.3219527431278073 1.2002647463489846 -0.7623953364590353 -0.2518930335937081
Ni 1.8373004224007705 6.517637378695119 4.829293230922982 0.8655888758300899 -0.20147678592468526 -0.633177090889445
Ni 6.232291895957022 5.883758377978969 9.029967252355743 -0.4146456634753181 -2.0537846068296823 1.3145945048425165
Ni 8.517054406178392 2.263491827684606 10.138270197119898 1.034319834782322 1.252159635446063 -0.021039337168802477
Ni 2.4053235089023284 5.0871930217552235 7.024905173835289 0.7287449953944417 0.5479241951572112 0.5205452889236261
Ni 0.5413858975798796 0.13349071586752767 9.197327370080599 0.6849169424658978 -0.5862801692275904 0.22587732625623677
Ni 1.3335053917563997 1.1071607308167097 11.47211924786286 -0.29585941187232917 0.2604314100820225 -0.44992222728942516
Ni 4.168529245068527 6.679111884092201 1.5908716067937134 1.3191744109037151 2.1714722260518537 -0.7106732254943954
Ni 5.366099420324027 7.702573564365646 8.048587519352738 0.4693541107617916 2.2476830661864775 -0.3136491317555824
Ni 5.331407949996209 2.8675991077753182 4.927016281215296 0.03169090334537768 0.09818117375812768 -0.6463748205266416
Ni 0.6123234429668396 7.560624315599889 6.955097181275217 1.5761415165862211 0.20943769264297477 0.5550608062019924
Ni 4.978768611494477 4.2939828624792415 7.095652802413884 0.499640677560475 0.6151148340710955 0.23947743353817463
Ni 8.360445388538444 7.036273051364503 9.146963241233982 -0.29391411522050026 0.6558123117904576 0.3863840975264636
Ni 4.8082323612411715 0.20024466527595558 10.338376494435474 -0.9358581536692979 0.6948331731383453 0.05589655405730373
Ni 8.351962437764854 7.151896213027998 5.024303427214125 -0.07886267593517385 0.3591185769422912 -1.9489388765671858
Ni 7.485598132638578 6.358432831340863 6.92997480499168 -1.3481435444425556 -2.6096987621709054 0.7046902684380831
Ni 2.4581927308878417 5.514858543218265 2.409219516571052 -1.1819466647660872 -1.501181518139563 0.9262041755193016
Ni 2.31494119543616 5.092718696512861 11.489975045312091 0.05939042614317514 0.32510211078753043 1.1351893540058902
Ni 1.3375298193622078 3.5831061614578124 3.7628832209866565 -1.994461543589333 0.6183397687662964 -1.5051924390711688
Ni 3.693040862527929 2.685061923964918 2.6412128460109394 0.11459792455325425 0.8494112376289629 -0.05032445928616494
Ni 1.1339842190837355 3.305158390588369 8.125676560599182 -0.8137646920699468 0.45755531835465074 0.4732544742574623
Ni 3.6832375377533313 2.3475164498993517 6.862826552114457 -0.3671345052682322 0.1172171073436562 0.23239070189472233
Ni 4.13608060181091 6.912194069900042 6.076907389548145 -1.378802149868677 -0.7443119965947633 -0.32517975810300126
Ni 0.8448865228318185 7.1905940236465415 11.225791721220265 0.4172764162299459 0.03848427211812727 0.4978943842933296
P 0.3000423306082064 5.5913678860163225 7.774821535730317 0.6325242877967946 -1.0367518412625822 1.6567695119519337
P 8.526722076089873 1.6663119892704077 8.001268390000222 0.08985414194967105 0.005658483837357997 -0.9157282156886424
P 1.5772138751750815 3.15622743820085 10.430448163130327 0.7829659615215354 -0.21309560111053621 -0.07709195718799626
P 3.9398332331681396 6.138283075816855 3.848998736824914 -0.9771310442761558 0.5499237420857431 1.2114426173426749
P 6.688390676729412 3.880660581876451 10.285510889912977 1.2992445047490075 0.8020877699526509 1.9641698345843273
P 6.386884177965294 7.801257955454583 10.202744240462204 0.6787393529002762 -1.3702959121698788 0.64084874850209
P 2.262316152204258 8.37625370192036 5.826132192126815 1.2491118497586748 0.7607837689975414 0.3701794627421431
P 6.902779622399713 3.998508483295066 1.6686750969859079 -0.20217638309487115 1.0744478131514592 -0.15662749082047867
Ni 5.634433783227238 2.541195419800439 0.7297318226289553 -0.6015494366818349 -0.5500970344388139 -0.9269258841766747
Ni 1.47698301864661 1.089588904214272 7.045619671433273 -0.8300310333301382 0.1602306347907047 -0.8859268160564936
Ni 7.067898721785875 0.5288785192004809 9.12105949293889 -1.4501129815985219 0.03604763765217663 0.5545347584951934
Ni 2.8338753088044015 1.6856111544632038 9.289345681195961 -0.10973211182052069 -0.3326524123309626 -0.11241325819710962
Ni 6.566834875718929 1.778932656630243 2.7704521384683765 -1.276161654787615 0.10551190309158602 1.1000359460332088
Ni 3.954230735973637 6.878578794819618 10.627920947369924 -0.2635321604945332 0.36167990991156423 -1.6582882625893054
Ni 7.992033911284962 7.278019061096757 0.21490352978439187 0.013074316685454902 -1.061818297312907 0.8517910507150492
Ni 7.432122985597808 3.769296982914834 8.30557118767606 0.8761928765981813 0.03996368487713117 -1.1648539709498584
Ni 3.1272967777267384 8.461245995492009 12.513896143388626 -0.5808960220975415 0.20842982020375073 0.15559982088691268
Ni 0.3037167686671722 4.942223191370725 10.186330906390786 -0.7495087103043544 -0.475411115589149 -0.6055762984530408
Ni 8.35295724009438 2.236080501677406 5.725351481219842 0.9207264402341819 0.6584098973143048 0.23246063590070934
Ni 3.610996801314693 2.802909825383533 11.356619079941927 -0.030004773892206387 -0.47743971598340357 0.40511509827706366
Ni 0.8341815454003694 3.4477587826970884 12.629965157368899 -0.36526454193902896 -0.14051747263249348 0.16949149126734034
Ni 3.0466002214871324 8.62303702890303 8.015867566368888 0.3966847081215233 -0.5156388527609442 -0.09968218378368639
Ni 5.47544628365397 7.7722278147475174 3.6366491359301407 -0.8236397850918137 0.5719866354230537 0.8237292594818265
Ni 3.137751245844298 8.416597458211394 3.496609003271318 -0.4497769599608124 -0.14537814315890446 0.19516524188436066
Ni 3.3931893530938404 4.505794365750317 9.521179842263123 -1.2212652598600515 -0.1478721132253518 -1.127253386988265
Ni 7.306126748734624 6.0047444285643605 11.337347045721753 -0.417504730190668 -0.2117992508966159 -0.19505982665474791
Ni 0.4242850022741627 -0.023727844290693013 0.4048908786771847 0.9627197539468322 0.6015867176776736 -0.04283123623291333
Ni 4.571659323622451 0.5869469399063966 1.7827454626495884 -0.2469038079092329 -1.4754116082643105 -2.0932901211234722
Ni 6.1147153042646405 5.664938040113509 0.3039030680125197 -0.20744431636202987 -0.22675895753024175 1.0319130251130422
Ni 8.075705830855604 8.628345655879679 11.436527029243944 -0.471356228793485 0.578129515095998 -0.6886913219066655
Ni 0.41922507587989405 4.793898164038462 5.720638831275154 -1.5076573556718937 -0.626174948539999 0.01928841591596678
Ni 8.036447313469509 8.842273375015383 2.590001326452717 -0.27292182923954933 0.2592265911406439 -0.48847231964848137
P 8.656371950599677 1.7078856829870352 3.5769664223531312 -0.15207046757741552 -0.15457523627714026 1.2286592383312775
P 2.102324806643923 3.5316025317610116 1.3169527853588483 -1.3964540586224852 0.46465233441074816 1.0676081645218065
P 4.924714670371074 0.8880528046414411 8.167053102581413 -1.0546911993498223 0.5945732624743179 0.4213973803768549
P 8.396909415744327 1.6095992128299093 12.606841429401953 1.0442579198316404 0.27677102778231044 -0.6560300842282185
P 6.250523909559964 7.895619478238854 1.6666493176966923 -0.2888176745341994 -0.7302501191850584 -1.576811288959736
P 1.7243722706845364 3.0003961751094406 5.923379546032463 -0.04714606155818332 0.721629467395583 1.1341639980651692
P 6.996535220128727 4.0313731347995745 6.009918305043647 -0.17133497223398234 -0.2929720630222051 0.42593434901526
P 2.4943764047099486 8.603385161066129 10.260374948143129 -0.6640879215356885 0.140204569377765 -0.020646472605757988
