# total energy = -340857.0697270857 ev
CRYSTAL
PRIMVEC
9.42274048014090 0.00000000000000 0.00000000000000
0.00000000000000 9.42274048014090 0.00000000000000
0.00000000000000 0.00000000000000 13.79113315788654
PRIMCOORD
 96 1
Ni 3.601625838310627 6.319389193700437 8.855107086914645 -1.8969228885112106 2.0829036356828254 -0.717536528273132
Ni 2.802615133715222 2.1882901431873427 8.628560848115233 -2.021871045950537 0.18164098214568072 -1.3166035648527454
Ni 4.680067912838302 7.891761903213094 11.103806419534994 -1.1006769220513173 0.14171689225723336 -0.2582349166513359
Ni 1.0311587626301828 3.725553721546142 5.198870813683112 0.8215456215669464 1.9858144094372963 -1.227842655967253
Ni 8.479543033714023 4.829390081758103 4.996513692056289 -0.8301814428650734 0.24617181483921474 -0.19759673414398873
Ni 6.558839875633293 9.055272479097995 3.335716101015444 2.337152828213536 -0.8088032342996135 1.2457979548940934
Ni 6.779567572165527 4.5533885893728 11.939742959655288 -1.738189921311955 -0.12792523778977968 0.8373972438872223
Ni 7.620707349597458 8.34942440996104 9.908750392958497 -0.5160060062923758 0.9449295198429468 1.002430699383209
Ni 0.6695620376929425 6.696327082467949 5.222302342518404 -0.2529027058051451 1.5293268702255276 1.1144305241919839
Ni 3.0395593666714467 7.200745227644623 13.283813031536788 -0.34597818290559124 0.3592887839715683 -0.5570223008037374
Ni 0.11313696079928429 0.5364809043224682 13.31935278193212 0.5539850566393105 -0.5758857133671437 0.34369067242299517
Ni 7.9073565387631835 4.1392968347599695 2.5284529602781847 -0.13109592220827743 1.6806357770465703 1.0532261847685216
Ni 7.954507932293485 7.109910009093044 8.049966889615112 0.8274074796643621 0.12936248445693851 -0.294467416620809
Ni 9.516496781760099 8.357641039688943 2.0843092593451713 -0.7665412403066089 1.0154193983333932 0.7135742011912742
Ni 5.545311060504147 5.038084938654406 1.0400180232611158 -0.06734439088292918 -1.399114379063468 -0.12277531815772405
Ni 9.257220653786526 2.5111415014065086 0.8074431150810699 1.1026576999267719 0.9667116487150448 -1.2196356946764286
Ni 8.98931329550245 4.668176414310077 11.84789385422444 1.656378190050786 0.12212714305076387 -0.5700207699459344
Ni 2.2612975366870973 7.492765378903128 2.5906779118081706 0.6509966355693692 0.8632818249634681 0.5205314049665551
Ni 6.148762208479276 5.317403235700513 5.612797670336954 -1.2592149996309474 0.16160823186452167 -2.6267423479167533
Ni 8.101794789262337 1.8157809424612454 2.5479391876604116 -2.7700160431381455 -1.657881771179506 0.6677365740318694
Ni 2.3806365452924654 5.3392828391732055 1.6631137006590995 0.854233855828587 -0.36047971895587594 -0.13647312735979075
Ni 6.474544038998187 4.445677242561276 9.554442157808564 0.70061738392029 -0.431838630314837 0.3386729074934296
Ni 5.684108028270202 6.90909256326615 9.414806566136797 1.7946104661935285 -0.4572246744881094 -1.3804905933146934
Ni 6.145181567084089 0.47309318661309807 11.029872770642747 0.466671421723306 -0.6376988900191985 -1.1631166765437775
P 8.351789517829966 1.2813042550460303 4.6494185647695545 0.3379612261383857 -0.3580662244183769 0.23228322978258062
P 3.8715685085456517 1.112618354370681 6.627576883132261 0.2856675589409919 1.4215639663162356 1.4738334651439133
P 5.451404028545118 9.268999079428587 8.511418280323596 0.6422237744727455 -0.3666287692764073 0.6463349684276417
P 1.834381432235189 9.173838822981244 0.8920687476341542 -0.02393311377682975 0.3782180167759035 -0.19875604455941254
P 7.13623714608818 3.4059814770257266 0.7791711244439166 -0.22834712795296802 0.08626205372303852 -1.0694994680072483
P 2.6466593554738127 2.741536929705747 4.145490402099591 0.022415905801354944 -1.4670249268625122 0.021382579440834142
P 2.020744394114145 3.275212684177302 0.9485759802204576 -1.4481219193104222 0.6323656507317432 -0.5227939757484867
P 7.730755536056369 6.797122137742456 5.954031853024199 0.35823591722702175 -0.7258411914840853 -0.9701582125027486
Ni 0.3313421896960149 5.027427819133469 0.13841723132335396 0.6403427553999488 0.11582485498181988 1.9538491693846094
Ni 0.050868664662935686 5.1913175448873705 9.519495097791543 0.6040557480434564 0.2099089758524385 -1.0451369800024841
Ni 5.645107305284207 1.845716989073109 0.99077855043299 -0.5455816630669635 1.455801547342867 0.012319697907617493
Ni 0.17919508317022265 3.3061663867646396 7.130787975249137 0.024007161547874786 -0.22497358349504482 2.1427537750712387
Ni 4.537784531082197 6.423614126521912 3.563035946811028 -0.8613462985036521 1.7610503708498964 0.2588833488686122
Ni 2.2511680906349247 0.7957315908966551 3.046006405730886 1.0632393460301495 -1.0188911589320775 -0.7579933507365978
Ni 1.2476650714123023 8.5166686313378 7.179318857990636 1.7456214378893355 -1.6424564377633712 -0.1814044406548424
Ni 7.030561111227604 3.0161061655329737 4.723987306372421 0.6770568229915307 -0.47033652927971903 -1.2498235311137185
Ni 7.50673930308487 2.6163181310198618 8.196939027050808 -0.2838906695462272 0.46417745165685864 -0.8883675642875023
Ni 2.5370069241164757 4.889742734748026 10.98631992171461 -1.5844081274703874 -0.7718559676513029 1.1380167961523562
Ni 0.45375772307908974 9.103168269128874 4.443558068219756 0.593109790554914 0.18118898220992666 0.011975170084005183
Ni 3.9738994705238833 5.85950292019127 6.348445156348326 -0.2095819315303229 1.219231003038842 0.048071658696246244
Ni 5.059502827841932 9.188764443954863 1.644758202138511 -1.4222540504047247 -1.9235602885930807 -1.079386130993341
Ni 7.102729880821643 2.1061898050919163 12.93264916489626 1.0539244963871268 -0.44104883605919526 -1.3467322659173258
Ni 9.379226297957256 0.6656450044614185 6.739464388539436 -0.38722124871577823 3.774956396317086 -0.5370666836174169
Ni 8.06678930825413 6.659116680179548 12.989426830135304 -0.36090677919096553 -0.5420301982702793 -0.42235023120842746
Ni 1.4785599049587645 6.025409112415092 7.384765696231885 0.06513504193643621 -0.22749017926931142 0.919088904630759
Ni 7.840276049046514 8.91270641512648 5.85734228579149 -1.240338988662051 -1.348234047273833 -1.2198213283246733
Ni 0.6275724214160187 2.283365594970064 3.4847989323261976 -0.9628117994400064 0.3026581799617175 -0.3678176473781859
Ni 7.683867979260449 4.859740728952567 7.099427210271609 0.8861016510714611 -1.0162997440558175 3.192554479097979
Ni 0.5604815666847843 7.50988649841643 -0.0002610099122280853 1.604465817452211 -0.10497248564834824 -0.8214139810850885
Ni 0.28060450112621904 5.4689020576789655 3.258279077200223 0.7652585169394434 0.25445950876930373 -2.575989028623286
Ni 4.954052938753682 2.496639903756002 8.548875558413453 2.7476117073010164 -1.2168738156605754 -0.38587938997590315
Ni 4.33207668292872 3.616108590480106 13.278019930668995 1.5624395936190962 2.779106435475188 -1.6437319620416853
P 1.8432388083180196 4.152582898884214 8.678829284207449 -0.07848318110856806 0.3051063843918939 -0.16555307544488262
P 2.9957718915045186 7.803517938302768 5.300787175078743 -0.661677512321983 -0.5182492938005978 0.6038498026802375
P 3.7940005086372905 0.2814516054983961 11.585613756575114 -1.075400921093348 0.6273154899023454 0.20900831841504006
P 2.183211286050486 5.765944529631246 4.137933364207644 1.2073728181486756 -0.3945964581339269 -0.8087600397665039
P 5.4313712822131 1.298557292926522 3.1132659275173142 -1.102182045841934 2.036716338493486 0.5335229321302166
P 1.7195841845573996 7.703391897604731 9.11825596123933 -0.36897053003570646 -1.291243745931718 -0.1875401212389351
P 5.5263053928881165 4.83400722460979 7.754450901626043 -1.4687187696251673 -0.448594252506621 -0.9367662673058641
P 8.335733167994707 6.42306760757212 1.5625353684164072 0.7147419962471303 0.27745648388510924 0.006902897767420369
Ni 0.21668345630377633 7.496845425545538 10.724868082956434 -0.9957453169432334 -0.37298916427679635 -0.6467751412888538
Ni 1.926271997724297 8.666188677808389 11.601239487168899 0.2677593112020034 0.47561397562857444 0.09884220438089428
Ni 8.536296199827733 3.066367063432779 10.167292489446059 -1.940434181530284 -0.2942992664740609 -1.3060273319987958
Ni 7.550432550846661 0.4269481417696548 7.962820673974626 -1.3241420393216357 -1.2956439318819428 1.2889086700406382
Ni 5.642318174092168 0.5056186023181127 5.812604056106735 0.7513920433699963 1.0902536698354641 -0.46122685366896693
Ni 8.962807126437554 0.7593899652836126 11.031182531574144 -0.7594447384711437 -0.7738588570139446 -0.005046304174655825
Ni 2.794294853841669 3.919954281083241 6.6769360247649105 0.37302644527263495 -0.8953542800179806 0.7519142344220534
Ni 3.0011805445593533 9.353417411690373 9.233495135447209 0.754808525250713 0.5681662332356989 1.5254000243672956
Ni 3.959265954506186 4.298795563434511 9.53266526220747 1.5332166921982369 -1.7527814459728848 -0.7393975900122814
Ni 3.7701798206187855 3.109004964257042 2.1767783811018173 0.6327826836645037 -0.2690219799645109 0.5753293266430414
Ni 3.3074196112529552 2.1472541082504 10.924687660562933 0.01624063022857848 1.263948914771507 0.1646932985477486
Ni 0.49125928804936253 1.289888371653965 8.915871513665016 -0.009244144306087304 0.2437315808288383 0.09803333532635375
Ni 3.8770054298220273 4.4413522046655105 4.272575845681231 -0.4624339866031907 -1.8737783320739472 1.5426050753916722
Ni 7.448836562628496 0.31155160779519736 0.7267373425816637 -0.02382718432658477 -1.0055579321582813 0.12563361354212557
Ni 3.359301220521108 1.8819285808670634 13.804234759201844 -1.7419157069029743 -3.7779028805399193 0.36454283328165604
Ni 5.179510851023768 0.138458691381614 13.114774720366226 0.8319861001739801 -0.47387179612648717 1.1181123439189453
Ni 4.238414642223046 8.789343896321785 3.897139941751593 -0.5402409675803406 1.0889357223549891 -0.17216929520981963
Ni 1.9860404408023742 1.5882406045376425 6.036751265171373 -0.6621770776662209 0.20481176383518918 -0.8831695650263305
Ni 5.799027771574669 7.068025927509873 12.909493722358018 -0.5090527149029943 -0.462118769355617 1.7383423877294193
Ni 5.328305346474805 3.1698475997536755 6.058320860481167 -1.819915006396588 -0.6270606935790619 1.9570255102300618
Ni 8.107241133279226 7.357181565652229 3.726378211341087 -0.0907645695790824 -0.6712610422453601 0.31789093775107186
Ni 3.7867826894038354 8.377928200014829 7.308625241511343 0.6119791166555912 -0.65219399831158 -0.8571844538164786
Ni 5.658949311098758 7.663665623599186 5.515488086778448 0.19365728988026648 -0.44046159609715757 0.025736742644471802
Ni 6.160785625374692 6.9779539509399 2.039818847735925 1.9730370551669698 1.2485220386934757 -0.31038948716770415
P 7.425807384813137 8.721679196693268 12.51054336947657 0.4461051675361801 0.7362778134363771 -0.22879167168955433
P 7.720465903415463 6.1570165291692325 10.30991980123091 -0.8053931801768001 -0.06689213383685898 0.6056616590779955
P 6.0132820453740266 2.5214405567879274 11.111543431770752 -0.6935159969888186 3.0655196143329526 -0.9492751984061523
P 1.3107314736701572 6.201048995589515 12.025164813781775 -0.9117571468560363 0.7281757531545331 1.8722351559565433
P 4.284048974530649 5.882758243778956 11.888591612776942 0.10376046761811808 -1.408070045594859 -0.417570550431597
P 5.770382640413175 4.6878887874646304 3.3127679587685024 1.211420762965804 -0.48406801993319865 -0.13424423802927204
P 0.4979390687994885 2.6682091630285285 11.547177455745889 1.8633273119439524 -0.7996477930525906 1.6519039563295164
P 4.159141126281715 6.919457577831165 1.2222057688184733 0.369377535666138 -0.03530973104488758 1.2176358906375804
