# total energy = -381167.71529678867 ev
CRYSTAL
PRIMVEC
9.23360695470351 0.00000000000000 0.00000000000000

0.00000000000000 9.23360695470351 0.00000000000000

0.00000000000000 0.00000000000000 13.51431712550780

PRIMCOORD
 96 1
Ni 4.7245041684476 1.7161858529429008 2.7730700226773624 1.1493527899904656 -0.501888078833755 0.7467033796450754
Ni 1.1550688038395982 0.5507098509258711 8.28089798686999 0.22497049817125123 -0.5474408277628895 -0.9504231959676662
Ni 4.570792316739942 4.496249409379101 8.469746482375518 0.08427639075157743 0.30053033498543724 -0.64352449556204
Ni 8.540172124482774 9.069839508966849 6.915492237876634 -0.17635556537702532 -1.8864281596274737 -0.775471195806387
Ni 1.2715784539175239 3.7982810745090414 0.1245567383679014 2.669084046107758 -0.538620401257782 0.16132849584057377
Ni 7.970200046498133 6.155316170914326 6.456991954122517 1.5532730966284798 -0.402312595831262 0.8237053482224267
Ni 0.22315226797378854 2.8646987959840104 8.971276296984618 -0.5544072317783936 -0.9184672118863602 0.6484047064724768
Ni 9.02595217604401 7.317347114249784 1.822000216312532 2.462418002672649 -2.6292383748657295 2.7603165564621945
Ni 1.9400177143741102 4.139010397502031 9.407099765900695 0.6354931406171314 1.28629257257403 0.539250064421981
Ni 6.220080688717985 1.5078849180793783 13.069290403839876 0.24174977451211915 -0.008234986315282591 0.0928168241224208
Ni 7.68457688863948 6.607642865189755 0.15291868488710864 0.2518734932096824 -0.9279715518323696 -1.2200131326205053
Ni 0.6602065766707661 2.867893623922429 11.41754312238206 0.6403070170660069 0.4645245505836323 -0.31703373195709916
Ni 1.4514398799650683 7.901040331877459 9.712536397141596 -0.2758132918547314 -0.09530642331349391 1.2107946993460308
Ni 6.260976333051092 5.2418077534821315 2.1060167265952168 -0.3871837106096235 -0.6891173537004907 -0.7625699143636867
Ni 6.204337389194855 4.156157205252444 5.239892703440432 0.15522829648010686 0.6303218808288369 0.7584620628429002
Ni 5.782887875919632 5.800477896794449 6.852920701678104 -1.0797921081825084 0.42174165109015105 -0.03999119568095693
Ni 8.302295947171986 8.994613314705884 0.8395029059846943 -0.9077511110204367 3.5283125269374587 -1.0411057473559038
Ni 6.574438815286424 0.5115094967936136 2.026417496173457 -0.8204061086458645 1.6741198303049234 1.0864160412569288
Ni 3.2709405589280918 0.8150163042220021 6.8532180238157245 -0.7034633380095174 -2.9815460995337744 -1.8040078482480288
Ni 0.01882270737706861 7.730320176520764 4.462535664382705 -1.1113372299786408 -0.18720536360733567 0.4587028016955326
Ni 7.565130951612373 1.9903408712075776 10.986558063407402 1.5742990640608434 -0.9491402154901848 0.00725822422431008
Ni 4.859647236964047 5.405842777545719 11.634975170968998 0.1124525960754773 0.4007200545331615 0.6025436822743042
Ni 1.0459645063819367 3.037182570231566 3.255936871306312 -1.0296201153138074 -1.774690844451466 0.5842734232102067
Ni 2.2216150196860855 0.8094050413949014 12.129734905102811 -0.36729699898802554 -0.3882232076177314 0.4079140011784394
P 6.970080397671823 7.85579565876113 7.976244365482204 0.11784291385311317 -0.3602863719981472 1.9251327752865233
Ni 0.7556072783382348 5.929480616816537 0.13473032629434448 0.1615976903415604 1.1604255028648596 1.446105917321658
P 9.142997375313925 1.1780050830275492 12.672834417338382 0.9656310140563563 -2.4388163040933097 -2.210742998627018
Ni 0.5636719880933615 5.729443760001813 11.33761979236308 0.9432557316849497 1.1082364795661301 -1.3591303824713625
P 3.2104327338400713 8.658694700834038 10.653241479920084 0.5113682504100484 -0.18194282965681566 -0.18259151898440812
P 7.056285350368567 3.7613374138685454 7.77958423865904 0.05424719137933884 0.429627481596131 0.5025151708947926
P 2.51926033354422 4.425640018497353 11.833608519556439 0.14113762271499564 -0.134718092341897 -0.03841896609783061
Ni 8.512268164858785 4.40601860413568 12.55184092781856 -2.898963551544852 1.2372266682853144 -0.2924413873297157
Ni 1.8533787821597199 5.362287854466184 4.865194787904514 -0.5566289220200606 -1.4125715330096384 0.698947452417035
Ni 1.0648934002367274 6.890283568065433 6.546970681901434 -0.31673059889438354 0.8153232948063184 0.5990444108717942
Ni 2.1630554856240938 8.180476973207961 1.0856939461814525 -0.01376748609773758 -0.6170465038761695 0.042566926827933144
Ni 1.654957806527722 0.6300320731448781 4.708144987353682 -0.17132443071102108 -0.8176321454451532 2.2539516728040088
Ni 7.272822662460613 6.146350338751886 4.205074083776601 0.24434093227806306 -0.3625635980680982 -0.5422906510205177
Ni 6.629960492724891 7.923191754490944 5.916825035393427 -0.21295367621603323 0.044527392988413635 -1.0584748347619708
Ni 8.184105780664025 4.6671173024439305 10.038691395227072 -0.30931425182565436 -1.9044729329443266 -0.2695112608961036
Ni 6.247966181128458 2.9691493556354205 1.5228876823404824 0.5453741750418478 0.10001899829781484 -0.20280090405274748
Ni 4.231651174109404 8.51607241084326 2.654658249607199 0.46839791749610943 -0.5673920740738357 -0.31377974379617574
Ni 0.15365460334575587 4.3923343989196795 7.285216932812459 0.10431171213589778 -0.21222014048411839 -0.09617699884390533
Ni 5.826996815404673 2.471614922670698 9.384097928104758 0.11982446305951622 -0.13776176426422726 -1.0317081081910875
Ni 8.040569363604162 0.8113985770940474 4.2650241990164135 0.2825724649554359 -2.0951593131217274 0.7343888239437804
Ni 6.174937585275999 3.4972839613975957 11.512022310095036 -0.7509415860961389 1.1162796615855808 0.5999142150712572
Ni 3.010876024576786 7.6158326863229355 8.097738316488334 0.5523999715403777 1.2671607368405855 -1.0223711470608778
Ni 2.1595282478423723 2.4385401432619855 7.445415393267918 -2.000208730485755 3.1807837117152964 2.860478765206093
Ni 0.4706840278718716 5.9411703629727155 8.928219988670037 0.7236099881607216 0.5908217658516857 -0.9848029589991169
Ni 3.087321054929865 2.9486138142046623 1.7404277641264945 1.4145762221444929 1.1927612388830877 -0.04984623409816577
Ni 3.4411066978792806 6.170431585177884 10.047043192540075 -1.034239873474006 0.27338077115383885 -0.5393829904554195
Ni 6.7176058880759495 7.494032179572427 2.0153630221622594 -1.1982556863387557 -0.6679965125614753 0.06248963389378916
Ni 5.311881595171891 6.849609530294528 13.529047381473815 -1.1334664577775122 -1.9456164970621717 0.21203656371840257
Ni 2.331855050775034 2.9109037642032165 5.381589786034016 -0.05806476535321613 0.49294243960469303 -1.9720847185560293
Ni 7.637780969587735 8.668602360885838 11.92616804042434 -1.2023751078237679 0.6572372171624422 0.38576626143680665
Ni 0.21415781163039754 0.7374124562207397 10.35069589095525 -0.36456982986484954 -1.1306726970824594 0.805601182422548
Ni 2.523886370530195 6.577301233381539 12.328205742211304 1.2418973342881063 1.1241312964195154 0.05572146193202017
P 3.3138675967480538 6.951714753829297 5.950354108254653 -0.395304539944545 -0.5258222210518493 -0.5162487184308012
Ni 4.130570880924822 8.763006756384073 5.156752384826813 0.08776794884460368 -0.9050666222097381 -1.3458521773052177
P 2.848872394000054 1.045733666212976 3.0963330551260966 -1.315247050824851 -0.4248382877376038 -1.3100282256280729
Ni 7.244457022498703 6.2142081148196215 11.434409228487016 -0.9359707679877622 0.19485876638753538 -0.049563155640108186
P 0.27993433273478113 1.5054934139289435 6.170934816746218 1.2155162731914162 1.518508696564101 0.08989656515183227
P 5.88952680037279 8.720966144812921 0.10854843433080362 1.009658841700532 2.26562422404593 0.08332662524379843
P 5.232250970487152 2.2283093845859505 4.91672477714131 0.3446787473678774 0.16283439096213892 0.2832805467660541
Ni 5.578963670659607 0.6165057626044474 6.545132270795829 1.0225806919685227 0.44489186395436925 0.8288056455634694
Ni 2.392953826695595 1.8932217953223642 9.96591672356047 0.25799683249860084 -0.9006443247723264 -0.4767411472544822
Ni 4.133276327705043 0.4319822885045694 8.791468425856271 0.6256720407616515 0.6420689940624362 1.7828980628526068
Ni 6.543192290015883 0.13267677215126866 9.922913970165089 0.2364291336301541 -0.3030338181335813 -0.8866577806852471
Ni 0.7361188279138832 0.10933975443000145 2.7272971872544507 -0.622455847817199 -0.45152865254459656 -0.36588134958742147
Ni 4.485427622258216 3.8793429082413375 3.4918693743944496 -0.11683786962736654 0.2096436380061938 0.0705307590307108
Ni 4.822685109110034 6.160994839070764 3.7950225346839903 -0.8926098845036239 1.2624975270369614 0.40012895791638187
Ni 8.34810387030058 7.632536280948944 9.882843810276187 -0.7599221923281945 0.004410470362869823 -0.7663630628575319
Ni 8.849590286957913 4.184301238652152 5.112398754762673 0.6152467316632694 0.6749143227272313 -0.4264930497322074
Ni 8.565813850450947 2.6877644232788893 0.32511806404650423 -2.066038484496371 -1.9140585197502327 1.96911869394917
Ni 7.826054211392213 1.4846623970819155 8.395580306170421 -0.6137565202709881 -0.2627361469557991 0.781617417913441
Ni 3.886000338714169 0.4802574313590164 0.3480857374974341 0.8000954221129704 0.07040786029960133 0.4829719586555424
Ni 3.930774097885817 4.703174536835617 5.785857403853144 0.8903241737932409 -0.26766006661997777 -0.5146363796383588
Ni 4.578844021833297 2.5901467326287206 7.123558639128493 0.5785725161706874 1.3643628345148955 -0.4082677849734323
Ni 8.581981895884965 4.49206658551753 1.7751461255382082 0.07255935942496536 0.893319766086455 0.48415698010257907
Ni 1.9299900174344504 4.879582593955507 2.515758026500745 1.2676369051460556 2.019139763062303 -1.7121623868999416
Ni 2.6913932307349544 5.477467865170896 7.47663329435751 -1.1489208446593697 -1.3622097927276346 1.1369009373803582
Ni 5.196895490209107 7.5339398279823815 9.175436882577657 -1.5264423495888806 2.1571198139849237 0.29951217813356806
Ni 7.415426485237875 2.1552992559470088 6.1880843945786586 0.06655480510209828 1.1775423650508041 -0.12328465369397477
Ni 0.44713740727718787 8.216414170711788 12.850250784316293 2.26327192176367 -0.8602571792045313 -1.5329184442315278
Ni 2.2539880449811562 7.402388632494966 3.969465680285685 1.0569468281532184 0.945040077278882 -1.0141963245595695
Ni 4.7672465341323935 0.9064243943271237 11.223261572659867 -0.8622323006530312 0.46184263287609495 -0.0762594339843719
Ni 7.522850266265501 2.9838307903813317 3.793631030145494 -1.2168763867637367 0.25101011676812257 -1.8013326154087106
Ni 3.8256956529748334 2.6762501156511216 12.871373583136888 -0.11951155980478773 0.8639719090519572 -0.630983682782552
Ni 1.5213936847669678 1.6400916996466426 1.1823190241050898 -1.4819589224645253 -1.8267173740304024 -1.6767277002414156
P 0.1477423249383303 5.696636755189095 3.4264197229693147 -0.369511490140841 0.41790890760762217 0.9178648024156708
Ni 3.81563102160814 5.027726580787829 0.47291579062538514 -0.36507093787098416 -1.3201694278271328 -0.3465685081914225
P 6.296211776441278 8.203440953216187 3.9172191631644355 -0.7871769142790895 1.1057998451001794 -0.8084594778069495
Ni 3.97422745129101 3.5778194795446607 10.364494592895053 0.061085554457410936 -0.5811292211542701 1.7625488097722934
P 6.025593229565081 4.458225416747868 13.422770414405585 0.11011854862566196 0.7230188915439418 0.2867106554935256
P 3.3998509428825954 6.4991756865984245 1.8779226322843143 0.2530202052196158 1.239039553124337 1.0930500016336788
P 8.53871321461494 1.7747269197913753 2.3537617828094195 -0.07771776369745324 -0.14461606818189932 -0.7246538560442035
Ni 6.371003991184597 5.826498200639717 9.10518944908084 2.125897108525216 -2.104036561006699 0.4081047770330069
