# total energy = -381175.35380761896 ev
CRYSTAL
PRIMVEC
9.23322072621236 0.00000000000000 0.00000000000000

0.00000000000000 9.23322072621236 0.00000000000000

0.00000000000000 0.00000000000000 13.51375184107362

PRIMCOORD
 96 1
Ni 4.196969592891793 0.9378920677916506 6.902743612015887 -1.1042055040298662 -0.850415253413445 -1.1912874825510387
Ni 1.9043886525655072 7.538056582109416 0.523910471966637 -1.0718985643670444 1.559570242491101 -0.9132525004546401
Ni 8.718616150006406 3.3818239578830505 4.2198578230877875 0.03248383156031825 -0.1456277972758653 -0.185510492403416
Ni 4.515192536013721 7.3155175026048544 5.335958432315902 0.9543695822099241 0.8406679442186942 -0.1376704901020016
Ni 7.915695298885475 5.972157791573501 3.7803777656429998 0.25463768621838084 -0.5247714111898316 0.0935156499616583
Ni 1.931682052242525 1.1788883549938978 5.15830665407312 1.384649095567757 1.1067907482585388 -0.18870431675036534
Ni 2.849593430960743 2.7866136342094103 13.517805927544366 0.12318026690562657 0.24993102477133086 -0.1715352611702465
Ni 6.461001415558627 3.9708110909672754 3.593982127625477 0.9473880086857686 -1.5663492130861476 0.17616196130898049
Ni 8.640253807970259 8.26211649728941 0.3761300085530464 -0.22664402921893226 0.7921419715938486 0.3831689330232756
Ni 4.229359730262218 3.5459352183226023 11.278023311769193 0.3597731798071546 -1.355126403518292 0.9253433701809032
Ni 2.9998733271526046 8.852267016151478 10.400791655749558 -0.061153688691184996 -0.673430281982537 0.8061346863285148
Ni 3.967856460420372 2.9778151634758805 4.0974502494957274 -0.21351340537424518 -0.14406508077443578 -0.06409811603148961
Ni 0.18103021360875599 5.35754847171535 5.6520586580542895 0.09410391836496051 -0.7362505597428675 -0.09600242093925403
Ni 1.815158810049032 3.7000653674458963 5.0929548429858515 0.3393452509701059 -0.3847591603285309 -0.7555076082002665
Ni 1.4616926644348247 5.13620047765001 0.5956655214422718 0.6978264514387142 -0.4921999050117136 -0.3279192685213514
Ni 7.781647404260663 7.604434203989687 11.597920237760352 -0.3774574844607951 1.0981839804261344 -1.3353070547995196
Ni 0.972784407906485 2.8338507900780248 1.517864807741683 1.3453083889866058 0.34118873193674787 1.866269939512044
Ni 3.932170063346057 0.22723786539618357 4.162573076715611 1.028773451042796 0.26516712499479494 1.4421294491724133
Ni 1.3842259447832077 4.688149221653064 7.734176647914434 0.44698885569271407 0.0580591089262613 0.12402178897031546
Ni 6.035719281213756 4.565125792256384 8.29609197861266 -0.7867922772461611 0.7947889222983926 -1.4300668615809242
Ni 9.215123346972563 0.9713255590739515 4.261115545387106 -2.1605496656020793 -0.9091122530340214 0.1497104519856712
Ni 6.287970864155611 6.819065704961452 7.71964909884413 -1.4396275086861656 0.6968283491915032 -0.9713002965269918
Ni 7.20736879136774 3.82464921110016 6.162175621977117 -0.5017410117329295 1.0827100531602514 0.5253396249884759
Ni 0.07466443724228851 3.6760682274727676 12.682614970918976 0.1505136646132569 0.8896176346445195 -0.4321474198045074
P 7.727503799488662 1.7511448926062834 6.009281801073294 1.143037132185083 -1.0164033595132171 0.2648675914765052
Ni 2.184256797900449 2.1563355392322143 7.229830446778525 1.0062004508382865 0.44666232559123076 1.1725225432387096
P 8.448793748530935 8.665922160846481 2.665654752907379 -0.4711425701207821 -0.5045378577517762 0.6128779743207767
Ni 8.14667354188963 1.77138411185257 2.202754631768155 -0.32254592002458 -0.2366340505521086 -0.5621686208913673
P 6.4218248611507835 7.775738143166857 13.225436001707841 -0.7473315001473775 0.3471809449644408 0.8202837241353874
P 4.878510527857759 7.593345106218341 3.0429186009328 0.0927170653197629 0.4073571002337049 0.9396047651959237
P 2.6295934870824267 1.670040284093792 3.078945703842054 -0.9002987685074495 -0.3371708690266064 -1.5076439859354551
Ni 0.10936472637157418 6.6345674937482695 1.9240609520756067 -0.5950162635490075 0.39881306731843574 -0.7140130885009057
Ni 5.896750080084257 2.1654302613844005 7.877341424420534 0.9171214964917431 -0.1805811734225987 -0.6162324926153064
Ni 4.54207967399054 2.166519781398571 1.782801912272259 -0.23448743652275103 -0.35844494791403425 0.4495023661431871
Ni 0.9190507581228675 4.825696506831865 2.9597143580879153 1.244090228174367 -0.1825025588150276 1.8136181176442827
Ni 5.58856364760134 2.0430162245380195 5.391554422666113 0.888357022764541 -0.36992003843316934 0.3686712536277328
Ni 2.3523568095783203 8.998918256702925 8.085101811258305 1.6806792286899959 -0.14992153955521278 0.37997099491126823
Ni 2.511029703167478 5.9749554573726 5.214727171010328 -0.9785891168789213 0.02941984792301385 -1.1762218464671679
Ni 2.9664583023112217 6.539031361658248 12.194471225044648 1.127637252690245 -0.5474670530151345 -0.9411134885309663
Ni 1.1998846983178284 7.057753687048932 7.432103530697469 -0.4451785419568527 -0.33421924259745023 -0.2699997704967479
Ni 3.451008478782879 8.787265144119608 2.0307517378022335 -0.7098705270874419 1.5618767791370907 -0.6683446399295134
Ni 2.6751501968274893 6.484416862642835 2.4653538848784935 0.977029485701285 -0.2099745389830513 0.3963774612937496
Ni 5.677230263669812 5.927210474378736 12.267053571073417 -1.012215803794431 0.2844982212232391 0.27412716240156015
Ni 7.044587114674295 9.038224076197196 6.741754103413548 -1.2548258694243164 1.6614476341538933 -0.9638556673234883
Ni 6.817339092735606 7.222188110204551 2.0024537637392688 -0.14046296524547422 0.05277806303298007 -0.40274685515520314
Ni 8.470177887114147 1.742013237572261 8.5784078506913 -1.383408795402753 -0.017574261438337475 -0.5575421778629495
Ni 0.8918395341079355 0.5571389857547465 9.620223508037993 0.2478083220013732 -0.6024428950303817 0.08763090904610714
Ni 8.539039245297907 1.3663227303130663 11.04466751449683 -0.329146198949917 0.6366797047260648 -0.3958593840067505
Ni 2.277927819457738 8.339887913216177 5.885143921967202 0.8225915463329576 -0.7511344188332354 -1.1656983212280247
Ni 0.22752317190836888 3.0927687581913315 6.676117909136141 -2.0925061917695964 -1.2003215677288488 -0.4066945269490415
Ni 4.455453599643523 5.4113781469917415 10.181314312149224 1.7396027424990814 2.479356173188885 -0.3925768566007368
Ni 0.5545684571789409 7.391617705628528 9.803416141878266 -0.029745092472916512 -0.6536268741033646 0.7300986812088587
Ni 5.370133351201066 2.358681565592785 12.981431531280027 -0.3698071670043889 0.8258679030913841 1.7702253524809448
Ni 3.5396289287490554 5.8857902473993375 7.1851398131125235 1.1002516615884406 0.18586556174998958 1.0846139550511837
Ni 0.7296838697616151 8.494747486755738 11.909939380055828 0.5778366664459275 2.437159228105861 -0.5665063290347727
Ni 8.27435974761814 8.022218963321793 8.255915466429098 -0.43866053833267676 1.0306732391686702 1.533586931053462
P 3.9318192009686124 7.436814319775688 8.81796652546807 1.0771415579335384 0.33334043953692266 0.0029552259735820072
Ni 6.604716492004088 9.066394631817825 4.143532329484912 0.3044579521746176 -0.2701329536405025 -0.3604864038240953
P 6.761339610651333 5.904524451710796 5.6686128990153595 -0.05052089156768719 0.9116566167224298 0.46992412433264874
Ni 1.1187708565848777 7.436398824855029 3.828837399900395 -0.8980302841882468 0.8250153252831016 1.270946943355895
P 7.47561231214471 2.6745408042771905 -0.09182068417729083 0.9553967379228577 1.4928043498194612 1.593204899826411
P 2.533946556346896 0.11654724856668656 12.559789132440121 0.27226928325721494 0.1941234308834076 0.6127692166570543
P 6.198030063663787 1.8476505128445078 3.2791256166829266 -0.7522510489361819 0.018311910935310396 -0.8250292092401726
Ni 8.263760010531126 4.241455249063604 1.7603550300142081 -0.757585830885534 0.19258796807548767 -0.5879547287165358
Ni 3.558224634753627 1.6968812559683153 9.409665455401125 -0.81214335441644 0.16378698468339534 -0.43193787489686253
Ni 8.492947008766219 5.773846682553544 8.0060866805357 -0.14923608345241393 -1.264950102342512 -0.24335542843634214
Ni 6.130932250587709 0.3731476783447661 1.5260537509668344 0.10676300188986775 -0.6461431641318098 0.40450420416594207
Ni 3.395581456367068 3.901331107012756 8.770897414211811 0.6848228400901948 -0.3258880970239355 -0.8466455019583676
Ni 5.136671371893422 5.47599222376433 2.7328051953400747 -0.6450689572310245 1.7854506540711315 -1.1253654259369328
Ni 1.2622458692984029 2.8726303160061284 9.492667490717956 -0.6060352403673305 1.051569365891389 -0.48100352207526187
Ni 7.882566503878323 6.027917209925838 13.405776493748304 -0.07106040628193568 -1.0889004982416794 0.5481052008197658
Ni 4.805263389955938 5.005956669854334 4.959654839218224 0.29418896614844176 0.23539992103469137 1.5028902733005536
Ni 6.021943316288819 4.5309998094396535 0.6616765844703179 -0.06927606068800328 -0.6364580756335619 0.6458652278800748
Ni 5.237922867447609 7.917237246702141 11.080398231029347 0.3213267029054982 0.4728053025351857 -0.9003383634961334
Ni 3.348399699821208 4.2308370455356705 2.1331998587279166 -1.4740368394039711 -0.6901802477473662 -0.4273340575762641
Ni 0.6252607629797364 6.336962331911449 12.130307729430463 -0.695688322049789 -2.395116549212514 -0.6234655200286359
Ni 7.811664603973107 3.930480384002047 9.606682990234765 1.9521095609856833 -0.8360592418020892 -0.0840863862279584
Ni 5.254237967998789 1.3956474384910802 11.00365354921763 0.5588799228377666 -1.6808466075057955 -1.074822937102691
Ni 7.152754292352327 0.7429658573919906 12.795292576791267 -0.6402442821488716 -1.869147518170155 -0.3506383073854219
Ni 6.980887126727154 4.089448740645896 11.849600284355791 -0.2444196080347984 -0.5811621312747346 -0.6177455868257232
Ni 8.56529852428351 7.4181724476688204 5.723492391457948 -0.6158362856181523 1.0855999731135368 0.25028455145600764
Ni 2.1234652743979168 4.351570636258501 11.412876343218038 -0.7814387262437317 0.651526025710278 0.058958737922395234
Ni 7.019768218080308 6.106131820434641 9.91839097300077 -0.24585351226784755 0.47032830174960294 0.7109989842649304
Ni 1.8407994632638758 1.9719019605622443 11.54813563636708 0.0681810278516116 -1.1702705139797394 -0.15237488619171177
Ni 1.0860390900574663 0.2617793431335732 2.0721987411209635 0.47007093432315816 0.45534699784942223 -0.204743372491099
Ni 4.598282286924913 0.023488389525834135 13.131190673837999 0.19089258265093575 1.4025028359197265 -0.40186393832961764
Ni 5.2415699895289425 0.10541660130327485 8.782938457012488 -0.39168699779661575 -1.723034810838071 0.08891337530295655
Ni 2.4379025971316253 6.0390801734608575 9.473328510466429 -0.9954663522502338 -0.010219106624846916 0.284875916277632
P 6.962485318352223 0.1500776886638078 9.960675429415138 1.6161761639106038 -0.6128972575944863 0.9560731951645922
Ni 0.2801829981525962 1.4896046898826003 -0.11952219219859968 -0.20043060404835805 -1.807937779430054 -0.5797979039373563
P 0.45397067363325583 5.0058089383269895 10.112177803995781 -0.10322105017488029 0.4031993693115895 -0.02053334406666141
Ni 0.3580559795044123 0.28775331560698963 6.9924341922332705 -0.23046443140628697 0.4865874439209426 -0.9810514623764848
P 3.8391730668822808 4.760768500563668 0.07681762425334418 0.08620934610823217 0.5834097896583307 -1.0143624178237884
P 3.610909390693094 3.693722144990514 6.290557089206197 0.1241637138648184 -0.26326527998639176 0.8219855373178425
P 5.812690841024863 3.1090469258606763 9.745644804787895 -0.979650725374216 0.03131577939414607 1.89517428125122
Ni 4.183876886280829 7.261549329021577 0.5446501317618053 2.0011155585707407 -2.500355658258688 0.5336589434874487
