# total energy = -340887.9758329239 ev
CRYSTAL
PRIMVEC
9.12240014286020 0.00000000000000 0.00000000000000

0.00000000000000 9.12240014286020 0.00000000000000

0.00000000000000 0.00000000000000 13.35155471541210

PRIMCOORD
 96 1
Ni 6.640003511955693 1.7506615714595324 11.231942435611591 -1.5866694127007384 0.815368289111641 2.276398688953615
Ni 4.929936621244201 0.1687561929496792 6.378531804897539 -0.961035424265874 -0.10269551668871345 -1.0183391430833493
Ni 2.9999469072801785 1.606336078400039 5.153059582475699 -0.18037317117685064 -0.4930607103501122 0.4496702591796191
Ni 3.0661572877002405 4.656164269799383 4.715475378972311 1.2131189766038333 -1.227320464915196 1.0641927110823541
Ni 5.258607576900637 4.590264050985036 2.5827777231129803 -0.6417062114063787 -0.13499808547616104 0.23439230570578343
Ni 7.321191377307977 6.12752531531223 2.4381539275679898 -0.4329328918202803 0.5809500152639284 0.08848065864091213
Ni 4.913835584947505 4.369328641313848 11.494486936929512 0.24890052662428747 1.2407794186335792 0.48614187174309176
Ni 5.497149218896256 7.819876504897274 12.722883800845246 0.07999216155392676 0.23437919307966085 -1.902604769387336
Ni 1.922472856225508 6.637777646314676 0.3706394698697929 -0.4925652587709323 -0.23885599790409182 -0.25343749526269255
Ni 2.9703264739343616 1.5762960146464893 0.446490402787502 -0.7228875081724002 -0.74226205604427 0.7318853407956363
Ni 0.570380807230437 0.00839078367461741 4.507738257864329 0.11776320965511332 0.2687831244808274 1.4637830228864468
Ni 8.559630179328753 2.5084137414226717 1.3027535476859078 0.6811456483489238 -1.8749163023331321 0.2644675278246091
Ni 7.087603198603635 0.6897629215102974 4.751351042113394 -0.6162687451698805 0.23621521784713512 0.5363884266034697
Ni 0.7311567245130632 7.738294880193965 2.638040311091307 -0.20920320803466552 -0.7875332691772438 -1.0720584869836762
Ni 7.807296715065465 3.9846461486252833 3.644133405310637 0.28172914311853414 -0.061490503205313456 0.8731558895440705
Ni 7.973370010125707 3.7856501113583727 12.647006412967048 -0.8137600640842567 0.04085225812967158 -0.6591249211034584
Ni 8.263991434681003 0.09423165701641169 6.805648054208032 0.8257110657985457 -1.4422762591629226 0.009322562952506525
Ni 7.24588596392032 0.49322628332870655 0.4218252572129961 -2.0405943333916534 0.9895358456984118 -1.7107721914206344
Ni 1.9456893646533198 6.31605795958633 9.39665053331257 0.023040683869547416 0.5428740343278134 -1.7632887732621116
Ni 0.024844856857817475 4.773742885566009 1.5073771936165183 0.5489382382440223 0.9419053883046423 -0.4344393011624776
Ni 6.018412286901598 2.2326891963418807 6.786021210246368 1.0314980490628105 -0.44133422851009796 0.9395104057099045
Ni 3.4466982107124884 4.359211899527426 0.8404230092465188 0.19250157900926848 -0.3866946867883469 -0.7297981192493045
Ni 5.9308828572886885 5.8828351756033115 4.823903315130319 -0.10574793036179206 -1.0356208129819326 -0.15143360532436503
Ni 5.329287933403068 2.8691773008704806 9.495625838416395 -0.0742424035543431 0.7228898221652453 -0.09678969272723977
P 0.24607765677448584 5.614463285058009 12.518283873155072 -0.19567612008250818 -0.5832156713696536 0.6519266035828063
P 3.920643389045901 6.102675897254328 12.767691205990914 0.3078142702413602 -0.20860568365998264 -0.3424696555317005
P 2.4742138631924684 8.584251537382452 1.2502970099992885 -0.14027553182501648 0.3574725566984359 0.1904799205935494
P 6.65805674188836 8.019283050171747 6.049242350509705 -1.1513423096166686 -0.4767275204077273 -0.1710711770496344
P 4.650772931300036 1.3618101418941466 12.369921718021196 0.4919566786526559 -2.236566901668658 -1.127910818066606
P 4.296723458375948 5.983564718259459 8.520935694535728 -1.3071262214899295 0.7407723588726209 -1.2356238425745687
P 5.024417319785201 1.2063370758292364 4.150864489848197 -0.2582038063030843 -0.3794380052259336 -0.3346411606262172
P 0.12048045126009957 5.810120523863395 3.5674021607767066 1.3059887654513764 -0.8856432233778037 -0.20387588228448117
Ni 1.4753566567864744 0.973323608335485 2.4495158769773573 0.31409393260248486 1.9440843766883615 0.46111886733619295
Ni 2.0845322952117855 6.791289396343445 4.714980944883201 -1.2363146979940063 -0.34365416275810495 0.1313311781475351
Ni 6.1446571828279195 5.736511876907005 9.411925080154035 1.1844630034300376 -1.1024507261222887 0.4471755177822234
Ni 8.525402933898047 2.461387768556121 10.034507910106402 0.8441422759205398 0.6044792087341203 0.803791382907319
Ni 2.885442540370201 5.160532652693405 7.120423769928421 -3.05793614555874 -0.1751569170832338 -0.09945361271264806
Ni 0.3441972807425413 0.23211034987710957 9.438467615683138 0.11266162676248984 -0.3657214269707895 -0.4752313954781751
Ni 1.4665352958239226 1.1281854735891328 11.579535985936715 -0.8253351705163656 -0.20572681945029084 -0.05080782668048669
Ni 4.1237809959891285 7.140467507577768 1.5808371454501688 0.03738923928173561 -0.46074837137065167 -0.82544778483483
Ni 5.831476062656915 7.807442673468155 8.27349150221606 -1.215447881847326 0.8436964466323728 -0.6206018253275958
Ni 5.384341618417545 3.4417538698213788 4.705582135990008 -0.41897977207429776 -0.9159729847095966 -0.48260043424873655
Ni 1.2068661750389862 7.121885178435352 6.976027122147617 -0.7854812717442214 -0.04059694758575589 0.4734488496564556
Ni 5.03430600156742 4.631114158937783 6.8843287556578865 2.2264645231273335 -0.49473861227316734 0.016586700714087563
Ni 8.092380842718725 7.2292558284138755 8.823428098429773 0.20388616669712628 2.843894121374534 2.2233920548495965
Ni 4.585839686903507 -0.029459879102858733 10.36171472053586 0.36875661425268746 2.6883614062801318 -0.057313231899172264
Ni 7.932045537364218 7.203457680738492 4.470727768142334 0.22664968564588708 1.330958805133153 0.7141583558295185
Ni 7.10965203980993 6.1616430919409195 6.965759860758421 0.3804646467182351 -1.5962801963176252 -0.7833781093582896
Ni 2.2275988970480816 5.55980186325076 2.5466484572472243 -0.9210758531538007 -0.45778054699157933 0.13553673158845045
Ni 2.213167259982149 5.28359383096106 11.494527075490252 0.28916065969591487 -0.5484075625515329 0.8660205640508697
Ni 1.1474884723448302 3.4397378193842285 4.108179867221645 0.1897564121639635 -1.5367473310593145 -2.3501009037337717
Ni 3.6512224224812666 2.493380025945644 3.048787325540163 -0.40232545134706843 0.7185073768268335 -1.4006285017151492
Ni 1.2171744872289378 3.4418177266225554 8.332278073379324 -1.4892240886673707 0.6723540181992227 -0.26436468369815763
Ni 3.703648856247331 2.698241766520642 7.480182040877706 -0.6106963932884256 0.28490676951556737 -0.6926947866391038
Ni 4.230996565164795 6.876264553909286 6.255110291823245 0.15678432811331708 0.624909194453698 -0.657214591454623
Ni 0.5030118819890264 7.169102721705431 11.052483842784698 0.3130708906546092 0.8192830507850147 0.290446468386874
P 8.992542801706056 5.656681753035971 8.07028091607149 2.5601839432702294 -1.3078800689368184 -1.1885667411857659
P 8.37878771839636 1.7171914852427772 8.032001500486112 0.7544056333853394 0.8246749112245474 0.11559885501394285
P 1.5058254733479248 3.33142756218839 10.518501412224976 0.7631597254288857 -0.7545624706781779 0.5147119700713007
P 3.996824552849695 6.2162771465476645 3.592395712757264 0.8475510444917725 0.6613476397863901 0.5944945867175826
P 6.86851963616657 3.991916701559258 10.618050516299371 0.761714765452243 -0.15583379127458968 -0.18644251729938216
P 6.426895121628733 7.767659886335076 10.537634734337546 -0.24616307308846636 -0.6915007663310027 -0.559482846529088
P 2.427288236727767 8.595572435991063 5.862107257941357 0.5106699387914431 1.244300287302644 0.7440042355463574
P 6.964532897935812 3.9441426918789237 1.3635807997667748 -0.25826576988927136 0.7063766550015705 0.21303646573782664
Ni 5.245325362255885 2.53212285945956 0.6004272566641045 0.6691280550627573 1.7380474821968197 0.20444461030375755
Ni 1.5270076865382507 1.267521013756676 7.297305284707826 -0.3031379478116134 -1.1925285540469914 -0.8576405675172906
Ni 7.0347115224289976 0.5243984369431174 9.399881687452112 -0.6793304495170559 -0.25163849438074076 -1.4995537527281528
Ni 2.675526990102076 1.636303162952244 9.434021357841205 0.4429223989328243 -0.7394297288017975 0.3803777434313836
Ni 6.521375820169734 2.1583051453712017 2.6274254862557065 -0.45292861821591673 -0.004514085820269645 0.7940584718902711
Ni 4.176563203361749 6.920307501920869 10.502706888573929 -0.5036081468486552 -1.9305428905585007 0.8544328592132704
Ni 8.277264526925586 7.1024544660773 0.3049563641794469 -0.011713688892502407 0.5714593021646739 0.3402297104575882
Ni 7.713883337344131 3.9404481198108434 8.084433407692279 -0.44942343327613565 -0.8943829172436467 0.06608223634105394
Ni 3.1964890189018704 8.42657997287703 12.369320551850118 -0.6772041472026724 0.5058864013598707 0.048708778059612885
Ni 9.092469573147413 4.899267111879051 10.199146251620201 -0.6034258277689414 -0.11470051156938955 0.18794275599399246
Ni 8.87289340110127 2.325190334046404 5.776242666359125 -0.4546921378742427 0.3310511292821137 0.1960849254851526
Ni 3.276136694769542 2.8127370110304524 11.791478533522191 -0.7671963573921046 0.8840959334953418 -0.7483612269634724
Ni 1.1649487462665715 3.192192368422696 13.040156317491643 0.31670925873814487 0.2148418943776816 -0.5656956602080193
Ni 3.2952207559212057 8.168790066526721 8.09339160465735 -0.42628530459677544 0.716916892411262 0.6526241438704631
Ni 5.503580511014766 7.823352139361319 3.5436629388192626 0.7773776688004805 0.9376931499955077 0.1628423613819389
Ni 3.163721357498059 8.605114466566894 3.6268701752325265 0.2447443383640688 0.7700795924771705 -0.2803086086219237
Ni 3.261823648905795 4.181772093857734 9.38046830765438 0.8397593163614956 0.29593808762906454 0.9577832358771635
Ni 7.171775584954684 5.955285277738353 11.70082194513166 0.41920577204217485 0.4694374145042174 -0.7312399939021536
Ni 0.3980878597355858 0.10348359526689763 0.48076417245906655 1.1308390474569945 -0.22047132474931708 -0.6369897797673159
Ni 4.96889839236215 0.49737971212524196 1.7641545135481675 -0.7279942332713463 -0.667217982524238 0.4954901457272112
Ni 6.062035604505446 5.686457267184646 0.44338878673034837 -1.108854058545471 -0.4863105361104721 -0.5063173182497022
Ni 8.024327737464708 8.80380034222809 11.529841711020996 0.23389042636870042 -1.0780453006947304 0.18572235130390594
Ni 0.4500727693335145 4.940628074241212 5.641552252357179 -0.7163823600640308 1.0843398754541906 1.492144090527643
Ni 7.530313278761477 9.089304100289082 2.5254863133372685 1.287932679280614 -1.1113449432881248 1.3279768396866938
P 8.690372418537947 1.676578559694401 3.4051675717072007 -0.21824192119816607 0.4703529843399512 1.2028296788626833
P 1.6901983031453727 3.239482890894121 1.845051045998852 1.1995126986743083 -0.06011779122750291 -0.08976543889060669
P 4.8674208128922185 1.1335312000876387 8.406071905059127 -0.046759110532409796 -1.8824285515497774 0.001140541362346423
P 8.492498436491713 1.5274455617463194 12.356449757452946 1.556118793607391 1.6476217840143947 0.7774913115602093
P 6.274149653214084 7.838349365237674 1.2811936671286228 0.6297829776062316 -1.1757027407389042 1.457780782556425
P 1.8936004596934748 3.2337813907890594 6.264723477120387 0.46849356253370933 -0.13087712132925203 -0.9464161316908023
P 7.119413007989796 3.8218842848260617 5.927222038101231 0.15004443828632225 2.038316850211386 -0.6844207195557697
P 2.213723726392403 8.535328105280938 10.125979128831947 0.7830436088370063 -0.3677222594509022 0.6574812148524483
