# total energy = -340859.55294545856 ev
CRYSTAL
PRIMVEC
9.31663804274620 0.00000000000000 0.00000000000000

0.00000000000000 9.31663804274620 0.00000000000000

0.00000000000000 0.00000000000000 13.63584151576685

PRIMCOORD
 96 1
Ni 6.765695814394862 5.676599484468147 6.266351044555214 -0.27050627781952125 0.4824451396177949 0.7259445498311691
Ni 3.5698654368282536 0.06904746634119376 6.466797575964993 0.7513907578184157 1.676551065454235 -1.0395916247042225
Ni 2.8684809905086173 7.410630752057156 12.81388660401988 0.4258423035220859 -1.1925144129796041 -0.5387975502655946
Ni 8.673323994809792 4.629306908518243 5.7896280030487715 0.8999611826623726 0.5436672196530702 -0.08321143982217283
Ni 8.245885967463664 1.640436323873601 8.51524207897464 0.35165929245076855 0.2498127540259117 1.2399620649386065
Ni 8.792036594135068 1.512407086710836 1.1408642280707186 1.861663293977968 0.3152786969392054 -2.1956346822306703
Ni 6.987161612429798 7.045930963908674 3.473171779368097 1.9757158875507137 0.014471197032981529 -0.20467292426447978
Ni 6.788158228221046 3.3659708177548207 0.823836744072881 -1.3133390351688607 -0.3625558847586143 -1.3702462898788659
Ni 1.2473207903207795 2.019884349718827 8.855755875297003 -1.9767911228927633 2.8780849083236304 4.263904627160722
Ni 3.1956999446368832 5.261906617683703 11.620518463415998 0.18716371173612284 0.2478684858153473 -0.21071090292844358
Ni 1.0547086196685451 3.344971116069122 6.698347702795226 -0.8114345012748736 0.7189984575306392 1.9832664462044616
Ni 1.8224275273910988 1.2986647814431778 1.7597731379339894 -0.5242232519958456 -1.1443692207329452 0.15084739380359183
Ni 3.0573385561123434 8.436047862364639 1.2155659619154842 -0.5629263249929983 -0.3769458349316992 -0.012529242815262295
Ni 4.518979283246705 5.269071112180732 6.9463156088226805 0.46050925877665205 0.5514862014768567 -1.4058892358934563
Ni 8.033066009341916 0.12454574627532819 12.811104655961607 1.2561512731039592 1.7496580698525546 -0.7147702783819045
Ni 6.4951127016806876 4.129972386980216 10.433082226123242 -0.3117938237143985 -0.5973608525217841 -1.7903856294789038
Ni 4.87736239094137 6.352120944150916 3.489916572553415 -0.45366781037478643 -0.38822346472804753 -0.7728540698985141
Ni 5.717872190088221 8.229404835129147 1.607979020975359 -1.2826482909532233 -0.2595595490000304 0.7136647040225516
Ni 2.7902119160358776 4.5282307046193315 5.3375456052949195 0.4630037430637316 -1.3150598745147095 -1.3150747869130448
Ni 4.415881368937059 7.786426655870087 10.48133961513008 -1.3827467363387218 -1.4198048175332836 2.374192140355021
Ni 1.4672586597503672 2.0173222743135177 5.107427445700309 2.3659317001184412 -3.9315108678077846 0.06750868437493535
Ni 8.34653360602205 2.1455098943195203 5.805350761063317 1.3248403509402409 -0.8587852226446953 1.3765079545178616
Ni 1.2651714684174074 1.4001229674934261 11.691656583287923 -1.2315201048188402 -0.21810256740682438 0.2443139356948696
Ni 2.579283235395141 4.416822349358646 8.01648332565497 -0.3274760103363457 -0.23657594362066356 1.0190803921247482
P 2.2494742559480527 4.069302441382492 2.7343819637947284 0.7137544355228804 0.22012576848444024 0.08342201317108212
P 3.506661365738733 6.556276429083799 5.4383963465581635 -0.7754377714652904 0.7813183986157834 -0.14663952636983132
P 4.444781579508948 1.1704585281615005 10.442300107599653 -0.6069317840396709 0.7407561609227048 2.3443735143316915
P 4.8340027584457 9.109081779744796 4.179044050134052 0.5908482482142469 1.0246216336579517 -0.2588985183772638
P 1.9837916947363972 1.358281946965266 7.241613898392145 1.813906081198347 -1.7645645546507418 -3.8369382373365215
P 7.848801546192072 8.088723603783071 11.034708772797972 1.8261075083605451 -1.7847806245873004 -0.25130527941103814
P 5.081434026133715 7.085172642480175 13.300044604664347 -2.997906028949037 0.5663708318981729 0.018737685618819343
P 2.1332678322010605 7.569963892353883 10.096508435942352 2.190127636369512 -0.3937307676995219 0.9142061226171609
Ni 6.238113246933571 0.07823180792138978 11.098592958449629 -0.29468390350698925 0.062487062790627865 -0.2287962996752447
Ni 4.997211620082822 9.158879208986173 8.960506561159018 1.041098291156736 0.6889923980868522 -4.037721082517975
Ni 0.8748043430266448 6.958326618322771 1.3274056775080456 -0.12186797585210624 -0.2661742261030706 -1.1605977667766658
Ni 0.7881735860947592 3.3001860379843158 0.659121382097438 1.364090040469483 1.7477587959473124 0.024988294514221483
Ni 0.4854490045050337 7.229366246290982 12.137562050155521 -0.11511960138467915 1.059297330663266 0.6326885812888007
Ni 6.252619252046541 2.235322283072908 11.995067801086272 0.6433889984254404 0.318828876184309 0.7332068878205373
Ni 8.8569083433975 4.0066014687361955 9.832150700631187 -0.9706356663597995 -2.66765605541198 -2.2612536057820605
Ni 7.301765838926105 0.9571541048722044 2.437515684077215 -1.8728553060390456 0.9291185209526193 4.7289102311458295
Ni 0.5034673820827361 8.895236991460926 9.95896411655616 -1.6335575926118449 1.9044950444315136 1.4575031034150059
Ni 2.824487826639997 3.119974312293778 12.71111290870698 0.3098904360440986 -0.4988487777867989 0.35135950182216263
Ni 4.864496114087799 -0.04154102478979311 13.195784905616366 1.4145571959810994 -0.008068378830431265 0.7953486514566044
Ni 6.083214826247489 5.915981177064573 1.1344553129023105 1.3960804773331505 -1.5920394187634002 0.6425824433637449
Ni 7.906928049660162 8.467761697563448 1.3123490590988809 2.4858860038876025 -1.5870139405243506 0.49825690983907095
Ni 6.558083856824271 2.2615672518611127 4.634999374236949 -1.6713440673319988 -0.6491611250225271 -1.3612548850135329
Ni 8.43615034538085 5.55061990762963 13.492447150965239 0.6713361184576696 -0.35219228213610315 -0.4928786762462931
Ni 3.9191741392692045 5.914425298545713 9.175884868030941 0.9707063716967346 -0.3801723122887969 0.899737753797657
Ni 6.066845493567022 1.970282569872039 9.181270816364792 0.6651132774764094 0.6265657562205145 0.03198452332639653
Ni 7.1985654416002465 9.296849298721538 4.467837463165381 -0.6533078002010491 -1.1303371681199115 1.4244682844472243
Ni 0.77666474337411 3.6766341064458703 11.63613128510406 0.18910180929910012 0.6130813485808345 1.089101301398576
Ni 0.57848681327776 7.619304806341221 3.504124445255585 -2.198813594179284 1.0508684831696224 1.1136895322609013
Ni 2.5766559435249694 6.458703281011783 3.4499631028511297 -0.24454636342064984 -0.6734045709509241 -0.34801423949901356
Ni 5.853624920018264 5.504791366107025 12.041402236043451 -0.6887203753723881 -0.3808937638358537 0.8342766959803697
Ni 3.410122364466678 2.026787978356406 4.001246265307207 1.4515836526067776 0.7783462033613369 -0.025199124973446927
Ni 8.165157300601827 5.797249944463622 10.91170027176583 -2.1451204755312023 1.900434758319211 2.1527342833227183
P 2.5794882014275653 3.5046862385171846 10.386938782241728 -0.09122556837590096 0.19868405367089653 -0.2695027762556714
P 5.745104722487199 7.2769556323648725 8.360638995708007 0.19983822187999775 -1.7608945619983225 -0.5901293677703514
P 6.80691262018791 0.9618310570666236 6.958315438357366 0.1769137518733405 -0.3842742502723124 -0.2938701493564423
P 8.124872158592527 5.88880454449262 1.8930914303970967 0.9131794811248595 0.6819573456169417 2.0269566880035605
P 0.3869563042784579 4.962330128019264 8.035656034660738 0.9912988511361057 -0.1593610877015578 -0.2661328313421739
P 1.8175083426129048 5.574526400320625 13.522949823245176 -0.15304028768985256 -0.8744594388468424 -0.5556873840423978
P 6.239147393733532 1.1590549634484149 0.814422281538099 -1.5470376572417293 -0.2112022407425653 -2.6134582292133377
P 8.409532711079146 1.738531203664516 10.902223387757534 0.14469088728389276 0.29734936615429436 -0.7133669702764747
Ni 3.1380020065093177 0.1386157327375031 11.897435026532095 -0.8180358086414751 0.8443554203726104 -1.5039930194464293
Ni 3.8187780499324298 5.971685354694917 1.2245518591097417 -1.8033167357182749 -0.16363271849371816 0.045869765948921
Ni 0.07445763793342325 0.7864695730342826 3.563917695232801 0.24783429014330224 0.24176802934456423 -0.2151622538315778
Ni 0.3109679427483354 5.289567715423206 3.6492105829712234 0.3246418833216603 -0.21370212434628358 -0.5339613052192159
Ni 2.671331617229526 0.33557318327714214 9.260372798260203 0.29789572557606764 -2.0862823223470714 0.2327843377887152
Ni 8.196647536492536 3.71276402797965 2.495303993591804 0.6461693893840549 -0.5702925355500823 0.41774512833624833
Ni 7.888117757866273 5.800603934085117 8.51468308070439 -1.699780211185505 1.3264809718674575 -0.03214933103903495
Ni 7.060791001259468 7.418382194737947 12.97412066319549 0.9379073228888427 -0.284654030074813 -0.7207691762778167
Ni 7.179578133687445 3.573955440838911 7.562709958133613 -0.2859295543531269 0.44550558627896825 0.10121738948129021
Ni 1.5156958598674692 6.2117192119399665 6.558130440013459 -0.38329311730596566 -0.8951295656016841 -1.5856877655137593
Ni 4.9542526030141625 4.0016729673201645 2.593864705274594 0.8986725457579362 1.2437068766930193 1.2382576806529901
Ni 0.9479678999644409 7.463353605579503 8.299659737734078 -1.2356274421189946 -0.7957715979266359 -0.013852846722692273
Ni 7.648419299583371 8.51301260754013 8.928952972131013 -0.6393389967257828 0.013636359836512 0.3276793845964034
Ni 6.712907744407652 4.572140018747414 4.233956313548208 1.009968402521151 1.0668090656592788 -0.741010443025356
Ni 1.533294988742485 8.641209544183969 5.588676509868202 -0.2372133200943463 -0.6983234456797909 -0.9218926926281413
Ni 3.2025663067231127 7.544399038127814 7.562668964927129 1.0884713811240607 -0.9777146846937679 0.4495633012881096
Ni 0.9933678761465217 5.768591966475507 10.382670830448376 2.135611507599503 -0.31448474028300033 -1.5013923485987883
Ni 7.373615749928815 7.928142034016123 6.681357882034782 0.5821815736781843 0.7572497877023538 0.07755578419829223
Ni 3.833237471856212 2.3346469590583716 8.69392587605983 -2.2817717803400703 0.30745842956383823 0.6307751663161717
Ni 5.452720677233302 7.444971879126138 5.460336097001664 -0.8499989918116329 1.242608501422518 0.2589486548889089
Ni 4.356720718669008 0.8320074354563584 2.117223650181122 1.7812756967578354 -1.8254264231331208 1.02501089867657
Ni 4.8537074474719875 2.0668402044197687 6.624973589842303 1.1236746684980712 0.5126717997128203 -0.7068651646022148
Ni 3.5919738184166135 2.697790868687993 1.5441907966934274 -1.3903985964570247 2.50489545511057 -2.4512090213307074
Ni 0.11622598868645108 0.11635642161617592 7.28692536651477 0.08155924893073051 -0.06391531059672217 -0.2769090960220715
P 4.984326709953574 3.6971493429640194 4.9372655772450695 -1.9616455255005767 -0.14118210279968588 0.21348383768789042
P 5.165376933049485 3.967201407321457 8.407723420011106 1.2154622800250292 -0.1825285269569566 1.6096216506215377
P 4.884564151989749 3.5204965729274025 13.150446419244014 0.0032146502825557534 1.058671524153809 -0.020001897043223617
P 8.964571410247515 6.945618724312437 5.469294975946193 0.09498323564612028 0.14110702658737634 -0.3248771392609179
P 8.413892897587091 3.489341735998842 12.974080601652792 -0.8648355426038331 -1.0200952065425077 -0.12665074195273027
P 1.2936337970109342 -0.09513498394994492 13.537363593643553 -0.06709782208976187 0.30525319438240334 -0.23413082451428063
P 9.462909051536931 3.094567840910947 4.19127586395089 -2.5037168614214362 1.7837403562482441 -1.3560142054398838
P 2.331088003404451 8.844181816111492 3.159942688616603 -0.7036291741634204 0.6380346760920624 1.0463052892789724
