# total energy = -340860.57510775956 ev
CRYSTAL
PRIMVEC
9.35075836035829 0.00000000000000 0.00000000000000

0.00000000000000 9.35075836035829 0.00000000000000

0.00000000000000 0.00000000000000 13.68578004952814

PRIMCOORD
 96 1
Ni 5.488090854486483 5.814497768374308 3.7212594962129817 -0.5990863198533231 1.7047228999027606 0.9390756321653311
Ni 7.994505465485665 2.5210485474656354 2.431785275323527 0.28820806597465853 -0.8818439042363715 -0.7798058186259991
Ni 6.701230161418184 6.051165456531437 12.954466436118105 -0.060830501023811365 -1.3052925107153004 -0.4208991005841977
Ni 0.61026881338031 3.7489994552681747 1.4959239990881246 0.78406279413014 -0.09950683454808669 -1.5799349221903822
Ni 1.1712853135618357 7.958112314861109 2.8462997076491465 -0.2990984876349172 -0.22916319609636018 -2.3898517012691483
Ni 3.2502954721593587 6.996845028798644 3.9113547984501023 0.7858137153829757 -0.6154336508630949 -0.7915159079740756
Ni 5.407328356556293 5.91173630212168 1.2982096991303231 -0.0309059455502371 -1.2669380793068181 -1.6752539439093663
Ni 3.873224276965822 1.7525845431934457 7.454315908877129 -1.862153603350825 0.6649425562265 0.14723088009692709
Ni 0.2778624530791446 0.2997104994394421 12.58956245102748 -0.6669464740304062 -1.0047614043989148 -0.8478094403594818
Ni 3.2515671752644306 6.53488017436503 13.183059744633841 -0.11343424326245624 -1.422776755677414 0.4038809687596463
Ni 2.7425493059431565 9.173748274212326 3.749027507542551 1.9750227181384308 4.070519359994918 -1.333042170024743
Ni 6.02857402490016 7.338409521607952 9.626194056874152 0.8097972227817666 1.5680769944105317 -0.9456586846994874
Ni 5.562756658118827 2.311516759388791 0.18401637437971463 -0.7390882863019788 1.8044811883400214 1.5139447313425023
Ni 1.1762318646102405 2.406632671041668 12.516138428074203 1.3095399731377446 2.111774295970589 0.4493537563804648
Ni 2.7486179479666246 3.434243586004757 10.180605181515805 -1.195089372795632 -4.35049603919872 0.2745956173975464
Ni -0.18870858480710487 7.011796891041365 7.969968141088466 0.32611769653623834 2.2161055484905123 -2.890419775739899
Ni 4.337021879992039 9.019890900014879 6.400894096260144 -0.6325602832410524 -0.6015766903753446 -0.2848229515525095
Ni 4.440020480744736 4.225429932521981 6.409666042457703 -0.5340119559514932 0.03458082329866303 -0.6868817795017526
Ni 4.679549500888276 4.36728093328625 13.002845388507964 -0.24552698216636426 0.12045206934118612 0.10734407120431835
Ni -0.2684864479066771 0.016759363788384878 8.733018991481787 0.3156772179292047 -0.08130188150428579 -0.6022084104220725
Ni 9.118868674773598 3.110174361648313 7.440999494230564 -0.24464046579635287 0.1331286363675901 1.1627181555537782
Ni 9.12215079087566 6.494260481067735 1.2039026280553047 -0.07018263166267269 -1.103483281151861 1.1457871841263945
Ni 0.13805926834436674 0.7022980397759497 6.374712908584477 -0.10333854958935107 -0.5252138980438891 -0.4562260580202659
Ni 4.0632410328346875 1.8168710053064545 2.6906656894078487 0.3162125216073844 0.22285602293140977 -3.4516478870948686
P 2.6445814130619936 6.530625579417914 1.8102731103730816 0.13651735033416487 0.25454975449026485 -1.0752127163419418
P 6.153369242843464 1.4682279885961214 4.0298597614023635 0.9579074201598535 0.1214458007130231 0.1614557654470574
P 1.6304449405577912 2.4378268001484313 8.454362659037786 0.5530872274153894 -0.10628657647408148 0.23645381622050246
P 8.920548445689263 1.9538409103291972 11.231851072716978 -1.5674175064496618 -0.03418024542613468 -0.0684049709369596
P 2.2856993162042065 4.290698224238171 13.28237788698833 0.8703690708275527 -0.07078941200873615 0.7303223671838905
P 4.495732297656636 1.582868283215102 12.094889579746576 0.48648100025006535 0.7285241376328871 1.8045171837842793
P 8.519784303187233 4.586406599199886 -0.34262580385655556 -0.3030369034573749 0.054056158414455296 0.646869243664557
P 5.276548653412649 3.4437626577765448 8.097287128649851 1.0846149834924481 -0.027046462594830838 2.0482839887264275
Ni 9.025641616262078 6.75220114396044 3.9753495169095943 -0.9940519884012105 -0.1717509767254784 1.9173634157537498
Ni 4.2103378089073775 1.8667385983898985 4.786451108082569 -1.3920595290992157 0.4289962757700354 3.275138569748798
Ni 1.4956631129364224 1.1681341080735326 1.2240114334042538 -1.1512682618456236 -0.45088844785743637 0.2069514358860113
Ni 6.962303328282942 7.760942229026213 0.7771658197838068 0.7434223949009583 0.6496087540829071 0.8023068279419924
Ni 6.776999354509342 0.6546465763682561 13.52538258392713 -0.035112527432416954 -3.419538151044517 -2.9442674176879744
Ni 2.258357699445161 7.078149870700115 7.5509232664510275 -0.18700276067822633 0.7354041525821722 -1.6451807786730697
Ni 4.841308265701795 3.004566899378593 10.634179600683382 3.3800537197966496 2.342055407721476 -0.19541978109732797
Ni 4.719626850214292 8.375081321194678 13.272318341396886 0.9719852384091582 0.22738964913570514 -0.001313319494784835
Ni 6.967530402075112 6.578828737555015 5.5910791694052415 -0.16844196695690347 -0.2041080528999452 -0.40255607930063575
Ni 8.908682333627967 7.315434708893529 12.766998696914259 -0.6880241206363119 -0.07846132673169713 -1.309780371283325
Ni 2.8285201761492664 0.3200951521530944 12.499619378769644 0.19124199557055452 1.1954850655721538 0.4931026193316411
Ni 8.443912251756695 2.182551103321501 4.523122538357934 -0.24835879518820456 -0.19963279073741103 1.9613524197401897
Ni 5.660677797209363 3.6957562385014144 3.395797943971646 3.7673693279984475 -4.307871519659975 2.6675766083242967
Ni 6.7892862506862866 4.100793677466811 1.4431791777294556 0.40398638398925907 0.5490163997801254 -2.23974658494822
Ni 1.2412757381314172 5.3939193694042835 11.765076184673621 0.6829001691461851 0.4751619756928205 -0.10273099791233921
Ni 1.459709447943765 1.1321991445971262 10.4385823123652 -1.243696078059742 0.19268721265751332 -0.32495890034144675
Ni 4.910438420523828 7.834962830347896 1.9459124025145618 -1.7417688969124647 2.864862496096085 2.1023972256310626
Ni 1.7103004149498053 2.676327236898163 6.147720449859833 0.8060156442521473 1.8913160838473946 1.734067157392833
Ni 6.588020532792409 0.7244518559269519 2.088244967322295 -0.4625316885233196 -0.93639397156811 0.44552795487647145
Ni 0.09329064366677355 7.224807161140906 10.33242128521445 0.9878944534402472 1.4875518431712704 0.03899129366153285
Ni 1.8899658815737115 3.006577312375582 3.8328121704989124 -0.13204594482637258 -0.81402283082734 -0.9000385728675273
Ni 1.9955265900528034 4.887211137340015 8.098095034151896 -0.8418295686269631 -1.6067780105251555 -0.2726670329162659
Ni 5.75474642395218 1.2615388309894378 8.767808487087816 0.6013573752756869 -0.6796035006727844 -0.25832619081356156
Ni 3.2407109450806915 2.387519721433087 0.19689143324275493 0.1761701888390966 0.5937232557691968 0.44471625760845346
P 8.509040282101001 5.487436301417696 9.02314402876675 -0.5001451280007192 -2.218168087446496 0.5775337904935279
P 5.323236988733414 7.879051654909764 4.477740503947307 -0.5897956385800165 0.5129085983139747 0.5844063492436451
P 6.834964704129494 7.8863078432151745 11.777119961139304 0.35295050045836635 -1.3759780501563206 0.9086412269348738
P 0.7008570879488057 1.1803929519761007 3.2881594970370616 0.08390126680034583 0.10217075453349503 -0.05197767861887178
P 2.907431223970602 5.291191940637227 10.061415743068755 0.8383416100783626 5.103199859401605 -0.25260831449317783
P 3.4471569829761117 9.53506156818275 1.395771769108838 0.52408415531482 -0.42597317267299545 -0.5030409614912756
P 8.357174619384292 8.1764525170922 5.961580518309811 0.571331518337558 0.19254348799079743 0.17243463305606432
P 4.354030909022375 8.708258183965388 8.804404549163698 0.46428106711425843 -0.09415816864166365 -0.7409168548702852
Ni 7.784571594809424 -0.004302283813555701 10.496705689797674 0.9646545090756999 0.5447583958347199 0.8614643121387551
Ni 0.5084932917904318 3.790021231164868 10.027050771881623 -1.6762872702698872 -0.337981794963676 -0.7029599160105378
Ni 8.289437727522962 5.379724918569731 11.123705814691991 -0.4102740167701838 -0.18896965459661005 2.2910964001751055
Ni 8.539271283120835 9.03247702045184 3.881095745155892 -0.26610763453119335 1.067414560453762 0.006473266429169497
Ni 8.500811614950535 1.9169428187658615 0.1619598061132178 0.9176822540912196 2.377792970332402 0.5402769630245985
Ni 6.835076913227 4.302190305974445 9.788356774438695 -1.7929312787188927 0.40272731477117735 -1.118243727290487
Ni 0.09297271789050558 4.150305941741484 5.411603523171284 0.8824041476152158 1.7823082517874078 -0.887357120745117
Ni 6.513438885983193 5.5540791545783375 7.707324981934432 0.2740911669573022 -0.12499597995812665 0.10916055558776684
Ni 8.57600106103791 4.683523573091626 3.122219073189806 -0.6000327429269924 -0.586731397832396 0.2567339066257772
Ni 4.058229026479404 4.318413871322237 2.3289362867008383 -4.1479489030279915 0.842554876828762 -1.8707521436531134
Ni 6.022701748797328 2.2004671558900135 6.305737041271515 1.4934152439305828 -0.10995656912650095 0.2088597086523177
Ni 4.150913741019644 6.106512593876441 8.235746609441989 1.185625399169255 -0.30157728819271284 1.4793016873473364
Ni 3.8058614154295136 7.279911178774646 10.627555523627258 -1.233163039738902 0.6376340982195341 -0.03979913427480888
Ni 2.0585132967863644 8.95215400815355 8.7701760990452 0.8436126286693149 0.055863129716207015 0.19206449147184987
Ni 1.5636337737508896 8.162155207918268 5.2748140877803635 -1.627383859700965 -1.1764231638446965 2.465248530142909
Ni 7.055726752715097 2.99974190818582 12.107302711158217 0.4448142166388984 0.5594141980746817 -0.5613373832393236
Ni 6.446403300981279 8.304445694314436 7.381411788075633 0.5379958802999057 0.022979748724624938 0.07985460753479795
Ni 7.727775089954963 2.4042575784777833 9.401063334092301 1.0251358542902087 -1.0723940159462242 1.5969561393387273
Ni 4.260205401990822 6.484012050162154 5.912201969876332 0.3209909168326343 0.4276994113354828 0.5737758661129925
Ni 3.7146447699149823 1.1957281953019674 10.110534340426343 -0.8340172716713959 -2.064553672420728 -1.4579180794652375
Ni 5.618141198496334 9.436972115445956 11.06556841112233 -1.4336484082845955 -0.14832025650636388 0.031238903409623618
Ni 1.6318101512441183 5.343892813432706 3.390597052302227 -0.988226382858369 0.10016683672958877 -0.43975814227222976
Ni 1.5802407201818283 8.123592681408587 0.07727934052843095 0.3506853585732735 -0.8242722764694901 1.5482594454639724
Ni 5.423832444647849 5.722476957660981 10.9476244936576 -0.5697196937657478 -2.1626137472199596 1.5266426385251448
P 2.37067900604901 0.8681112933126978 5.712539907000982 1.4714721640005883 -2.544009390392896 -0.5896022916222878
P 7.256235059200807 6.40857013360539 2.705267833296674 0.7343877955025159 0.23902414805084 -1.5330377434182114
P 8.677662503378658 -0.11618503986131774 1.0461506630985746 0.16255388360724263 -0.5078399255418158 -0.21230447266780858
P 1.9279299595633574 8.180286327923667 11.384406821383354 -1.901914428188531 -1.0046089379814505 -0.47417467207888664
P 7.360056526668552 4.338536702808375 5.055130181606632 -1.0578215174486878 0.00445495044756007 -0.10583740475180481
P 3.3145258297236144 4.588295452341243 4.544801335996159 0.8940887830419957 -0.06991883647832474 -0.45637312512109146
P 7.7691428439023005 1.3656782242334495 7.597496587446848 -0.8111948744602416 -0.6510416298746916 -1.33053328755996
P 1.1152462201155429 6.020784843381594 6.004102155809839 -0.05617423319872261 0.16653600818344222 0.33336640767885173
