# total energy = -340851.9329110219 ev
CRYSTAL
PRIMVEC
9.44403192073401 0.00000000000000 0.00000000000000

0.00000000000000 9.44403192073401 0.00000000000000

0.00000000000000 0.00000000000000 13.82229533336870

PRIMCOORD
 96 1
Ni 3.073635753190955 3.7435764922720653 5.598443866347825 0.9467768574643307 -0.6064363324604911 2.2926187503569033
Ni 8.37567584330767 6.5175247793198965 10.333603104938344 -0.12469876043268202 -0.07292137075007442 -0.4487168941274143
Ni 2.7447756723276315 1.3276797888716736 6.636388309954377 0.5054822239429166 -0.2424102909142535 -0.48712506159196745
Ni 5.795245215124074 6.556386970829648 0.36762783205348865 -0.4386456259343413 -1.0587568847787638 -0.5782999792355912
Ni 7.390455541319745 1.9787230200035706 0.6500223312771691 -0.11433721469269988 -0.48827254493284933 0.561272334329343
Ni 6.338947579014212 1.1192216714488912 6.309725855327826 -1.0002136371272323 1.4823900964646728 1.0855539503669498
Ni 8.129413265954502 7.726644190982961 3.187117130012213 0.07379091783922131 1.429367007300422 -1.511412966059584
Ni 5.90880025539461 7.620531047895825 3.906360437933338 -0.2996134795981227 -2.2581847370487496 -1.1266908296165756
Ni 7.653764596358235 6.929322348843885 12.712310154888858 -0.4131330834855337 -1.9715031350209464 1.5963033362460766
Ni 3.627754884331458 6.746145904974348 13.012792808522896 -0.6370514862431866 0.003187653699362252 0.687568778266448
Ni 3.2967415641815685 4.104442397443177 3.472036018978435 0.41893014978328497 -0.49524100583088265 -1.6589842602150653
Ni 4.6607903201259155 7.83571331607315 5.909888207876243 1.713055331027856 2.5123441980791315 0.7038744574050071
Ni 3.2310299898134387 5.351404045164462 8.26328619658083 -2.553863914589473 -2.187416665196252 2.165608568182225
Ni 8.104377137232182 3.02777553399986 7.388832112226057 -1.9574127183661514 2.8381361358448345 -1.5809556501454125
Ni 2.435417517458874 0.4614212354505966 11.29072835625255 3.1568886502652536 1.3706939189392457 2.465874593762682
Ni 7.022629384595124 8.280281676493576 5.848835374473305 0.6587634239989816 -1.6854658514453618 -0.5727481961794264
Ni 0.3366136311013562 7.78135346811929 0.8602162617739474 -1.394296131739218 -0.15226252898356357 -0.5791877811571832
Ni 2.569182786120872 8.797021329141833 0.7128308102212165 0.2509599802564774 -0.20422272410093864 -0.8960466780993148
Ni 7.200224405577113 9.069132221965763 7.9137068540034745 0.5431432288288001 -0.009406123805248317 2.65074076771388
Ni 1.4296375578970149 6.483120170894617 12.149341965803119 -1.0298330026555618 1.0223138114603814 1.4838229722564575
Ni 0.3798569090367152 0.9563215641945273 6.37459407764205 -0.3257734258229422 -0.9346654189127775 -1.8659940601428378
Ni 2.729986318280421 6.569117525909878 3.473391237564498 -4.601393284538062 0.904226899917262 2.4425001807027997
Ni 6.908951571909126 9.222201091951197 13.203194881243977 -1.1509203915879018 -0.19417151051252365 -0.7758846291947219
Ni 6.163449133127038 3.7194847667456066 6.3151722285583665 -2.826603452614887 -0.7794026696503094 1.411611483089214
P 7.561987493784293 5.8420970576708235 1.2852014775249634 0.49526723108312776 1.5208494288821355 0.17450668509374462
P 6.913588591600813 2.009350015645399 9.095857888005483 0.6380673291022109 -0.07442289499626537 0.6203691404914993
P 6.304571302684808 7.385450204381671 9.89750981879759 -0.21583074065351213 -0.49773369034574927 0.47610145678795424
P 0.9481808086461905 2.8741494661288685 9.271608489545951 1.18350783860562 1.5316876571482203 0.4283622417304623
P 7.985769539863781 0.559346402829604 5.114249292232194 1.6975803753207086 0.939419645768311 -0.880575321936593
P 0.18424267507766598 2.890912622855432 -0.05403025123850319 0.6301467887035535 0.6484216757533413 1.238299589634519
P 4.549520735589368 5.970781437139081 3.9673717175956584 1.074315658448969 0.11322546968575985 2.9199303836045067
P 0.9052756270549503 8.68007588139815 12.629210228878502 0.8911818938078457 0.9554255342782643 1.9354842937241765
Ni 1.89210235887904 8.366014598613996 6.779421007177376 -0.21580502962189932 0.2564312877836938 -0.11970259276967125
Ni 0.34440779067681143 5.165526608154757 8.794352445710324 0.8865155986804281 -0.6526945920970824 -2.199132153860967
Ni 7.1538919847880855 3.0124856462588427 4.460026255539828 0.8044830096577048 -0.5103014997084308 -1.4052660004871604
Ni 3.950599116837136 4.2909714726580255 10.966111478948239 -2.94863700751058 -3.98346437805694 -0.7885218583427581
Ni 0.4946972820568202 0.9650384056923403 10.374157666975082 -1.6837157015234743 1.4957156099289854 0.23730279448435904
Ni 4.987997695396479 5.96246124498353 11.249122673458817 2.9408763897285546 4.13855100675286 0.26003828840866183
Ni 5.171363019905189 5.146921865196262 2.2874238702480074 1.503736937571565 -1.3409148879046002 -2.1951212329293615
Ni 7.502102887134638 5.233788071151715 8.450080649093717 -0.6579165026176541 -0.681512030549407 -0.11176919685520752
Ni 8.607328503220842 3.3060344916288575 10.715167494953178 -0.7241774306284173 -1.6330233173749296 -0.4725690181546635
Ni 1.3198223542820955 9.099730885511716 2.792020386603861 1.7547290566175588 -1.1066400816132878 1.03680711998055
Ni 4.681349977699848 0.6562544479666673 1.8274041291400713 -0.44155920003671045 0.45943350921397 -0.20877846179242107
Ni 2.3998324050387656 0.21168892075582893 8.827208232894389 -0.6960045677386271 0.344356073921136 -0.014711080957929503
Ni 7.112158807562912 4.067931769891123 13.425415786440068 -0.10570730693184376 1.127215334661478 -0.7695674287274423
Ni 4.663415761010414 0.12836611559125113 8.03133416085457 0.09075068562201145 1.0213239367432863 -1.1667658432605905
Ni 8.216203919654289 4.000085844300344 1.956269834021934 0.3640047013899989 -3.5792036573603716 -0.7571672552908767
Ni 0.866672202020865 4.69943529890062 10.884006953906322 1.869791065291425 0.3331452928069811 0.6768840448590923
Ni 3.7423298800535263 3.3906435739462 1.0657013979361538 0.6588402999835041 -0.9970110710295346 0.9046511319388743
Ni 3.804934367907267 8.129677698849346 10.6375970496546 -0.155524487564287 -1.0313712936769592 0.8474510285787985
Ni 6.010115830246764 0.33367937037181067 4.111497089316271 2.976706512053286 -1.4157072504251424 -1.2116508766987393
Ni 8.83198313545267 1.437013346856703 12.440909453268215 2.499383009932773 -0.23358420798219126 1.7032591708730407
Ni 1.2135958828114548 8.360725940717163 10.543744148856154 0.26583741158894214 -4.818236011395856 -1.4028705036717903
Ni 7.551202409287541 5.383287097056788 3.500911146691938 -1.7610408577681993 1.6938926420564762 1.0745450008509558
Ni 8.69451580626289 6.91339971096164 7.44394181631743 1.022437481522439 1.352971047738186 -0.038445962681024105
Ni 4.059932674822165 7.46733940549493 2.1341765080585566 2.3612011274119915 1.173766957168772 -2.8803580206285235
P 4.540341136525583 2.5098742654206925 6.888299362821999 -0.8597460438960677 -0.5309258608270019 0.23343816932263023
P 2.4705587603769263 6.2944378563932 10.311225471212376 1.1599897008790216 -0.247192028573613 -1.0918773214818163
P 1.5117156396494458 5.472287654234892 6.86956995864165 -1.9268065634445202 -0.5253239412591921 0.08602037002587766
P 5.496558816368565 2.4613319411533476 13.43612815189074 -0.08194697128745242 -0.5793392191333829 0.3296084832983162
P 7.721317756958296 -0.08501139807878036 1.235178329046506 1.4834267652593032 -0.7597396440037432 2.7274570867300127
P 4.463825589596783 4.631343828478916 13.289321619497073 0.8175912649048886 1.2798270194543442 -0.586123589045068
P 9.495313052162743 8.692966985021675 8.82366955411949 -0.5875595501606462 -0.0017660907614872807 -1.9006826126639587
P 4.806398404864034 8.393043418079587 -0.03463315399867838 -0.527419133225324 1.1325598868028433 0.49134732720343127
Ni 5.610472729853528 0.04121092225786236 10.15207464464559 0.6084081114748812 0.04171229213712171 -0.8205511188641611
Ni 1.4261904862321162 5.1442586481839285 4.646074629527983 -0.00676791485145286 -1.6867326339729274 0.9214651181724196
Ni 3.164156799514398 2.705724600178707 8.802051220562998 0.14183644855423316 -0.05315755785958587 -0.20870004314600185
Ni 3.5910176000123983 7.550550771082396 8.42699754618044 0.11300821146863119 0.441514205731388 -0.3891516329692718
Ni 7.555357783349337 5.254102183894723 5.923171238826052 2.035214300026663 0.7111902743401299 -0.3717861451076307
Ni 0.3233438217962889 0.7992314254011109 1.007787760756263 0.30767105979527654 0.957082867376029 -1.7006309892215743
Ni 1.0850626078545358 2.4095219818283176 4.048439287928516 0.6975073775363987 0.30814439988726927 0.4266699416297039
Ni 9.093129507172636 1.5418043254696328 8.351928824947702 0.06602387229929274 -3.5511968877348004 1.416296033049077
Ni 4.852541945013886 1.9713188989480066 4.337961198071373 -3.3396524331614676 2.6689673180242357 0.9073903852469084
Ni 9.159058294275814 6.502744869304644 4.816890724370069 -0.6068628784749484 0.9051211295967574 0.9495510777753582
Ni 3.2958821572733332 6.374504359338443 6.322746342189186 -1.1015037888279868 -1.8183214366572233 -2.2609741268684287
Ni 5.271007001100667 5.157754169852807 8.892034901467994 0.7935231682120915 1.2970924914030113 -0.7891173258349119
Ni 6.363785383065402 4.013996903375402 10.486768304049756 0.32325785848994004 -1.190278838780866 0.5322276103575608
Ni 4.760472077449228 0.6484668992135831 12.342743463074262 -0.026094640204522804 0.561808152228155 -0.31870212079845756
Ni 0.1621332518593234 5.211896805071618 0.40975104779855437 -1.0686957411590305 1.7949804479384377 -2.408633866972658
Ni 7.115095901502045 1.3581462359702057 11.28048630359342 -2.074411539051414 0.8726848634449228 -1.4482790137135766
Ni 1.1151701817386401 3.223899745684675 6.837322367115721 -0.2756189164557382 0.3543190986711188 0.9524813640482758
Ni 3.798096888769221 8.950373520086025 4.026489468850274 -1.3953675104265257 0.6014666471600416 -0.35517116225876894
Ni 8.92597014150493 0.7996327967593526 3.141116194744935 -2.3029124189734276 0.4228629091787878 0.897106486822397
Ni 1.2535158059005727 3.910480869076887 1.7255200235640071 1.7435085053113906 -1.6768950790572155 1.6978012330822632
Ni 1.908194989336541 2.6335910840787116 11.547504974385259 -0.4015633763700633 0.23581592552618738 -0.7283320762267392
Ni 2.332354796694373 4.296921212791961 13.075919551343949 -0.665306367323822 0.3990023005111064 0.6467134348129829
Ni 8.533466729272417 8.510725500316042 11.622186490307692 -0.17821010208726082 2.411286474104157 -1.565492521512807
Ni 2.8675291997258707 1.5334841333140818 13.569237060331613 -0.4602804305952976 0.466065669818507 0.2700694473924187
P 6.138573552948014 6.45558137370326 6.850163417369867 -0.2475967202111994 -0.18618103610787934 1.1951405377485416
P 5.664303712017705 2.952884360567945 2.6160771268114367 0.3050593332040423 0.14428208188124828 -0.3727821904723128
P 9.104764554545666 3.9994719822230325 4.093210610234781 -0.3057301340188219 0.4395910205667462 -0.3218218973743619
P 4.35402927404578 2.067374147999206 10.57442875309293 -0.5500867500261687 -0.1734769582776496 0.23455274254304764
P 8.541456380309416 5.108295774485475 12.061058210650675 -0.036846736514704284 -0.2306588068052802 -0.40264735346286135
P 1.1025340669779966 8.08478077091803 4.765056210561946 0.9312792760493639 0.44885753347033663 -0.2736527938683029
P 1.957795045183252 6.560636785211031 1.494466115277013 -0.0075443880061612 -0.2747941065615977 -1.4849123486658942
P 2.7869054988950683 1.429684778056808 3.1307088715265277 1.103783586001099 -0.18218528468492495 -0.49163760475034035
