# total energy = -381171.24725917494 ev
CRYSTAL
PRIMVEC
9.22986606120264 0.00000000000000 0.00000000000000
0.00000000000000 9.22986606120264 0.00000000000000
0.00000000000000 0.00000000000000 13.50884194972779
PRIMCOORD
 96 1
Ni 5.934074681638968 2.9524310778669696 1.084014534740105 1.5748695918523328 -0.4324564664044939 -0.280545150112762
Ni 1.8828188260406744 6.070944364623385 3.748609472289188 -0.22155401629053453 -1.7381948064079613 -0.49905755136349533
Ni 4.164598610136607 6.2567600270309836 6.815278601696932 -0.007137125265413514 0.3499744485491779 0.4168694105995143
Ni 1.058785619002725 8.030297239575434 4.449110152719583 0.35786542126148047 0.3476080051995304 1.3513797919916661
Ni 4.434618340105526 0.884236854027123 3.8847786084438445 -0.1257192312773964 0.5135513741042962 0.7015679207590175
Ni 2.1770669542720595 1.9380226546150756 6.04057349053476 0.4920191564594752 0.5892125123830368 -1.2486220546064497
Ni 0.8277140776006432 9.4644891985893 6.505520606631166 1.574981949060481 -2.5302262205658748 0.855355885248172
Ni 4.921013818823768 4.244215434293568 6.004936977890425 0.1329049503925582 -0.5617482455244971 0.9801312645550605
Ni 2.6868232238483194 6.211782889989844 1.3168619023615002 0.22623188138217812 0.09674649819413016 1.071302325543942
Ni 2.4166096666932995 8.756540016293073 8.639674221900748 1.477328108560733 -0.09867791088888812 -1.2937351448950043
Ni 4.9163158170273515 6.25323421821717 2.400426942627174 0.09056967995945692 -0.619378751553772 -1.0883024596463644
Ni 0.41469418764695226 8.655408374479043 2.3766101963885204 -1.974595400793025 -0.012292187103791733 -0.9005718196631781
Ni 0.12533788839808396 0.31720557394499627 8.800943055668718 -0.755300377285467 -0.004607673975340451 0.6780886066901547
Ni 1.3259902398401968 7.555642150415234 13.317894569496403 1.4768776512868758 0.1719458663451039 -0.7079028618381099
Ni 5.972424774888698 3.820112321241375 8.099577536793678 -1.4262991670083758 -1.6788725144985603 -0.9407517343161733
Ni 4.0935286419000425 8.303353595459917 0.11763833417692268 -0.08625459752387081 -0.1789274398692596 -0.4126800551085151
Ni 5.045598550155865 9.261339847824782 10.742055869422183 -0.29378915960686175 -1.6462321027557196 -0.49406806856870394
Ni 3.3793677597826206 4.09692523258979 2.452895038917768 -0.4242821581238177 0.5304270668137123 0.5469170940489355
Ni 8.070917879862334 6.559167356810566 12.231662097955358 -0.08407687314626165 0.16556515962974067 2.1922315700863924
Ni 7.142190302732521 1.5060464658608324 3.4052547649661387 -0.9083476069538551 -1.26539850273384 0.4573953957380187
Ni 4.965261796450532 1.40644698180359 12.660891478586587 1.1308315912578268 0.3895848638519484 -0.2405683526095083
Ni 8.709596917792922 7.2171091250930655 7.425337671119995 -0.6228507692627725 0.02788464222541004 -1.1906200241703688
Ni 0.42172642255597026 5.0327505766772545 7.572975838772153 0.6866318682744755 0.07210710237889517 0.2737767210406769
Ni 1.9498368831011539 4.848974714656705 -0.35095457899135946 -2.903661214130838 -0.9287369692434844 1.1080847844796142
P 9.359268726135165 4.061805592441722 12.059248200986653 0.8340200998848732 0.036377510187769614 -0.6996961576576015
Ni 8.647913723283187 8.609305193785323 0.1543021309075855 -3.357981313377642 -0.3792500575848436 1.0241058703637975
P 6.511688926082139 6.055078224961223 8.346384153760656 -1.6714101446832443 1.6185006982787224 -1.1977653769658985
Ni 2.0164211364594102 1.1094483535027901 3.1935982467050454 0.6633127339325608 0.23071357130261558 -0.28860632985434165
P 7.794271106102005 2.098197749261483 8.677296078722703 0.06721892104865843 0.8599836138281706 0.0923231723154539
P 3.8817309066890764 6.129840139599686 13.122394008690023 1.353696613050301 -0.08548763745085923 -0.7108406043101951
P 3.544074718637359 1.515534768113714 8.12813474221237 -0.4476419158956807 -0.42804831003446925 -0.6138488228744783
Ni 6.417581212297723 4.975931521552022 4.419134316895961 1.895294094658536 1.38287503438647 -0.12934242985228048
Ni 4.483001297702419 7.286933061418988 9.2145296593951 0.33641702157971737 -0.6073400752216831 -0.5799007480638078
Ni 9.055116951680686 2.227969665288248 10.473431695193183 -0.2735797745385224 0.8472851924248956 0.33088195069410115
Ni 7.966315808430518 7.849825669584586 5.095791484476288 1.631320218640894 0.6769236398477761 0.6582270918795373
Ni -0.35977925387849957 1.6352922795253266 1.6974397362951004 0.09101473791667551 0.04243220102228176 0.2556108487649275
Ni 1.885772383162194 7.158397947436859 6.5593805667152765 -0.5830305519420411 0.0664434763352146 0.05805319538899034
Ni 1.8359034171385373 2.78793640593034 1.275825918104388 -0.379244915378521 -0.678018929794484 -0.9740773450514967
Ni 8.174135471393438 0.08390040496976517 11.394978436571298 1.3796207891152306 -0.8565661035061892 -1.7635877925597694
Ni 1.1639968615908542 4.360474826489381 9.775848575406888 0.2595970871061852 0.03803998549185707 0.23448049454421555
Ni 5.1020207210428925 8.643243411084784 2.220016289751956 -0.637657752368618 -0.7697142387179519 1.6706604110014132
Ni 3.4235418984813473 3.883789166808136 8.042731715057032 -0.11861270213960216 2.2586146254973167 -1.3559427287720003
Ni 6.500686925804479 0.7746977272693673 1.1181188896276508 0.9566144123800426 -1.4646178600829163 -0.507480485319868
Ni -0.02888578864846119 3.321145765024666 5.9602496586418345 0.10452665636018127 -0.60985332856184 -0.311838818019721
Ni 3.2451378184755617 4.938430575974729 11.446676762037097 1.3411370312177355 -1.358555226694183 -2.197355778686835
Ni 7.315582565497729 5.151548182024374 6.464210495353713 -0.37609557111626196 0.1987853551354512 1.6827517949483084
Ni 7.711691494957519 4.585120535178957 9.16780253975946 3.203083146543445 -2.3107365430035367 0.998567616883377
Ni 2.9406445389789058 0.47489598866292493 11.881188394982846 -0.4502713830987278 -0.17345356123888192 0.45274324167798796
Ni 3.086310284265848 7.268870213647695 11.27126408160345 0.6261471806258572 0.47633774116847644 0.11921536872060759
Ni 7.587992830761878 6.6005909954398785 10.096481198599447 0.27240298062160184 1.6941176135830889 -0.4838404773034248
Ni 4.193081976627261 5.5510537021739115 4.459876791414121 -1.7427819115580117 0.3921400261736343 -1.0523756638427681
Ni 4.042256736243664 3.601789070765052 13.681350079004593 -1.1966950267198553 0.46198841442533983 -1.7552738733774351
Ni 5.9889185454391844 7.278543113220672 4.306970216246454 -1.7444952947046923 1.0253279156963566 -0.5071909791039071
Ni 8.125835582590588 3.913841610519597 0.86059547524256 1.1241603498852382 0.3760575187894749 -0.09747463460940632
Ni 5.200900275551764 5.0413343520616705 10.101087824722418 0.8957458590294444 -0.1583285326719854 -0.5702092318076567
Ni 2.5766186237516213 8.049061557163089 2.574541903900553 2.2550153381818325 0.6692147012392926 0.672182782728681
P 2.2957168817631026 0.28213577507335347 0.957679820813508 0.1389514136969542 0.5443279931655207 0.11253641403853522
Ni 9.306012399287766 0.9038023239839891 4.53354035199802 -1.4069094496278545 1.3665721834613884 -0.8741473069230623
P 5.143555118064262 3.318302966295204 11.660805038414262 0.18019782194125097 0.7332778502677887 0.044783731973593845
Ni 4.635284856914766 2.0500270785827 6.186495826096634 -0.9914978545207892 -0.11061785685958368 -0.5319725569239613
P 7.330710315879511 8.61843353126402 2.6671857609366163 0.462146794380075 -0.40516832011250226 0.6985599871706293
P 1.0413042527897312 4.832785529684377 1.808712231888548 -0.1169340288855986 -0.9405208492522898 0.8327031808456626
P 3.441318620406493 7.443360830467467 4.996217844043859 -0.2842632223942975 1.1675160911630538 -0.2626975804083798
Ni 8.031635570146124 6.417359695513609 3.0802997955235556 -0.9449495744476047 0.16452000619467794 1.7682502310324448
Ni 2.0330348952679578 1.4184827270737823 9.883217760666927 0.814244974140475 -0.6785496054869733 0.2462296646603437
Ni 5.907824942721463 0.9487286967621029 7.8224028146978775 -1.1697395811769338 1.4445732827272153 0.8526870801667573
Ni 6.617860074734763 7.241891315315815 0.9756162194205359 0.4124165170344833 1.7606703618026582 -0.7754778806746064
Ni 1.9091331740202127 2.6990804859026256 11.64314922773378 0.19373133765131154 1.657615662002313 1.7815279219779576
Ni 0.8513942218224262 6.193886179806637 11.213757401460866 0.1630596195990676 -0.8876949637005099 1.8815579760193661
Ni -0.0996594781862729 5.5396086683280235 5.194649810293348 0.8216335532950624 0.7885979629963322 -0.6576120840033578
Ni 7.263646109489008 4.1627434070696525 11.795852745849341 -0.7569659379133479 0.030999790815624033 -0.2700483643464962
Ni 8.21256863343721 1.3058229826198209 6.805578935512541 0.23456791205169925 0.1706266333130481 0.5892485078272949
Ni 3.833477167216251 9.135490624850036 6.561190543438808 0.039451264017086894 -1.5505767807432393 -0.39875984548299714
Ni 4.2710835742333915 2.783921414218274 9.715045910114007 0.2488149088890166 -1.1907858603242718 1.8608310278846596
Ni 0.8939171374929034 7.198409416567445 9.2771164577867 -0.7501455725574049 -1.271786665648371 -1.2910005195726606
Ni 8.126564742004962 3.551200175193025 3.452252319675718 0.058466371667008986 0.5591720001568886 -0.03863725275622378
Ni 6.523170879392047 0.5146647123175851 5.618097602859204 -1.190440046949079 -1.4340744400784204 -1.8213267991424504
Ni 1.1957752902452037 3.3085654576601935 3.695722340081979 0.6036176320647734 0.9007659379518551 -0.064332857750115
Ni -0.37860633455498577 6.377560513301133 1.1252766507143335 1.6588680463521752 -0.544026659875018 -2.0134511973179583
Ni 2.1925362096960184 4.612080973778828 5.872387795182831 0.3451528587908185 -0.30322562242941326 -0.17394747015616494
Ni 6.786655864229605 2.757293250794575 5.790929612757923 0.7602867747564648 1.4479758806508611 -0.7568067866276643
Ni 4.290493982441378 1.4892296500001803 1.3306910105964151 -2.797177691154602 -0.891108360257433 1.6380400538632303
Ni 6.0176326585799575 5.220772177059988 13.691751215005345 -0.6133088912106083 -0.5988366657363622 -0.5274016497238272
Ni 7.73589220362197 1.6997352039704812 13.041354862181729 0.13886219641725764 1.652090875529342 -1.1376355015535373
Ni 5.312074011578961 3.282721832846898 3.5183916934925454 -0.709374818397946 -2.7315523398453085 0.631735473346912
Ni 0.7625622994463238 0.9319672600974793 13.037599229704396 1.7773735334899519 1.3961984909682537 -0.6693465988314666
Ni 6.063126668117364 7.6378617967855345 6.663195330576888 0.140052617180933 -0.7316138323018045 0.38896471376944625
Ni 7.114242268470143 8.516628109231643 8.466896668211458 0.7793263078864191 -0.5423320457814143 1.872256496112782
P 1.4255343447014104 8.61499079124425 10.76337224496015 -0.7303951294033549 0.9515195143556388 0.4231436736440003
Ni 5.76954309023832 6.716555031923539 11.688538939785332 -1.158588706766437 0.8064745861664369 0.771170254438188
P 3.315912430999974 2.9799176188291105 4.447178341764789 -0.1943013512221686 -0.18665411908955595 0.1537131453871611
Ni 6.537947894865649 1.6927943447349105 10.27142130989365 -0.2828547720825451 0.8933524190966033 1.0777426818526472
P 2.6068187453191585 6.1116665334363365 8.305613989644481 -0.07519885393034145 -0.7861942386508459 0.9165003179679764
P 6.478350650072988 8.669853114776474 12.403062555636739 -0.8362613305105663 0.15141972136729406 1.1268101288032595
P 6.432007492863145 4.539072733681267 2.277658648924812 1.3575794930444747 2.2425904821549185 -0.3031361480394005
Ni 1.515931652351918 2.664551557178861 8.125420238620373 -2.0175870738632025 -0.07658442142395844 -0.8900845469786091
