# total energy = -340895.27116629813 ev
CRYSTAL
PRIMVEC
9.03383591467849 0.00000000000000 0.00000000000000

0.00000000000000 9.03383591467849 0.00000000000000

0.00000000000000 0.00000000000000 13.22193201526659

PRIMCOORD
 96 1
Ni 6.3035307203650195 2.164751022084542 11.366551340445808 1.0981605833873667 -0.4105385832854801 -0.2933587569376625
Ni 4.622758428795642 0.3852876856167813 6.017168959382937 -0.5556673294377398 -0.40272140123390643 0.22628253211445545
Ni 2.7909132975950053 1.4860298886553636 4.684623041190477 -0.574186985508482 0.43189262348122387 1.2115819711340166
Ni 3.623047034182591 4.177968478901204 4.6933497267782185 -0.04864192937741945 -0.7657688809169586 0.5518093891442303
Ni 5.135320216453263 4.560009403855218 2.531484111915959 -0.23787692182027423 0.10601301109772066 -0.4617863257168628
Ni 7.313396146655734 6.197843872858824 2.5991674180862225 -0.8273419165337494 -0.5986790571125754 -0.2814761465674636
Ni 4.952945135039889 4.6101652613947 11.376335888230573 0.12361452622956774 0.34253727554484237 0.17259301301079952
Ni 5.602956737622439 7.858181627368709 12.28179998187962 -0.760033263984762 -0.00414513251662512 0.3569542223011207
Ni 1.8030633296659127 6.496592829780774 0.40853355244325723 0.371874848166695 -0.3324554658288081 0.08583627903952959
Ni 2.7553741867231896 1.5606313064437352 0.5125879857820561 -0.08845211939582186 1.1930818554473002 -0.30571959249586056
Ni 0.48184493844909326 0.1075604650951161 4.634683995715288 0.5698590475570895 -0.2221749377039851 0.6464211003835448
Ni 8.527417232985124 2.2704288357547253 1.3342515064315548 0.025034574371124628 0.6832320985643072 0.6809494731777176
Ni 6.922610468441955 0.8032218478142864 4.90960711353878 1.0423604456986113 -1.4997789813650817 -0.46747669123342067
Ni 0.5367661444849864 7.40512571752315 2.604694318958459 0.3432219603166928 0.5853283468372822 -0.3839245802423775
Ni 7.482048831166645 3.8375554702911994 3.7561660281232947 0.8426782897805036 0.13112034768830969 0.1142225434917065
Ni 7.686023814485081 3.902246769974237 12.719155084736055 0.44343379135160405 -1.5781382353012756 -2.0941825510307543
Ni 7.7776178778123155 8.667468792681555 7.0429131592322145 0.8036047208178095 0.42344346427260626 -0.4651624412779473
Ni 6.730280099743186 0.6965918678284223 0.2744289669936276 0.43659491405289974 -0.355773057508826 0.4215058809302612
Ni 1.7006557646321296 6.652652346890743 9.236643823860147 0.2797272821971569 -1.0476481764601118 -0.39940673503837665
Ni 8.88468737959381 4.991239565895412 1.2293831244680609 0.8125164214851427 -0.4751938573720204 0.6627041538142845
Ni 6.376397641639058 1.918687396785478 7.1498520964096945 0.6340844331950628 0.4414959508989429 -0.3771623218178795
Ni 3.3469910733231747 4.279698506234076 0.4340098733811341 0.1588877476095651 -0.006046206194079909 0.38729581070745556
Ni 5.937280940760253 5.658794878013566 4.671863651206911 0.3688203776110874 0.24181225231893838 0.4639085142661882
Ni 4.9293668230481655 2.903592334174608 9.395663729031298 1.9887027867286848 -0.7293291500326858 -0.06587089166119624
P 0.30561286552398365 5.412387966946041 12.328790383280442 0.26552527966516204 0.19248126729429432 0.19388097585529834
P 4.0349267194847505 6.155140930029371 12.711922595624724 -0.20968297588456147 0.23456122718347988 -0.5367555801349014
P 2.3218945995159688 8.423293239109032 1.546001009022051 0.6777664474640456 -0.17224694252529046 1.2262722261563397
P 6.134552817757671 7.84057468098102 5.6307981168282994 1.3861765879558772 -1.2777243712890447 0.28343918383110545
P 4.6771330877528 1.0275627110385235 12.56194646368534 -0.1896016317536541 -0.8985781862719171 0.49395699691213635
P 4.14226675898117 6.1764336815100185 8.051971863967042 -0.14438415467675134 -0.2925987388431864 0.541579740996422
P 4.7542820472966 1.0294688504370881 3.8793938750142902 -0.4106519689348928 -0.82135278882985 -2.024728055783358
P 0.044834928128322696 5.484830297927508 3.6834319042386356 0.5455574946972476 0.4442575728044801 0.10701496999967378
Ni 1.5323463658896794 1.177352745956057 2.6957273810693385 -0.31121609683405754 0.456078219588492 -0.2800304152598726
Ni 1.7871457106124966 6.361329203170785 4.800500055718383 0.9956920951077949 0.31617678327344256 -0.5171290641532256
Ni 6.091316878603499 5.633427866491437 9.090157462772257 -0.8721780990118334 0.3789854910695473 0.552762497086119
Ni 8.702502008736692 2.222359794334051 10.153570952025017 0.03127309908166872 -0.056998014651598615 0.2060726328254838
Ni 2.3794039995693446 5.176261561260348 7.095959844295585 0.42621742747331753 0.3274976076029005 -0.12850810687644318
Ni 0.6577382425237471 -0.22092336306083904 9.133948982841178 -0.6701582960994846 1.558360538453716 -0.39182763713953805
Ni 1.4071283649252064 0.9912376564336505 11.579596295120448 0.1676822059727435 -0.04709438238464147 -0.7878677696985269
Ni 3.9670826110334705 6.929313574762974 1.6573954341207255 0.4816424412108415 -1.233618896329398 -0.11201422298647805
Ni 5.66249875077855 7.901634378587172 7.861628939190947 -0.49159158200375336 -0.2630955871777469 0.5487942564669903
Ni 5.581582681617682 2.5603427010567863 5.032479027290896 -1.6292707923110326 2.674202598281246 -0.003311580871736232
Ni 0.709639437180777 7.259409942647097 6.775473671161191 -0.35354751061241696 0.34259872491039706 0.5915337043170458
Ni 5.189170912921716 4.4608630536218215 6.962444264953949 -0.222686587233081 0.11528492331794984 0.14874166031449867
Ni 8.110867054464682 7.119313213770606 9.08094204665626 -0.037165810417019864 -0.030243115155257592 0.05513370774935021
Ni 4.7075319459337 0.4266915628276877 10.459712296955711 -0.4147899023626663 -0.9841869226816727 -0.4384201401870966
Ni 8.130813764379518 7.268479914003301 4.672141893356085 -0.6964655665354457 -0.13563494772921156 0.741134113087414
Ni 7.264920582614511 6.0536819177768635 6.916049193346327 0.36477937477249434 -0.22973809476322368 -0.41615567236194134
Ni 1.9654194304763533 5.371220776238653 2.517786106370729 1.2074684631862753 -0.13316257492931904 0.15220287939022173
Ni 2.3698281333964606 5.228721046982929 11.39177832750975 -0.38284188870116 -0.47262712508610855 0.5115518271757642
Ni 1.2055202466419548 3.47117018314625 3.7926455613239756 -0.64296065263877 -0.5250604031851602 0.8023482227028891
Ni 3.597029586467586 2.6873494015516664 2.645404397563632 -0.23476742965701505 -0.06453751756175337 -0.3427997851776097
Ni 1.0660287847782774 3.2850641274598558 8.097309976761242 -0.4344295309704647 0.3501659957346937 0.6237547691342805
Ni 3.5222474919589715 2.8421261139479093 7.487659746713795 0.3941354593371083 -0.15848382730292707 -0.7141390725558088
Ni 4.099681256019873 6.770823955765735 5.954391026167273 -0.14411830260987435 0.594123576531409 -0.7715813738336776
Ni 0.9476945668550658 7.347227862521252 11.526351769048409 0.16639639728178438 0.9587427715769554 -1.3010522473817079
P 0.23224185620046742 5.528454692030202 8.052857179896234 -0.20313848989782432 -0.7948406014719344 -0.051837553496581694
P 8.600573237011552 1.5312352040601847 7.9844737514350275 -0.18245062253116967 -0.40130266650950885 0.4836466161250638
P 1.851304013970818 3.1469819440140743 10.395638008272302 -1.1860905117311316 1.0579688416598296 -0.11721556468175941
P 3.963667821020876 5.96213302362969 3.7306472481561608 -0.7560598811593108 2.105947661986483 -0.6685480141895712
P 6.875038288001949 4.0670149049999225 10.480523544976913 0.1544076003510244 -0.1666985019032355 -0.5199153686491111
P 6.287432424591361 7.672680838695129 10.155567429783702 -0.5958701269088706 0.7051762069355662 -0.26662879714198595
P 2.297421937759043 8.354247630468135 5.753682677950833 0.32709882950258506 0.7444017280950921 0.15665628717588503
P 6.943045005501448 3.9259967248501915 1.5699984910047382 -0.425396474233919 0.5382208518265182 -0.7260065134173561
Ni 5.335329345762363 2.8291806269424917 0.23814185450000547 -0.22929740768137932 1.3373510818127419 0.9644578196838617
Ni 1.7597641536596564 1.0752975005267478 7.1503417303215535 -0.42709263098941924 -0.37579320938449473 -1.0085800068140567
Ni 6.802162332891899 0.6978927402141725 9.151983229672242 0.23404443544806144 0.045502098196857126 0.44729687385143607
Ni 2.703221851425022 1.5219484206396898 9.338135357922297 0.047315754366828194 -1.0094235857612746 -0.15626033728904704
Ni 6.058307241815086 2.138634202173403 2.5185801805561976 0.616239691704158 -0.6318468021137956 -0.008768747331565544
Ni 3.909166688359548 6.903440668424162 10.280237076902239 1.3498720970978881 -0.04314696770111924 0.28316870377853814
Ni 8.411928673405743 7.202749723178865 0.032104446419994596 -0.7435758897596871 0.6390227510369446 1.4408099590300412
Ni 7.4931604494615955 3.7313807956403475 8.316846645994215 0.7953147128948754 0.07817696272205892 -0.20437339074618996
Ni 2.9599092678743792 8.41950806181994 12.6429302866163 1.2231012846275258 -0.6120063703491009 -0.9251189128749228
Ni 0.09601341590438026 4.698082553464986 10.268138963714762 -0.20688150188002435 -0.0426376321648685 -0.412186146191232
Ni 8.989371471302658 2.188446773944423 5.912557138362189 -0.47637347950241826 0.8946276862646011 -0.3372621431888321
Ni 3.6097221260646633 2.6302916932988984 11.454410815965618 -0.0669029324701364 -0.02736965026220448 0.7120847611299413
Ni 1.146529297482586 3.143738796885711 12.773285830120885 -0.531874083672884 0.6655328815123313 -1.5576347160312851
Ni 3.2102368637711796 8.277261279972556 7.907509082145876 -0.1806325954858244 -0.12921361758390004 0.35941939601216166
Ni 5.734859777235908 7.998070578016921 3.3538884071184545 0.2308971480683314 0.041046119308032536 -0.007960649607973387
Ni 3.301343099953758 8.30043306934373 3.7472938977757577 -0.539160332921652 -0.7067543500559634 -0.26189128245700055
Ni 3.385303571850722 4.527288849819194 9.291263299773235 -0.6196068084041781 0.7349164143124762 0.06657691658928536
Ni 7.271966974703992 6.193616037605137 11.408518025640273 0.7008608673896639 -1.0040787765095933 -1.6027154104200076
Ni 0.6370137193282635 0.1953061142811726 0.6810021770222474 -1.550809979799968 -0.35778417440158383 -1.3679760057874506
Ni 4.422649927290408 0.24338780307226357 1.4836991589642277 1.1485310654201188 0.21189900969927378 0.6339430225211922
Ni 6.291551853812903 5.614023186737329 0.1422016126673237 -1.8322524449160187 0.8048272803710009 2.0672980679350847
Ni 7.934427203311293 8.818821681229192 11.175917526150121 0.3014543894616034 0.06860834519701732 0.3848866870453307
Ni 0.3266544763634939 4.795521508692085 5.909357353646684 -1.4042146764045105 -0.8780885509589974 -0.2887323139092447
Ni 7.864875699853715 9.209905476031372 2.6093883001503744 -0.11809745306608048 -0.7647088150835604 -0.43980673612197807
P 8.543768476167125 1.894892272729463 3.6876895511511636 0.26463979173641516 -0.8235852777047944 0.024274813386964647
P 1.6129372169541096 3.389766286840726 1.590413153625005 1.0918019881591907 -0.7330562211752859 0.6733786028089951
P 4.665371033264975 1.0517643577150855 8.160523340872691 0.14298058946100536 -0.29056113958786733 0.5997033846120318
P 8.492329813913917 1.5830352197538784 12.42720137926245 -0.7234752623550702 -0.08037268482179706 -0.3408814851089742
P 6.5449599877898486 7.636446122450377 1.1561810478779717 -0.44334637384412034 1.0049015295212047 0.4199025409988833
P 2.120358751920815 3.232622709409299 5.949869591243191 -1.4969299419520607 -0.2366494771710763 0.017362659648163643
P 7.026309872025476 3.9344252938495314 5.931913938785431 0.5819643154610559 0.789241510117602 0.9907231811382937
P 2.4883610957119395 8.517299336651513 10.17514917272365 -0.13977442381888186 0.3444483765246261 1.1443177986697195
