# total energy = -340885.9634280916 ev
CRYSTAL
PRIMVEC
9.15713013992739 0.00000000000000 0.00000000000000
0.00000000000000 9.15713013992739 0.00000000000000
0.00000000000000 0.00000000000000 13.40238557668533
PRIMCOORD
 96 1
Ni 6.43762726634431 2.403600128843244 11.68734949743261 0.6319277918633762 0.011563793578199439 -0.21472542340447534
Ni 4.962129741311772 0.5594502829567273 6.138413462798122 -0.2767226910428783 0.859402801624036 -4.4222974374117386e-05
Ni 2.9264173129618043 2.2417936405366805 4.979642752567363 0.32391631800954535 -0.7508742231933132 0.4676476695936462
Ni 3.0859070473610926 4.693688473360051 4.963948347343332 0.22515973136392192 -0.37718443330506657 0.7686258907497795
Ni 3.517482587479279 3.463336477385521 2.8602167568461576 -0.8379718854437698 -1.0620586954584872 -0.2967497848970825
Ni 5.4709823020762 4.586852236853391 2.716958035492902 0.6849470243728848 0.9860237187800953 1.032580997714344
Ni 5.1982371829923855 3.0963736470291403 0.9252620620635245 0.7456517984521094 -1.8814553890032304 -1.1899011437264733
Ni 5.971547660128833 8.416712002352014 12.944532800220216 -0.5131811352490709 -1.604018188391831 -0.4641759089949619
Ni 2.67527386370907 5.696696401129312 11.810208880132754 -0.6869193176079074 0.05387386720032013 -0.517927648795121
Ni 1.0702762052508707 8.16615460942365 12.021430905139798 0.7666895929590151 0.06866979456257206 -0.564695243967963
Ni 0.4020969070023694 0.24447797427603135 5.220885512790271 1.20396687779092 1.164619229231233 -0.34994513797313925
Ni 8.666115596891775 2.6736530516869834 1.1212685997491125 1.6156879114202753 -0.5053377279452522 1.2229475326584807
Ni 1.7434717793507775 1.0804314624965967 3.051911201982591 -1.24973045717928 1.2200200745990408 0.5076290950825902
Ni 2.0940891325352724 7.104522734957238 0.4660896790585528 0.21496350755721044 -0.4821648893732147 0.13080847287484568
Ni 7.764632770189569 4.287752897433056 4.061847414361517 0.22474552664463873 -1.326284539585935 -0.40792171448792325
Ni 8.022177053360032 4.004907463883925 12.77456456188379 0.3875999722114357 1.2978494241736938 -0.6015967449800027
Ni 8.095040337313362 9.033948354604641 7.224837351211404 -0.1932317723070737 0.17182888115126538 0.4006714606834132
Ni 7.076108160355354 1.0445355126289266 0.5392276769139306 0.007904085338425095 0.15702086960415537 -0.3217483638239491
Ni 2.21293952369152 7.10952252797452 9.695567484872226 -1.7755997294189807 -0.8473309580611667 -1.4207011040953081
Ni 9.321592124309554 5.542105731316555 1.3886476406129131 -1.1147249155039511 -1.1854423366241713 -1.3996638238090349
Ni 6.748823174584846 1.9390497633491697 7.392742488143445 -1.2960074858689488 1.3640874693663216 -1.3082832179125081
Ni 3.774843728048378 4.739629794912626 0.5255157903496833 -1.8352531794155555 0.660715662629346 -0.014592553102194225
Ni 6.150743538435066 5.834776765428955 4.939583055657645 0.01648128548447484 0.8665507255227269 0.5523274664312294
Ni 4.961232342565079 3.365098786012979 9.717265304569022 2.3697713855795057 -2.363851677660961 -0.6622884064331045
P 0.1752500709598105 6.253175195378882 12.555716478955878 1.0438815103288281 -1.4295274441376864 0.03541437494355191
P 4.345131474440919 6.641730538436274 12.885120424624189 -0.3498731470846232 0.22823039986944563 0.4402222263928418
P 2.5769720724260496 8.813838419153319 1.734321974986549 0.212613262157479 -0.36360566617936735 -0.58044119394831
P 6.605257689374302 7.9976817304273755 5.993265625511779 -0.7365338953112412 0.24694288867728437 0.01757503276928586
P 5.010067317219234 1.324450664556207 12.875926666035632 0.0769204646071385 0.8466203051473871 0.8910533386497815
P 3.8199151222444683 6.773373440297913 8.15981421256437 1.3564379232408639 -0.6767840289461183 0.8182016447953779
P 4.833343864031438 1.3482592027337434 3.735593521436696 -0.030149527000186787 1.1546407778622823 1.7712944171754075
P 0.30682063149391015 5.857367405307409 3.717352518340676 1.688614938597305 -0.5345662857930664 0.7586533529180999
Ni 0.7936493787311107 7.75250872997916 2.7208049458345873 0.11304600668510209 0.7397899403546937 -0.18642014870187895
Ni 1.7908690845842112 6.845485839585643 5.034900538251411 0.7252320971451768 0.9033450115329409 -0.7704387755888021
Ni 6.172033865843824 5.779101414613793 9.250460453652137 -0.8831654512612725 0.8097853957072247 1.2423398211421637
Ni 9.035779780618299 2.8469792096194477 10.318711101731903 -1.0642029954949996 -1.4054840300352376 0.0630385644187237
Ni 2.1901382698214946 5.79143606881577 7.064277148307133 0.1842730204518891 -0.18572595084833177 0.8731304356227737
Ni 0.5484113626594118 0.3041165309847461 9.828089471220421 -0.5423423301940594 0.9808444885720011 -1.4438459176428875
Ni 1.7886164305874135 1.484187641467339 11.842910823032605 -0.7313199552104696 0.14517399756789837 0.5762698361794397
Ni 4.776194215275281 6.764408609961064 1.7668636681102068 -0.391837407331551 1.4326899010260679 0.5899519616522227
Ni 5.678244784041722 8.437791715769201 8.340733462749455 -0.10601121132550774 -0.4843582974801077 -0.19163100347885706
Ni 7.173988723655234 1.0547914983054039 4.987295366165427 -0.6616749412188218 0.02377601937367518 0.30035112909509565
Ni 1.0684997220176238 8.105919007834482 7.406185155083684 -0.20495960226696316 -1.0372205533688847 -0.12169982570535813
Ni 5.149576193809528 5.092261716712144 7.078603478298962 -0.06982807653673134 1.0845555910094224 0.37005142180471107
Ni 8.629908304601782 7.341957960497753 9.6569417945312 -1.5078409324376094 1.535467950126259 1.1353479910709414
Ni 4.3905142110593305 0.8941946668808601 10.765680693207882 1.2631166486781988 -0.1550730018491652 -0.060748997053598604
Ni 8.651216946270678 7.351188347606582 5.285244570049185 -1.5171539823084195 -0.41902682326214935 -0.04343673102739616
Ni 7.4552866022228255 6.592932192302393 7.446083686504201 0.5574892131378271 -0.5293022091806497 -0.6250660317465364
Ni 2.2358231917321594 5.733700363735244 2.3747551691281523 1.4133418355167593 -0.867334654876603 1.8206364579436451
Ni 3.4776490716822472 4.868965099997059 9.472886227297728 -1.6416383127374499 1.743416459818217 -0.5792543727290604
Ni 1.1227923461924747 3.7154780538156986 3.6787405636947534 -0.4327364595387579 0.054832631569163626 0.5780809212462495
Ni 0.594249208642217 0.458381206967072 0.762279798256193 0.82486003065216 0.24859893622346865 -0.5193844358463056
Ni 1.2125505351217867 3.963663750056378 8.465683418244186 -0.2930828775684566 -0.463984361809446 0.960721749680197
Ni 5.346536904448231 3.1304381708831537 5.0191530216729845 0.5614008894874074 0.21002621815659314 -0.19358092811637628
Ni 4.200082534159313 7.432952361986283 6.071052698302824 -0.06413848235112181 -0.9185623427033276 -0.6388965098717254
Ni 8.327439141316322 7.763048586687755 0.2013597959235063 -0.6760062702398294 -0.007745191163057629 1.7961199608595195
P 0.37428395584597285 6.115103988209308 8.373005936249104 0.8231610456831824 -1.3750064302716707 -1.9664833132088517
P 8.646665852626741 1.7762359907350949 8.28024878722243 1.2374976625585141 -0.10999230746044285 1.2033300155378694
P 1.8382480755575086 3.6015816700263925 10.769299591010867 0.9927021592415355 0.4246071455634042 -1.8699880117935792
P 4.241720004579797 6.0514527771046716 3.897949437547357 -0.3010494407137009 1.6193360496958242 -0.5575000117711044
P 7.286575637844775 4.2452546567861535 10.767114699776574 -1.7571397229415804 1.2299697296125849 -1.4465008387672313
P 6.477955267165029 7.925377031408211 10.401845938482825 -1.1512358659457915 2.095624425683604 -1.7473852146579776
P 2.581724622931489 9.305475575389375 5.721304356761809 0.14924868185790424 -1.2979270714891646 0.15169200119207424
P 7.216001636408518 4.168801777846058 1.5930476037190897 0.4035215285376985 0.519045307339332 0.12326357064805223
Ni 3.0328231643552552 1.7101764544225 0.8800047781270485 -1.1972534703264865 1.9701563911850652 -0.4383327226796129
Ni 1.7179417007204039 1.3552369358457752 7.272054260982492 -1.3929771558174784 1.7447812013762274 -0.2263126140214425
Ni 6.929008022938454 1.0019823292016148 9.610515145085005 -0.028830551078447123 -0.3058548325221442 0.539467836859742
Ni 2.6764276620976735 1.831508427827252 9.397256574350772 0.06483062332213996 0.9321817332589751 0.11349157886295293
Ni 6.5914029515809895 2.269045259619891 2.720496350551286 0.8170184231205542 0.20948962892683276 0.732112626315094
Ni 4.116111651433156 7.5197985835538805 10.877979157800272 2.0462813564741014 0.04485109487641953 0.024371743976145124
Ni 7.216871563765005 6.523548617775011 11.621852208906208 1.1320130131604376 -2.544973039857746 1.2890675642160059
Ni 7.808101666623708 4.272396390308545 8.504617703868512 0.5613906050747621 -0.7463897050593984 -0.6292049936155744
Ni 3.5704291135340926 8.960270086075235 13.058292742771506 -0.9595020183404831 -1.7761093220655475 -0.9013603770027444
Ni 0.3906926172153295 5.237631156546139 10.495502317682204 -0.2914911076013044 0.32558856350564574 0.9701350725742969
Ni 8.949721072236574 2.6042786342896704 6.207502177737306 -0.2891100089636376 0.6842685102486216 0.3638301234853476
Ni 3.588935673402093 3.081685610399614 11.697963526894757 1.9710971578317795 0.29056088247755124 1.0689063145079396
Ni 1.559431779238422 3.859364038578632 12.891177866164357 -1.184557877136689 0.3233583886235463 1.161426176215232
Ni 3.226386579738625 8.879375999052021 7.9610303173290715 0.9289038338386518 0.14449702610553178 0.7236925205721988
Ni 5.675671630492535 8.444586306279868 4.061459152046622 1.8401251627958761 -0.8932225783869585 -1.0025451134738865
Ni 3.4270742423151193 8.497459575294135 3.8297855927450706 -1.4400975063440489 -0.3755443265984823 -0.6055325896992991
Ni 4.219321664432776 3.030286639326341 7.224797059839103 -1.6742118757980973 -0.09403886945497998 -0.7216214969757829
Ni 5.153055903235477 5.072207601862603 11.354635249244616 -0.07239120927821727 0.06656097574968536 0.7086345977978118
Ni 8.286982940674646 0.4471820368935616 2.6992939315911837 0.12269047175340161 -0.3187208898515349 0.32892868362247224
Ni 4.828444799444905 0.5030432774491096 1.8008247163944489 0.604462753673888 -1.090529034984038 -0.30707713496501954
Ni 6.066845912749455 5.416927763283124 0.23680155213978957 0.895179445003013 0.3087720061689392 -0.09820097125246958
Ni 8.11500288086222 -0.22293582579039517 11.58081361479219 -1.402026153393624 1.2537871437471568 -0.17595575883544534
Ni 0.055039845988422924 5.088891892847015 5.855180682647103 0.013467695469131643 -0.3315059574313452 0.9789030485749142
Ni 7.673656682961175 6.517330926458646 3.0188741081222394 -2.3065549008220207 0.9124598293500156 -1.1848250147551465
P 8.825165789047785 2.106616086468684 4.0712160741343775 -0.2579760065629944 -0.561740017994381 -1.0688392087154301
P 1.6165722708645092 3.4217997353957883 1.6197992435005721 1.1994391651238956 0.041652899654096 -0.09823362426261792
P 4.820157596733109 1.4842700556379538 8.424793169637274 0.3678556997049729 -1.598091538494751 1.1813841073943978
P 8.790570151649812 1.8022697115192237 12.355658826928083 -0.668641602344642 -0.7110786884629302 1.0464891231550042
P 6.7169197334269475 8.214980426947736 1.808785925275814 -0.1813044247418684 0.24132734226271985 -0.24617310039079543
P 1.8158314211503512 3.6282014471348916 6.507139956405655 1.0567856199850059 -0.6955980763288278 -1.6498450169179586
P 7.021238636986202 4.160578675044739 6.3426925517873975 0.07668109490282278 -0.18639932276627252 -0.32720707294567514
P 2.4552097139080886 9.021384772150958 10.562848430769394 1.4951952186491408 0.22318666679795113 0.12810932877612774
