# total energy = -340852.45836665394 ev
CRYSTAL
PRIMVEC
9.42524229069341 0.00000000000000 0.00000000000000
0.00000000000000 9.42524229069341 0.00000000000000
0.00000000000000 0.00000000000000 13.79479481051691
PRIMCOORD
 96 1
Ni 2.231228223139615 5.177455339559611 1.643621849520017 -0.8963081592908176 -0.8850780949029531 -0.53128195861484
Ni 1.64977559032443 7.035500512599788 5.207990297568581 -0.9059557096829108 0.20759652566917797 1.6830924661171787
Ni 7.422227636119262 1.0516591288337935 8.055884801891228 -2.3860063593811294 0.639079572416809 -0.710026593049332
Ni 6.141817872696556 3.9655953645738715 7.372462355912033 -0.34169395370794053 -1.2991689143160658 0.4318591991401272
Ni 8.620892271656116 3.2029707211254737 7.156353799039401 -0.637479832029857 -1.2369114510377406 1.21642387260735
Ni 3.2066182899588447 6.385658320469517 6.865034634880855 0.048935292248122174 -1.0506401692089002 -1.4184483035053894
Ni 7.151110536656962 7.746408850651014 10.962364728318438 1.328975456154537 0.11387673011651356 -0.7201526257397404
Ni 0.27921526778693184 5.120941585748523 6.781286642971511 2.410983341041441 0.5460017813235177 1.9270374485084036
Ni 8.777596352854106 0.45493854575200027 2.3329209341751986 -0.11440817713995134 -0.6024822329087496 0.44606068745148986
Ni 5.708954187318298 0.4258136040155686 3.822441011941394 -0.9226591384805206 0.007692483548251269 -0.8168132490882837
Ni 0.27081737675196194 5.141055053165612 10.038872874075926 -1.872248782803298 -2.182358276836738 2.162230909959244
Ni 3.866950776950981 1.7663092881430251 4.93671579655714 -0.3211564958762211 0.14181433706704608 1.4996923351885463
Ni 3.7506715606789 1.7421429664666357 13.062029762007176 0.26491078600961476 0.291338384073524 0.5040629749978867
Ni 2.561309639453512 7.826759042652269 2.5079071581796217 0.07639158868686198 -0.32891788498919483 -0.24384239537508973
Ni 8.73048899102158 6.041844325886315 5.095879866038102 -1.3288147622069568 4.586772963521726 1.6207509277654797
Ni 8.920850613056697 6.603381421376144 12.110575098423983 0.09981459559649261 -0.5827209911214222 -1.1515999341534295
Ni 5.994105472808735 4.016661328241062 2.212368312970171 -0.005907880844002729 -0.331023618478288 -1.2656340157834138
Ni 1.319439692464019 8.138329282767872 7.309406541307036 1.054712539506061 0.3948412271548813 0.9446217587945409
Ni 8.068092375929941 1.0867681570102954 13.655219649262147 0.48451642032452685 -1.2850219333917223 -0.12867857101603644
Ni 9.597347390873718 2.8097024793363374 13.531632099983876 1.583927588289543 -0.17694974731759847 1.3089180232830298
Ni 6.255373193896689 7.995659387598017 8.54257887455122 -0.15152230838342937 -0.2640031865936808 -2.3475863648420345
Ni 6.98082468106908 3.289409619758144 9.853649894231907 0.6414586141719468 0.9260851334429341 -2.4982388690260007
Ni 4.505718309186651 1.8267250923339986 2.0443888142131064 -0.05011748548168143 -1.0843732997952875 -0.058998075800762904
Ni 7.70818949246156 5.917223770034044 8.834476748597025 -0.9501717420784926 -1.1687250238694904 -0.18524232634369386
P 1.9100348104687899 0.09443621686294192 9.563544701302657 1.7088693179709666 -0.3173476636530922 1.226986735724861
P 5.16478781368868 0.5382906774778774 0.33192028111852373 0.7906062516756126 -0.8366163998571398 0.37162416560846967
P 3.0895850542896848 3.0174253979892023 0.8818087194477261 -0.8585661646553536 1.0820839895404781 1.2938598433983266
P 3.5107331632858254 9.5821727505075 3.635315075643995 0.11666663415682489 -1.1703399337650942 -0.20056327297148038
P 4.87171932452891 7.890916668101249 6.569109354730401 -0.009680974733189778 -0.9080624716132684 1.5710599882982557
P 0.05909532772183836 5.539667407431547 1.438851859330964 1.743685397208887 -0.4149883915267175 1.5642861599095317
P 6.43970266075517 6.127595181819149 0.6036877223108055 -0.2952438897755173 2.4527306001815568 1.8760614716811692
P 7.3571934631211775 4.612694811147267 5.327218672207488 -2.27526071869443 -2.272453588262938 0.8340992898622409
Ni 9.352988554765268 1.2419736246565916 11.256414385218658 -0.12030603068162507 0.7914434028649272 0.5115202026068805
Ni 3.9247557889795672 4.550959473011405 13.373570783871141 -1.943773530316162 -0.9762658680623832 1.0394936656737774
Ni 0.40079901051746514 8.335345125982212 10.768120848912613 -0.7868912647178705 0.35125022993780797 -0.2848846580283803
Ni 6.229576305274116 2.378620164783678 0.20418751020480935 -0.08662715037194113 1.5765225540747236 -0.2217990424218051
Ni 1.6180784999197118 3.0086787729830835 9.388034433817264 3.439935740864263 -0.5378403285586478 -0.5639074579593449
Ni 0.4863161204372061 6.9303807834044795 3.2945416642795147 0.6148111867877476 1.7343862312951488 -3.397096277101234
Ni 6.384291660312311 8.86036883216848 12.729161301496825 0.29220073207381936 0.3417132369816502 1.3404849994560333
Ni 1.675685581856565 8.430662603015488 0.32788816239264257 -1.02179521995275 -2.0609214749847795 1.411113974627505
Ni 5.734374066242331 3.0747402974096874 4.400788027364859 1.6221884315429547 -0.08300420890737319 0.4608920960373675
Ni 4.419307686281372 7.526612196402418 3.9622654264115202 0.1708328357865832 0.5201897053564202 0.8855830595638298
Ni 6.740584675917174 6.037056302714861 6.545615995365905 -1.0471352413794353 2.3809011769440804 2.0061238104186097
Ni 1.4519114752883762 6.138019499983771 13.341097996011678 0.4476257179457646 0.5714202213966224 0.7837696883697534
Ni 4.753215751035445 6.327627102621806 12.315496835016697 0.7273920809109732 2.620796928966596 -0.5185089752198877
Ni 8.451624342254291 3.0285189083687305 4.859520233208415 1.5539865777557365 -1.4312292573201415 -1.9273745201328483
Ni 1.3932676166805391 1.6457227360651292 6.693206809625948 3.6455864556609794 2.1136666278972953 -0.6382154246443008
Ni 4.348109404712165 6.174834497046164 1.7241699716130061 0.6585384524723691 0.12311367533374926 -0.3799342281360618
Ni 3.621781369990669 3.8454612241342234 3.0575891836988736 0.3357760455616088 -0.8021330213682896 0.5059817892871544
Ni 6.385328436983295 7.727379286117227 2.3845542974386915 0.36175344346197696 -0.2173985993612643 -0.124456819625205
Ni 7.993623535225903 3.109726797434164 11.968268075088972 -0.257585198882479 0.03219046868961553 -0.24236118284387295
Ni 9.034858345895076 8.315750046900614 5.747077408034623 -1.9609240739535196 -1.0222359070345943 0.1946242817792261
Ni 5.103749943495116 4.11535304207627 11.341418761948384 -1.9742601289407933 0.1310133897968002 -2.4294919413685903
Ni 2.6892667311378577 4.989544280565004 10.573048490694244 1.2651457632930856 -1.0307917670244053 -0.5589606554770309
Ni 0.6023568780749606 4.910730403085297 3.987026480887356 2.182861698835718 -4.259280755235464 -0.127134109347052
Ni 6.502352247409991 7.998062824426206 5.2698736120111205 1.1648516569570133 0.0491702910770637 -0.9660184793027621
P 1.05043384731354 0.8239933396524298 0.08594972854881516 -1.1475324489522754 4.036164279553817 -0.016162982913107648
P 4.86488602374288 4.712489278350703 9.153673894914082 -0.03590339876482849 -1.2434034865199877 -0.6254614674127422
P 8.200130597600976 7.966186654414682 3.5840398715941144 -1.6572582786628942 1.680381494943919 0.5534520669539759
P 3.218739151766893 7.306410256727892 13.47977724352249 2.2478262766325607 -1.2105561009726635 -0.3923050909965889
P 1.3510519556865657 6.407091321831494 9.011229263039105 2.0244866291965136 2.3429267545828356 -1.7721349107988318
P 2.1757229702721204 3.8017563748310184 7.2618835262818715 -0.290184472974739 0.754582782393152 -0.6061010606082594
P 8.93671329612275 8.669790429556704 12.710648240250038 -0.8048977285976202 1.3239816024843714 -0.27705513468163256
P 0.4327647203323927 4.662488367081886 12.35150126122723 -0.11087753827887355 -2.5104768058530893 -1.7783631510967308
Ni 7.509100095905253 0.8631646473306958 5.081201935949708 1.6512604092082466 -0.4083022377557936 0.355265264634472
Ni 7.671826907037414 5.227512802283209 3.2712566027734615 -0.3689846711030936 0.33999059786358865 -1.5093200880862974
Ni 3.694544241808815 1.8498829130667942 10.819202835491991 -1.9449680648448955 0.24983178018930524 -0.9820845316266893
Ni 3.9168008843403816 2.799617469900403 8.100634910583635 -0.45664103407049744 1.6691588867552223 -0.8225200696650738
Ni 9.03721465651095 7.710338447743236 8.734091318691128 -1.0807128202245646 0.09947520997920287 -0.31054735290180707
Ni 7.289388268838829 5.260812183906721 11.211402254785767 -0.23398941384040992 0.17047159579242252 0.007389093375219533
Ni 3.3910702849693513 0.3991279150286883 7.99042837803078 -0.3563258446885025 -0.5853301466094951 0.2211308127101869
Ni 0.02702499771556598 0.7478703688960496 8.938723700340214 1.048976151242916 0.12075108863884365 -0.16185068689263093
Ni 5.910767478946554 2.0576718084169032 11.3194711423479 0.5844498008870709 -2.956753465970127 2.3165477503686747
Ni 3.4546529706280578 7.22045204546086 8.884924416358611 0.2795388203354347 0.7674889489318588 0.8230571731154663
Ni 8.087357571525315 4.689783869256155 13.850939521637757 -0.18630907704531138 0.025432581140491684 0.34447125934276157
Ni 2.332379925257794 7.145172633904962 10.988671522558286 0.9039376508116175 0.8453414384349635 1.3280760842687191
Ni 0.6672883159301922 2.9670851779917005 2.831809385534454 -0.012200398720933826 -1.1048305392083746 -1.064630312840405
Ni 2.090358549280288 0.21779379022510406 11.936567214587267 0.8367454692358364 0.26225715043685155 -0.3753293823741988
Ni 2.655646891270587 5.73472280021348 3.8583624960182483 2.6453807889535472 0.17966097560117447 -0.17237858300714828
Ni 5.103071326037744 1.357018134165955 9.27774495913073 1.2607707741538414 -0.10649894959520369 -1.6373263156256577
Ni 8.539250821437362 7.210555540874195 0.48558189404930013 -0.9738642005994261 0.71775250093868 1.423760202636606
Ni 4.095380953296134 4.188983036201057 5.80853281646932 -1.0930235192711175 0.4542393666075403 0.1636075216827376
Ni 2.0095088194284676 2.9632962305213773 11.812482955031172 -0.9537787427034604 0.7938563831817941 0.8738413456468692
Ni 3.0780108565445183 8.7186603117299 5.9086694199741805 0.25280988898102263 1.1899260834271377 -1.690015161378941
Ni 4.6912259313530695 9.059297999602906 11.077248066181676 -0.5185110321024168 -0.7697160384901647 -0.18033100508500557
Ni 5.556679970078147 6.464010361068512 10.010427492321112 -1.4748958449701568 -0.7852077063678605 0.4173558633176296
Ni 1.8787147297626114 0.7144823899933813 2.4373611033888887 -0.0899076208954258 1.0987431953637141 -2.0948980890405404
Ni 1.062083446998414 9.294957336917557 4.364617716886968 0.5386018893150208 0.4556341900725379 -0.014823438166077696
P 9.111758899154696 0.7402811636644472 6.731115134814106 -2.6607611280643595 -1.1291935414337715 -0.34757638063064655
P 5.356073109485218 5.638632453298196 3.6793205901817854 -0.40846858813032877 -1.4157933823810456 -0.3566906842270889
P 6.531438545652322 0.07682703636840284 9.91197423712023 1.4005523970615752 0.47493648994557564 1.3453783229925926
P 6.068121901874526 4.541769861609502 13.077562561587008 0.39335152998323225 -1.6754015252308243 -0.2187679689049652
P 1.9939194683938544 2.8689589787043017 4.5981083059107695 -0.4710988613670402 0.6224309081165346 -0.17328412554055317
P 7.95964553614502 2.47635050388761 2.3192222867787615 -0.584699969224664 0.3236021292032362 -0.24311580162171034
P 5.923416154332558 1.524212510225811 6.27374864660351 -1.2758101849854673 1.20477446129388 0.05372628587886231
P 9.115265089351112 2.938479567115007 9.372115199296427 -4.192524118535205 -0.21073609973942414 0.6309482015589263
