# total energy = -340886.3611566171 ev
CRYSTAL
PRIMVEC
9.15785678911993 0.00000000000000 0.00000000000000

0.00000000000000 9.15785678911993 0.00000000000000

0.00000000000000 0.00000000000000 13.40344910123131

PRIMCOORD
 96 1
Ni 6.699155280946345 2.340830574977327 11.508482447017526 -0.5679746860501832 -0.4274980939579541 0.3147097118096128
Ni 4.8652395439313745 0.3761809398752535 6.1202697635255605 -0.06974760100778311 -0.6366853611530195 -1.6855879788455228
Ni 3.0460679560884345 1.6537532235607144 4.704958737217789 0.5334249730997717 0.9629226139862578 0.12950929444744794
Ni 4.218960443795132 4.49363203765644 5.0173533741035845 -1.074761487737136 -0.04704938807931897 -0.8430752681086061
Ni 3.8531956500492366 2.790673650430309 2.1403431145215777 1.6183855128570968 0.10308709570017731 1.2535585726761187
Ni 5.54066810171642 4.822829509884373 3.0255332941701463 -0.5231156207539636 -0.29627207392971555 -2.416431765750522
Ni 5.657531510153861 3.2207082819956505 0.46365037589190755 -0.7920111024429393 -0.33574570654430563 -1.9018848605021763
Ni 5.968129375569128 8.161958035944325 12.839056741726615 -0.8908221964755819 -0.23337054930948842 -1.5569628867752412
Ni 2.312413745858812 6.553188204143246 0.17296443814418422 -0.0008674902066178608 1.8399796383569473 0.25135850124647674
Ni 0.852031412367769 0.2248977272992567 13.433204743004607 -0.20666012989783764 0.11275367225566388 0.5564435454821319
Ni 8.130848796977004 9.125227185422592 7.040429218710401 -1.5782655049077592 0.8636438362885771 0.14417640954131944
Ni 9.053365484458043 2.876757502739058 1.3700464883496397 -1.8580825186052452 -1.1604337303949757 -0.1058731430857467
Ni 7.325516042915404 0.9344951639512357 4.760436116888125 -0.3440513981965236 -0.7811751881696998 -0.4244631637863722
Ni 1.0100749547069912 7.9068842552682 2.296627432602448 1.1954727242769798 -1.5184685873547847 -0.0030153897875560974
Ni 8.123183670978873 4.092966652298987 3.576616474652194 -0.022562458681548242 -0.1588368397669716 -0.001089119299120705
Ni 7.835068343586795 4.166531714596452 12.590637059676826 -0.0058497739125576665 0.5057107950139549 0.3418358786024435
Ni 8.589858886915204 7.92968731827339 9.30886968439571 -0.18209272497111864 -2.556171736787043 -0.7277044699450693
Ni 7.282986956732231 0.7847028504343735 0.22609191180362487 0.14991768290047083 1.1835356065197618 0.04775232768361454
Ni 2.126939675559973 6.504752300434632 9.051201482936706 0.06417910578107011 0.7387555855529084 -0.25188557739454037
Ni 0.35676719960830494 5.159911896669523 1.0943107515480899 -0.5853725698116563 1.5862922318669777 1.074575082757943
Ni 6.253790397384744 2.181813552478486 6.67435488941046 2.213799526065155 0.6882532059279824 0.718618191373085
Ni 3.681430891123398 4.685855448290549 0.10019244623075457 -0.12348648529213573 -1.5495326557494409 0.7797317708549539
Ni 6.451590942705665 5.786007080796354 4.863052647768467 0.2247766369928903 0.6449910528052376 1.0612999629155915
Ni 5.660819180683524 3.0815821240941075 9.172355347204642 0.5756358021398666 0.014550129900033005 0.6379750264987206
P 0.5996399678981587 6.052106920853301 12.340179754527174 -0.9396456457361881 -1.0726030466332364 0.2844794521701617
P 4.391109832699371 6.349728103425855 12.386824381479233 -0.469242781994908 1.6101867790963882 0.5704043785375982
P 2.796763625088322 8.796927183144259 1.1688822622890376 -0.9777949031123999 -0.8873002993652525 -0.13013098719184688
P 6.521172337369693 7.837421912740343 5.881876102912751 -0.07995153812397843 2.074354460561234 -1.2728909544561433
P 4.7801722137084 1.273583121338047 12.68629728266209 1.79382936505313 -0.11759325973615233 -0.1542466492931279
P 4.34538465455282 6.435335747189917 8.246833966963763 -0.8736022330528698 -1.0275493488277077 -0.08322326689671475
P 5.077289714166382 1.2477121763622798 3.4718954683186016 -0.4006802024341616 0.06582589735587373 0.826705568501331
P 0.5073425098669118 5.976545445810803 3.5294095553031366 -0.49628075994930654 -0.06246417997249243 -2.0210063839573973
Ni 0.9163259764001126 0.2441319735762848 4.551905310955485 0.18173945539675798 -0.07770336551975006 -0.09348993893004544
Ni 1.9611824705824896 6.7744145467201005 4.771842227319034 2.159605813631571 0.9778805208476706 0.19225141067167537
Ni 6.271272745688723 5.877027017827912 9.164072065884081 -0.40172689853112103 0.12430075366331497 -0.6060735498044337
Ni 8.874540018071562 2.4001826437872205 10.305563178997007 0.12687699903092342 0.8568756643268082 0.16993732055550734
Ni 2.932089272489 5.398703008260015 6.691444365665073 -1.4048461393409224 1.0279820654897522 2.3407744841265234
Ni 0.7411609053080781 0.5004732016098061 9.058466410600168 0.1922318702876496 0.2274295012347051 -0.24487906416972016
Ni 1.7527130222892608 1.2905617875274535 11.403868587606487 -0.324371403269093 0.35121886247924033 -0.4519320586306023
Ni 4.463914792896664 6.994239737232781 1.690965258185328 -0.4900715458148012 0.08645540068076724 -0.6682279118459911
Ni 5.5864299112894855 8.411701944062608 8.168235746663223 0.8302120389926927 -0.3890459606293428 -0.7588785815550285
Ni 5.93635161306792 3.0292816048882285 4.505462156849252 0.16446704146955543 -0.3490995021433923 0.26416053810715157
Ni 1.0176210285689493 8.260121101146183 6.826939433413379 0.13913781867614747 -1.9171227604978531 1.1848769510390045
Ni 5.3608902182405656 4.528505155698111 7.170818781388269 0.8239447179267423 0.9929476995934383 -0.287203278859228
Ni 0.7439366516522038 7.884648979373983 11.411696723452607 1.901027397597887 -0.4382987841178839 -0.6436911030468915
Ni 5.162256307966443 0.861996076165338 10.311286839389874 -1.6184107096680773 -0.8167541137155739 0.7961320665898483
Ni 8.692756563994044 7.587943582464287 5.114796631774436 -1.4313287590124832 -0.6745695377933028 -0.7017815794317204
Ni 7.44072187930307 6.404400507498539 7.04927570821362 0.9487746046206499 -0.889460540241365 0.7638852907410005
Ni 2.5176596286187767 5.487644111836883 2.499234021082053 0.1272742344693421 -0.1683949157690519 0.1699524900641589
Ni 2.6892229146987865 5.558113818593885 11.166480459651497 -0.7969779595299112 -0.6096383843375565 0.503813577991242
Ni 1.4760908049660635 3.426384584017159 3.6457784394826334 -0.2461245065410471 0.6130574373214346 0.906691816517987
Ni 1.627790700018661 1.4398623241433606 2.2693644934191344 -0.34265014697362284 -2.386758664166122 1.4197094296060002
Ni 1.038510099538764 3.4389125318850704 8.273091373489256 1.2630055770216315 0.9125179362814607 -0.5525390682214032
Ni 3.770436099696667 2.6769055975333322 6.816765970484679 -0.057093402578882325 1.7865945378675874 -0.8073932413259645
Ni 4.3836187059771845 6.985045249177676 6.056107072628669 1.1380615333473627 1.3546384081382798 -0.9091541620155503
Ni 8.50297830107977 7.623631749745903 0.27181434259318743 -0.45077660486992044 -1.1448551592304284 -0.41794104639713825
P 0.2537495546076303 6.189419823142383 7.93679839394549 0.2761894442472275 -0.29169113942725244 0.3499075998669845
P 8.73325260600567 1.9620890983887198 8.000197319599557 -0.950490558870492 -0.3166652928740869 -1.077246458942519
P 2.0069351222989265 3.379496358078777 10.3877796684515 0.01632367686068802 0.3938464673417798 -0.4744477232346152
P 4.204344504615902 6.434383330100544 3.858799342520271 -0.749992077698676 -0.8634759432521452 -0.593171754141101
P 7.064681970419897 4.289695728394363 10.45985016854718 1.161339787149013 0.08890283377999529 0.11856436540017
P 6.6270096864263115 8.147717568886867 9.996011140808724 -0.347653256615169 0.9305830213132876 1.1469148699729343
P 2.733748413626992 8.665182257685359 5.722227188306537 0.7797811360356506 1.2907575503239188 -1.0421066778165924
P 7.153018655459278 4.418894769710514 1.5125528111327955 1.2202057082472855 -0.44609154068942525 0.3195233311481723
Ni 2.738006816959287 1.7000828202447527 0.21978947487182904 1.204760577336809 -0.16993732055550734 -1.0083012992313731
Ni 1.790351813032767 1.4072695124022077 6.875781945956303 -0.2784000787453012 -0.6513015684042976 -0.06328307632936198
Ni 7.1644568183883885 0.9807606556388736 9.223743743890314 0.7926320238563898 0.4507128415115206 -0.9220251044409475
Ni 2.797450464335466 1.6451082069033254 9.041108609146338 1.103539588311093 0.5180130094200756 0.6864351788826372
Ni 6.6605182838303225 2.280352089802117 2.2799134284696074 0.9201672252966022 -0.6779142858958195 1.0083900022904375
Ni 4.615065216551546 7.280578440438912 10.360423319130577 -0.8600152383970544 0.4467538568637725 0.008256069361205137
Ni 7.196289528029367 6.580689247598902 11.21890094677921 1.1486079414046413 -1.073638944096919 1.8297713303653778
Ni 7.747629128497016 4.15174177614128 8.111713455551564 0.6779394827068002 -0.26149533257016255 0.5999473823020377
Ni 3.506872985925839 8.683836811637798 12.266581723945844 -0.7625819985485448 -0.42534993726669973 -0.03932168041775808
Ni 0.2923370992978582 4.894343212297034 10.144253029198365 -0.3444869430720454 0.9450899566802111 0.6455248138215205
Ni 0.06342914658094184 2.5600147155260062 5.8021917608160605 -0.7665245281360604 0.7986106100373278 -0.29430260890817056
Ni 3.772084513889813 2.791497857526882 11.622760592528715 -0.3036513971129222 0.30814439988726927 -0.5021865839107803
Ni 1.0623846317694987 3.923619567523096 12.637482243689053 1.8116118858475316 -1.3353592481936936 -0.996014254333904
Ni 3.2617080061218493 8.506714706584233 7.821394747854647 -0.4574583877654702 0.04627574313808805 1.2753743829996294
Ni 5.571878077106656 8.171610416830859 3.4612265653462937 1.3728865557151904 0.23758870115589406 1.5181675111745985
Ni 3.1968154340516586 8.946703928304853 3.3835395517802995 0.4076849158867688 -1.057099551680999 -0.4464154996877473
Ni 3.7038584820068157 4.3098521708338895 8.922877016928586 -1.342999538347771 0.49802319656171007 0.6882454926184985
Ni 5.021060474466838 4.659673136189409 11.217654562492058 1.2800753880197244 0.402672550273842 -0.3034171696149291
Ni 8.390318348834851 0.05710839393588885 2.3127782285526295 -1.1511571901890563 0.92960394522947 0.5209306972875029
Ni 4.956277796676191 0.3754684586295491 1.3688541354165973 -0.12332861955803277 0.6651076210494546 -0.15398593943257352
Ni 6.1179152785863495 5.797353665159177 0.20765256748195837 0.3441352161595815 0.32378570596895206 0.05913897225400138
Ni 8.161307828123695 0.05738679277739799 11.419550501297286 -1.2174307166053098 1.2286139869156387 0.052978866189876496
Ni 0.2858542525904792 5.164875454962219 5.472829447168813 -0.39235702728044686 -0.6268640041872237 1.8372542690059843
Ni 7.670117029992627 6.513351527808878 2.803465344569124 0.12313784370346535 -0.07208473378139199 -0.8380819286590727
P 8.996742456923469 1.8417182308625297 3.606184446348923 -0.9192809660369071 0.5247169038028124 -0.7867971623421676
P 1.9724008449525123 3.3264723681992394 1.4382706886613115 0.20192107255095545 3.1552035492533466 -1.054100616953675
P 4.822408248479459 1.4679311547099896 8.05886346494797 0.1289768189827456 -2.501610613711711 2.0559517896843302
P 8.897947499614238 2.0316430194828627 12.553710750179022 -0.6509089609515694 -0.6194103761226559 0.09344494462472294
P 6.631936613292494 7.909567507260377 1.4332036465887126 0.12900587244846815 0.32207180860163886 0.5165148276079943
P 2.0714980115304877 3.748347349508507 5.9475928820795145 -1.0417624071032963 -2.4870712824449557 -1.3583803916792154
P 7.476135310885828 4.072489684877459 5.967470009891869 -1.3483140085821488 0.34322093187542824 -0.9031300673086575
P 2.4019684258297955 8.722739386596048 10.051701898538507 1.1693914538088959 -0.547527988160057 0.5428161845066845
