# total energy = -340887.7032847916 ev
CRYSTAL
PRIMVEC
9.10683263333275 0.00000000000000 0.00000000000000

0.00000000000000 9.10683263333275 0.00000000000000

0.00000000000000 0.00000000000000 13.32877009163522

PRIMCOORD
 96 1
Ni 6.4287682881224475 2.240918355212275 11.348234761019306 0.2846028651219034 0.8849683087979662 -0.400149269631356
Ni 4.868977280987515 0.4234458703349383 5.54014357531214 0.12904598165778422 -0.773893566906622 0.46617699858539063
Ni 3.0034698956493235 1.864296176571405 4.581285146327296 0.6262178859627925 -0.5976609002607063 -0.45144123503711286
Ni 3.604183909811421 4.444380306982488 4.831998986269185 0.7007559663806835 -0.4024408938790101 -0.12245238760066654
Ni 4.063140964095296 3.014807902526388 2.4939462413770244 -0.8723575620124912 0.03630886173336328 -0.11406724886076484
Ni 5.885008406497829 4.472766304922898 2.993828491729044 -1.5685009693218277 0.7218395265238601 -1.1516248738540942
Ni 5.404431731068452 3.2773214657699734 0.3920455107268108 0.0856627295761428 -0.5492817376263701 0.05172442495748511
Ni 5.850630112553317 8.252693874745237 12.286260399215417 -0.16187228415918573 -0.04360410984319587 -0.059557290738342594
Ni 1.7190968338823143 7.170656424861456 0.0444276839757105 0.6011576005600551 -0.9706436367795993 0.002875264665266016
Ni 0.370905819671606 0.3205996751022046 13.697177456613149 0.8464094746881616 -0.6032337663627934 -0.47640330429908917
Ni 8.470747880098196 0.1255604576847614 6.828569177689827 -0.716388787821934 0.4448723235703435 0.2529914088642094
Ni 8.996840506026825 2.455529977754366 1.3299955622104072 -0.4802090511984246 1.109587851387702 -0.035974104101763854
Ni 7.324744036395539 0.6842846870205379 4.5641579258183045 -0.9115673994427332 0.06423129917524423 0.8851752826024497
Ni 0.8465165391571576 7.66227058168441 2.1437329672685235 0.601461504953719 -0.012395288340559297 1.4166346473354183
Ni 8.100846544088068 3.952729722828202 3.406353448130668 1.1841529283887864 0.7122932775963217 1.1007316865486527
Ni 7.514803637619907 3.9915612580280446 12.621119553167508 1.408466252592013 0.3010311858812557 -0.9256117933509413
Ni 8.705931838009997 7.462575951322745 8.961972264475898 -1.139863619553108 1.0028999257101439 0.31269730936527435
Ni 7.0075894761540525 1.0549992632026512 0.20622969360261342 -0.023054824936934486 -0.5022452050628575 -0.16144599525504455
Ni 2.423410178352433 6.670673088664991 9.094167049879488 -1.772510806081012 0.18817698349198558 -0.48625037229649803
Ni 0.4060782294391552 5.099935668464812 1.1033474387129611 -0.5849015437125088 0.040286358323872555 0.4098235594963265
Ni 6.610668167128463 2.123003083690803 6.721312543316079 -0.8168962957203931 -0.5474994489149667 1.596610068853218
Ni 3.446280535320318 4.832413347163086 0.37057979505618516 -0.10807580716402032 -0.702316625999584 -0.7899408501774717
Ni 6.25571114379726 6.075705486020506 4.570688435642838 2.241577981730004 -0.07416475623887227 0.6366246831184134
Ni 5.306223645797557 3.167401993475861 9.055299998031597 0.8183769940309776 -0.25775309191891094 -0.30153255099770654
P 0.3633480591035129 5.869080555872941 12.224348506883663 -0.28928201576512763 -1.4160669477574064 0.04591398892329512
P 4.106899295857781 6.714331245266314 12.70347810657588 0.29748332062899735 0.625916809782606 -0.2864589444940357
P 2.7825108106226426 8.619325857768322 1.348244744524423 -1.1484202508738672 1.2188751623613203 0.44286249222916635
P 6.608327711090385 7.996946688296557 5.680362391124872 0.6808389157417822 0.8141722119210107 -0.0738780782363889
P 5.0038676889096685 1.2546210389016517 12.55943351029001 -1.4794806361273616 0.10329304106339629 -0.31334522736191844
P 4.377800252140545 5.983143637106061 7.762142485313892 0.22724566735867313 1.6560953687030446 2.4084744585766584
P 5.088734264080243 1.2791912738850415 3.4774759911897037 -0.8807784390863348 -0.4467785394541209 0.8480896906040619
P 0.5323881794660712 5.758632887274516 3.3089476748323587 0.4594059984101443 0.43956119577007524 0.930237979269043
Ni 1.1536626901151954 0.22058297283067888 4.60706294734434 -1.5736691437863286 -0.2903600793206547 0.09510587726691362
Ni 2.192533752370633 6.531092661833852 4.8354113165317045 -0.25818837968411656 -0.22526694636574754 -1.2433754614955295
Ni 6.542558164370578 5.920097033403315 8.981431744873417 -0.8793141958359825 0.32508102774160785 -0.8302534337535895
Ni 8.936453097511311 2.6903041281886835 10.32225259927239 0.2658541237594905 0.3905055758940049 -0.566718702155895
Ni 2.5536561015297647 5.355209299606176 6.924536071400524 1.1200746098516388 -0.32722481355748806 0.9542256004328921
Ni 0.8078835329130746 0.38493307428425066 9.136099461658961 0.5087971472487625 0.43382892127198835 -0.10982312887243022
Ni 1.449461727363336 1.0468486478171308 11.63345712261522 -0.339113594575274 1.2146528967498564 -1.669612686463189
Ni 4.3365189789086305 6.951127112589554 1.6118483956581162 0.4888325312013775 0.823018349457731 -0.0824737903251999
Ni 5.98942735176082 8.154595071468338 7.89428445108705 -0.45543338691564145 0.040471477751485144 -0.5825608113944741
Ni 5.551771179473294 2.9100975386127423 4.750973673187564 0.634259011099714 0.23132729362721452 -0.2496150361928088
Ni 1.0416304326038313 7.589980542656186 6.796900166513126 0.13974896989758515 -0.6016209133497187 0.720241843019437
Ni 5.571869959535689 4.530603800245177 6.887735359922439 0.3697727142220277 -0.7203894243408948 -0.6221488580997414
Ni 0.6992526774648298 7.582230627915317 11.021440618224108 0.9018447728383306 0.8924931564201016 0.1787556901780857
Ni 4.823552398816593 0.6148004631881563 10.202614314978918 -1.3917147441652868 -1.213124890141104 1.8047452406346856
Ni 8.55186244014158 7.435674367134113 4.627962218012754 0.7357479090748361 0.3104146839786847 0.14200562714224577
Ni 7.855153301087003 6.595969738936027 6.839978217862989 -1.1468608768065474 -0.8642441888767374 -0.588257347558619
Ni 2.63562670385945 5.406098281476888 2.301864923263734 -1.0332176028570785 0.5897763553063069 2.3540164367380942
Ni 2.6513724178276785 5.711158967716173 11.383276032394063 -1.5653089447470911 -0.5336432597581648 0.5501260879045364
Ni 1.5414316321436372 3.6357208719120426 3.589784185735907 -1.086943631625625 0.6662587039347623 0.7155369813446
Ni 1.8000656846003715 1.4597979826287721 2.5607630738726246 -0.3626818688135173 -1.6506073490052797 -0.5145625889776301
Ni 1.2227653376518752 3.7370252803461526 8.358711979853698 0.7195175632589028 -1.2464021641369953 -0.3590815530567687
Ni 4.09037950109875 2.473880245912828 6.573310117480997 -0.27509621118304883 0.8601435364448026 1.558082087981349
Ni 4.610088237211457 6.9854871928684 5.8447461878599265 -1.793309745104234 0.8731098667974834 0.5986734006856206
Ni 8.239170227988255 7.231107581206802 0.05993388824043167 1.5838576542835563 1.6000656315019863 -0.08492610852043438
P 0.2892667060570412 5.719610108585181 8.068224958197037 1.8046393111844403 0.1515559898348422 -1.1512636338599336
P 8.762111889756673 2.0245582207662505 8.031543546229061 -0.09889876865044257 -1.1493106238986208 0.13500117079995458
P 2.1899474118460653 3.3409600136068627 10.509735877488307 -2.609614172876899 -0.08206241381939415 -1.1858424002760675
P 4.326592531120678 6.1624389619218425 3.694361589890191 -1.303106301697259 0.2861061891403073 -0.5849599077542699
P 6.604730512121356 4.345124935935799 10.451022304847497 0.25959605866492064 -0.6896603706881542 0.05211574685863282
P 6.775347025247305 8.17975725058587 9.953646254891114 -0.6126835989217835 -1.321521828089969 1.0260691647377553
P 2.7302375901613165 8.442170638668292 5.852516137633028 0.49041993029315534 0.7092290368487012 -0.7042763208291162
P 7.282725109704153 4.218412463897666 1.3867520764754109 -0.39580436239909894 0.5094126693455743 0.08419668655357757
Ni 2.8015531980764115 1.5575234057595195 0.23409295933841007 0.14753169916679754 0.1028109592206552 0.01649748343439094
Ni 1.831475151041332 1.2466980943369559 6.855293178638218 -0.6718395404566494 0.22384101255249836 0.10679128402464189
Ni 6.824451067882752 1.1485992910600566 9.231213045133206 2.173424721792534 0.42730680388275444 -1.8538782507159104
Ni 3.0396604493276005 1.8701154427516815 8.952215203778639 -0.4643504868996132 0.16106727175938712 0.5618153513170067
Ni 6.663979566532747 2.150032163539098 2.2904695433398214 0.663143298234232 0.3973367398832254 0.9804477673542149
Ni 4.421877323052185 6.979303653374805 10.342459750645498 1.277968883199683 0.698543532110397 0.014525190199368532
Ni 7.246279564706552 6.300881034648858 11.241978056890622 0.38602311464261907 0.43624138736822293 0.5306450963617894
Ni 7.851929482264127 3.9987101218019365 8.080206818155393 -0.49843483017783186 0.12057471096197944 -0.09869179484595907
Ni 3.0450972285288915 8.657219389186368 12.200556906107492 2.154005436725658 -0.4026244706447259 -0.23025205828516476
Ni 0.2216930957530196 5.178846374962615 10.04544130848102 -0.06463881902630804 -0.39693924733449054 2.3727980882209714
Ni 8.6095177988072 2.6168119872265057 5.808878016063937 1.4903006095610012 0.4656339815977271 -1.0038630609543615
Ni 3.7349580292930655 3.0627826978905457 11.792829429242284 0.5662944701342828 -1.255021273264574 0.17710144240411435
Ni 1.1417509527696532 3.640693202638852 12.674234244982602 0.34951164998014644 -0.292721894684612 -1.4388011561301286
Ni 3.38121221472865 8.538866989688913 7.966459744021578 0.8059215418764444 0.47118293644041437 -0.5680135097079185
Ni 5.864454284793786 8.28182663297795 3.278144723458075 -1.074535487769259 -0.21354040195743865 1.0905755719512573
Ni 3.220230730739999 8.505763652341017 3.613936417092263 1.1158032361697945 0.04295182097117764 -0.6731759998798859
Ni 3.573184250847945 4.612383159085369 9.410538422497337 0.3071043886585292 0.1506267931523535 -0.1062490383679267
Ni 4.988686598577084 4.95250515173164 11.976220096783058 2.010725827966995 -0.08459932130863494 -1.9261061949433862
Ni 8.0514055486378 9.11848957900982 2.301958723641914 1.433181753060822 0.8947004484840656 0.9196920854323968
Ni 4.771816481492412 0.785844086773971 1.3468322747520274 0.13116122822857412 -1.4578815698003473 0.6470582197469114
Ni 6.358618354809975 6.106349978503496 0.2898595608744684 -1.4744633854184284 -1.2335535903091013 0.8349755218196071
Ni 8.176014342291515 9.500339079696822 11.041219748454065 0.08172302820210442 -2.1776382456532493 -0.4060810617347587
Ni 0.5710421314256702 4.953215484692613 6.0302159453364705 -1.9460152751624875 -0.46437002728363896 -1.7321411440147139
Ni 7.693935039444694 6.611615277743093 2.579370154716977 -0.2225911993057973 -1.4073362527526279 -0.9305357130151201
P 8.745810658985633 1.8734485435685535 3.5793614155585574 1.5819568377164175 -0.16136809082925757 -0.7440464016382025
P 2.0972944946032905 3.2580605143282133 1.4056387370877357 -0.21745336385859967 1.1296419418250998 -0.3236664067822684
P 4.9699538434396375 1.1276626823770275 8.108864199714226 0.10729290625140878 0.6795721332142167 -1.6398177145889437
P 8.590284167863938 1.916478328704401 12.326646470779849 0.7244396831508684 1.3545754161108283 1.7529310841768713
P 6.578329803738537 8.096584546322232 1.3119030174211186 -1.2093422831702205 -0.5028949228317146 -2.1189258194137057
P 1.970918975379977 3.213737558930082 5.903325890058093 0.07250768025142351 0.8153140388349379 0.5366905312249208
P 7.429244943154026 4.617382810310677 5.748711903586265 0.052165883370277895 -1.111925241271627 -0.34642992573102915
P 2.716814118565499 8.691224302984729 10.068006218874588 -0.8692280152445739 0.13404934840964655 0.10147424268710266
