# total energy = -381162.33442576864 ev
CRYSTAL
PRIMVEC
9.40820667984539 0.00000000000000 0.00000000000000

0.00000000000000 9.40820667984539 0.00000000000000

0.00000000000000 0.00000000000000 13.76986147206720

PRIMCOORD
 96 1
Ni 4.6071235365429315 6.429352043799161 9.153996917624836 0.6692900345619184 -0.6973813934814957 1.2701956670121675
Ni 1.5951990723046328 8.2178709465868 12.649077012508728 0.845980357570543 -0.6346642169579328 0.5306268415293441
Ni 4.244606517457318 2.7186048051489142 12.038012108195055 0.1081079459535364 -0.4045471415887355 1.1311619780140518
Ni 9.07262533820847 1.93592668476193 3.009197025127095 -0.40029530829091703 0.27974656547086657 -0.597440556719784
Ni 0.26971258693404315 8.300108081016036 10.561043146545027 -2.4904147449958915 -0.8806948782335929 1.91876800941076
Ni 1.7602472417694652 0.7948645704757829 8.034769369358981 0.9320850597801109 -0.4926002257739258 -0.3091000789323193
Ni 6.535749452935443 5.79913391236376 12.607285758517804 -2.937473791804909 1.2210171484049874 1.74984498905238
Ni 5.605719999814137 7.866417978535253 6.0638065229891716 -0.732646387331377 -0.7442410341475117 0.7869894808586317
Ni 9.040007085712627 1.8939190420177885 6.880194247844748 0.6290229595117554 0.30979221990333744 1.184234175248683
Ni 4.159085918903176 5.368322721121433 12.911351471256092 -0.9305267141540554 -0.8646601933682334 -0.36837223433007527
Ni 2.543028852429727 5.404045681815612 3.7458295004707693 -0.5625175195903538 1.2001786143930815 -0.5454356244074026
Ni 2.3258404016461864 2.0861381123213847 1.1710018503454263 -0.01943599723742459 -0.4593761736134733 0.2890033081824442
Ni 4.034201383676807 6.1201513318649585 6.910763392929689 0.2974103012992168 0.04468988670820691 -0.39309184856394236
Ni 7.075018450572947 7.283316146061254 10.275538884729452 -0.42080551242912684 -0.08655670214532189 -0.17980572870915484
Ni 6.534074792149674 1.243463858053238 12.479143161324517 0.8064496464657724 -0.49476869418015434 1.3513826202051435
Ni 2.3922811570905598 2.2755064960065092 5.9453167458307075 -0.43503065488957343 -0.22164014824643766 0.8028999814413011
Ni 1.3170736669737675 5.9562885964394905 13.590660684231171 -0.7083630893039801 0.6288887479267363 -0.827591313540394
Ni 3.9395360082475674 9.009373964822386 0.1031807432786731 -1.3703954138622203 -3.1861987120832804 0.6726003298820739
Ni 5.248838496518835 4.47932245725146 10.908401663057434 0.8972075311766355 2.432661083125191 0.25191180264678553
Ni 9.144118300630133 2.8782808886099605 9.470153116743978 -0.27772927793052166 -0.2878702230192655 0.5110751446496616
Ni 4.099842441554943 2.262579620053441 2.750102540231358 -2.689245351546981 1.435147104317309 0.2312470752085824
Ni 2.903937068176203 5.422325827359142 1.4216280084250372 0.5315850916775554 0.009171382086622914 -0.3100858398843563
Ni 0.9980601954914933 4.13120940256479 1.7412266703616641 -0.7550082999663449 -0.5841019306293489 -0.3909138670760171
Ni 2.1865330856075516 4.537248785667066 6.170082566259519 1.1772325471198692 0.7658231311936617 0.5000237719315065
P 8.965089536066131 5.656750112746774 3.7380771381815925 1.5133088975307163 0.17152626230918203 -1.191362044542716
Ni 4.070893389657132 1.2550641768670177 9.370363091146151 0.2986755411648856 -0.4993671121841141 0.5080227309765831
P 3.3997683756569983 3.511857749823561 4.56941826670515 0.31303669498256415 0.6113499677120245 -1.2791130241064552
Ni 7.120422455921934 5.318581532501438 2.534990480658037 0.14005004607777172 2.816148832940466 1.5338062461531197
P 0.8638032047888171 3.9016679764345397 7.919501902982123 1.1548546936453015 -0.6851905078422587 -0.6495568177990491
P 2.231457272416796 7.8516753186964925 1.1834677241720752 0.624711219510279 -0.21135676404255857 -0.7156159142116515
P 3.881355658252098 3.5451157603723944 0.5289999400663431 0.053913719299320054 0.30710387443789694 -0.315377941521231
Ni 4.781222400816244 1.5097349229904597 0.35457084773920766 0.9784577335073793 2.029746334933556 0.9024068159893877
Ni 6.466203989292734 8.16119590965719 12.930974167890238 -0.23227963023815482 0.7160257480555604 0.811149623044603
Ni 3.4295453497410313 9.150318308820143 2.4913119404107915 0.2758886251773571 1.9399528710184915 0.4743150543114928
Ni 8.501547193848022 7.0482238780006465 12.278117068764974 1.0881430512503647 -0.46844419735301257 -0.4080543834110456
Ni 2.246303422528835 5.633351902779321 8.344962647095985 1.0985153956236242 -1.4251064322518554 0.6737593831871815
Ni 6.581934339437344 6.191136251126896 7.5656159726878816 0.464832054521722 -0.07269922743693931 0.23858243252773106
Ni 9.027014352312927 0.15680658042925155 12.877106539828455 -0.7353653289244367 -0.3177762665500785 0.4398638146121585
Ni 8.025595427043234 8.778675329272756 3.1750956964741373 0.20726639602326885 0.2372454588838624 -0.23628103808806403
Ni 3.960760922476186 8.419996858505083 8.259218133223296 -0.17969131461847762 0.6679299209895981 -0.5005670460294863
Ni 4.3540804101719495 7.136265875940105 2.227398572062972 -0.623357790806178 -1.3372374390530133 -1.3302651215002381
Ni 7.993400543847165 3.351955869402636 5.138113312318208 0.026738444436108785 -0.6636377213721474 -0.05881681302789225
Ni 9.324567704400042 5.763966035862617 8.243354955971135 -0.7469296367232684 2.266025830359723 0.5567957866152281
Ni 5.855620785160138 7.734609003205931 3.673137932520414 1.2920968379606328 0.37974139539896534 0.9970097854779538
Ni 0.8406853593798798 7.734185633906159 4.6713430143944965 -0.5017034736267748 -0.5789265570759966 -2.1257377001292164
Ni 8.253810296034196 7.430131211015863 6.134913748937709 0.6448414146012508 1.5559946093247008 1.2784375953059854
Ni 2.033057010336514 1.6740022113023776 3.780941868552608 0.24837370758654 0.5704483444016563 -0.36232577102567926
Ni 7.237093626732706 3.320805297146006 1.7756512985365385 1.0124050369871016 -0.8886154186322502 -0.21454930283792728
Ni 3.962614339188526 7.242653876869725 11.546910306203058 0.17239272407453538 0.21918294495519672 -0.5251637615322439
Ni 1.9449397467437637 1.298897011703514 12.592401034758451 -0.41521362016364616 -0.3742580036868909 0.8052720812179034
Ni 5.938413003782409 3.896747484350511 4.02253426659573 -0.5488605909285516 -0.5261826897150615 -0.9176568001699228
Ni 0.12227281705710233 5.286273750825429 5.7853386589358236 -0.6193072748858882 0.906744267022477 1.0843478458739906
Ni 9.323391678567338 0.7164885640604759 5.045195040866031 0.4249115641777005 -1.030804879650528 -1.0044803828233861
Ni 4.570158692569419 0.18269984680336723 11.836834543508264 -0.3933541010863935 0.8933935567471839 -1.6436810541990918
Ni 2.994058279787879 2.974291637591811 8.043857696994108 0.17783600657729373 0.8284672883874441 1.2141052517765025
Ni 1.3598621908708235 7.50546272175547 6.833899285324905 0.650906132738092 -0.9886526717625101 -0.13375418576673093
P 0.333753308859037 1.3261431781955708 0.9440166339651389 -0.3182133540874971 -0.5227286697281901 0.15289810568503345
Ni 2.3606413580875256 2.4770585073184344 10.666176092705987 -2.291222384230009 -3.738528749617671 -1.0678138527747094
P 9.277940632185043 8.967874365237972 7.318378650647786 0.4253460806119578 0.5330092257185918 -1.2553226065550767
Ni 1.151084676842773 9.350054536246375 2.6311592875118035 -1.656993455037282 -1.0234034449801344 -0.7761777349551084
P 4.9945534868685195 3.2557851809075373 9.207741298179352 -0.16443001758403297 -0.2946767044181377 -1.5840445734833817
P 9.19734993392159 1.4925179047996917 11.276043332311632 0.40122707607656705 0.48334991082025147 -0.7568566660289934
P 1.9293033072721482 6.734290838115649 10.851091572178165 0.055416271986775525 -1.1443849044622292 1.3602380137132446
Ni 8.606269942198535 2.624823801145867 13.35989148713158 1.0709657681401297 0.33172038743499643 -0.4968566870574345
Ni 7.365412157390566 5.826314221409185 5.01041196001735 -3.429257692325126 -1.2462561254774343 -0.034251979204334565
Ni 7.189365794338299 0.3879793895946269 10.383329649272317 -0.06065823711200521 -0.7568551233670966 0.3431491980972284
Ni 1.7784427134530418 3.6945557149855963 13.088267152603894 0.7953921031000303 -0.2982731635201444 0.04194189164942454
Ni 3.0481836927121897 4.343260972511085 10.639159486456471 0.8017113604498386 4.979551651720624 -0.30930036786858345
Ni 7.029031136410939 0.0943605495334026 5.598867062081812 0.4469641731023657 1.8093454584108581 -1.5419039355595896
Ni 6.474454986534976 3.421106188365557 13.41231307382947 -1.670962515622864 0.9095508832333369 -1.0016529406769201
Ni 5.953165071827832 4.074637855908457 6.555390025162245 -0.6870350172501652 -0.4835566275144188 -0.008114658687334412
Ni 0.7496459067980298 6.5895832114532435 2.0875107696733153 -0.24965565962275713 -0.41444177499462814 1.171051615120138
Ni 2.1835224594758325 9.40867707195494 10.582152339831707 1.6752596003363212 1.027123831254515 -0.21988485611822775
Ni 7.010741582660746 2.031589330097301 8.262797955858044 -0.8868824951015436 1.2165084619013564 0.8335750419276546
Ni 4.579943227497506 5.666308850714982 4.523027340477358 1.5558277447295334 0.34258098429858425 0.4535495396293673
Ni 8.650196859101648 7.689063874757021 0.7201812851751623 -1.3030312254849494 0.6392765189189635 0.6303293370280048
Ni 2.2014545013728837 0.09984553401712815 5.621490976641014 1.0086977633388434 -1.9095498332466014 -0.40177420682928866
Ni 5.125957909311392 0.8281545689272657 7.196267654745265 -0.4123509539038705 0.7249508184593322 -1.1825732426064923
Ni 9.09704904270204 0.5466083396542346 9.144619758045199 0.12755808425834805 0.8023729052932376 0.17710966993423047
Ni 7.288650599238394 4.9097385038139985 9.682292183012224 0.3468341031479833 -0.2041049675761517 -0.0034838447835423866
Ni 8.456604190625455 5.089388210017668 0.66828467640899 0.31798992522278136 0.07248891119834612 -1.6830875810211725
Ni 6.047491751817254 1.7053221312789166 2.7028865142793426 2.8094163993126386 -1.7998033232483774 1.111531348267318
Ni 5.290018217076755 5.2122029397784795 1.1457709217202887 0.621104218885311 -0.751099451830242 -0.01763956745863414
Ni 7.1390318886986215 9.246790059928413 7.8849116903700045 -0.1089957478751284 -2.20126848347768 0.7037597862040138
Ni 8.116911480900935 3.9797466835193394 7.584508592485084 -1.0068807647347626 0.06586086435886722 -1.176983664333857
Ni 1.7673316213856662 7.705208357388364 9.020567849108383 0.27136245517222946 0.8733474367295861 -0.693126989080516
Ni 0.7648674443558678 4.332874312356655 10.985113357714301 -1.212324505726996 1.5453008770562806 0.6273537993394486
Ni 7.458280565347436 0.8768617956351482 1.0889773413867423 0.23512635565833057 -0.9671852459173537 -0.4852067615233321
P 3.6182645671665044 7.4414586918364565 5.198026653980747 -0.9848325266854716 1.3700277461101567 0.015509665599824902
Ni 6.431807585737844 2.5821105429021043 10.662719517578507 1.0504625059804553 -0.11835507760284135 -0.47023959869053855
P 5.947379024730935 2.0849432700753585 5.076741698623116 1.3272600161253272 -0.2065292607469282 1.3501914281105198
Ni 0.9299720630606698 3.9317366049250833 4.070811538259176 -1.121323137546759 -1.9463852569073967 0.28476407329011605
P 6.272931199843036 8.07499792022341 1.4880951068480635 0.9590801003117159 0.5101374633267408 -0.38425985209460917
P 5.346759111452996 8.67335986390256 9.989331829876251 -0.728411780424739 -0.6540058547093381 -0.28182350260455336
P 8.033432463192366 4.930540048742844 11.763289651213698 2.8395746680635745 -1.7819773508105503 -1.2535763132879314
Ni 4.769292794769307 0.49654068626308157 4.40974312406477 -0.8796908624491109 -1.1097215487520888 0.663361070671993
