# total energy = -381166.7563432671 ev
CRYSTAL
PRIMVEC
9.20585916233196 0.00000000000000 0.00000000000000

0.00000000000000 9.20585916233196 0.00000000000000

0.00000000000000 0.00000000000000 13.47370542657380

PRIMCOORD
 96 1
Ni 7.134181968908971 7.5639206892970146 3.5200324726214136 -0.4548140081640876 -0.4258291908959634 1.1014698502662579
Ni 8.140971571027993 8.02374415804581 5.713820976595032 -0.7492348878176773 -1.4759919062478128 -0.3549958130231693
Ni 8.446403572592539 1.4494165255991887 0.6270110804316475 1.468602555762277 -0.014305360879078589 -2.1894758617181265
Ni 6.982653523983043 6.050882469719511 8.8843189372566 -0.46872161938411533 -1.8870141140379306 0.5382537619469827
Ni 0.6760847548767654 6.229761522778787 12.480141408747162 0.0185268551595939 0.27712532579793564 -0.17762569033870054
Ni 5.851446732728302 3.1398884783177827 4.494935739704597 0.585405737042437 0.5934975129116359 -0.15214734356193796
Ni 6.882097922286451 0.861096751436021 5.354531936066321 -1.8300032438705258 -0.7552551258698283 0.5370211750914623
Ni 3.2075515445514133 3.51566245118725 10.42377060848547 -1.9379157859838048 0.5684061171606468 -0.8752767925418151
Ni 2.006352604647108 2.0594520013866435 3.191045438734148 0.40448569222318087 -0.30267129258784 3.262053454430066
Ni 2.129204797693068 4.8992939058605165 3.502800024501314 0.610411000837523 1.384324622348803 -0.851692834574288
Ni 0.744541366186497 2.573792569215106 8.055295399801254 2.3222432580915555 1.093612044784736 1.1767584356969283
Ni 8.137675873380152 7.967790944907304 7.903365579407601 0.9264330037006561 -0.5177769821498696 0.6299328729205345
Ni 2.7764319452606414 6.070960448965163 7.889299026318487 -0.8103453819757527 0.05089807240144783 0.9363057827296777
Ni 1.1357913092117953 3.6911353362864663 11.705510691270238 0.2633529546041916 -0.27899863156124854 0.004374474918611821
Ni 4.570423786387015 4.872679766475288 6.551211719614968 2.099335298876288 1.6323142071230468 -0.5918070125830905
Ni 6.385957338395932 0.7140423541549298 11.262239357635467 -1.1639625694838407 0.9240629608065828 -1.5264251231977002
Ni 8.943022861169336 2.769012022623321 10.152167378279936 -1.8960695393719798 1.117259766110663 -1.1446569271766933
Ni 0.6022077335808621 6.885826295323814 9.379665976071017 0.7306769223098319 -0.2463829024087563 0.2115629665160937
Ni 4.486696495584991 5.004516878248326 9.184904053872572 0.18767099038984453 0.2625533415210317 0.3906994370723658
Ni 4.182903136985015 1.514474333636341 4.311733615093849 -0.24984000771942133 0.5922147895444704 1.2113971088167201
Ni 6.284646856232516 6.226824853645654 1.5605376920735137 -2.3193600230064892 -0.6709725644706639 1.3807340767840672
Ni 2.197337362753627 4.651334084227475 13.44601741015025 -1.0300176078625423 -0.07003247923805359 0.642088791556778
Ni 1.8890331330714083 1.5346167538974544 10.044135698203977 -0.7236850643730312 -0.4314822754166827 1.0100877017078345
Ni 2.185047540519355 0.34654813118621447 4.946601896482013 1.3112582413804321 -3.124156707249871 -1.5130777553565167
P 7.400507479948283 2.6170140788704663 12.15838925972425 -0.23824124713822836 -0.029373053845478447 -0.23334406694692716
Ni 4.471396357342774 7.733989734956892 1.2424927426114583 -0.14042079915362912 1.620721617189441 0.6915210780459767
P 0.2555739879026786 9.037631477724851 9.586366056676505 -0.017339262609395945 0.3034261684759935 -0.011945088177018138
Ni 2.886497199667348 6.776341010056253 13.000616761247473 1.1786525673958475 1.384580447113351 -0.8197319653969753
P 1.0409709578911965 4.50055131390902 9.55049910805707 -0.09937082319085466 0.045249101645786584 -0.37380831774398204
P 2.8033038487077118 1.429200458463263 8.124159830680258 0.718262350695563 1.265262491376608 -1.9857028235600964
P 6.01665508465058 4.167133499915871 8.053947661992193 0.9408916023281473 -1.119223060484621 -0.018559251059426102
Ni 8.49079422638554 2.908664908985795 2.3372167132561477 -1.1736044634489788 2.1509016009893536 2.219307343257262
Ni 3.2940866224556493 3.4603812657814053 4.999135132871431 0.7273072345066507 -0.5553410564465726 -1.3020891732866542
Ni 4.9676658232642135 8.750353430801491 3.8246460732896095 0.7311404922098118 -1.9813993110887358 0.0030850666832269447
Ni 7.442394139997673 5.0776574307961075 3.839871644071079 1.1563742156136216 -0.04653568166769405 -0.1916978521610505
Ni 8.36927688294555 5.637079091868936 1.4473995218152718 2.2205088197645306 -0.6477159079355683 0.9446834652704117
Ni 4.818945165440498 0.3457665537272709 8.84512407048159 -2.8759375229633246 0.6279988891226153 -0.39636871954300124
Ni 4.381427493900424 1.0951014108781014 2.1527478623986314 -0.35147880100884626 0.06993709131076987 -1.4923289528449397
Ni 4.021938686223786 3.0100582438833743 0.17390788900945903 0.5200030432669108 -0.3917520467065963 -0.1879160165211151
Ni 4.830627400957571 2.6786381013695038 11.502866712295027 1.0936053599165165 -1.2869548887483773 3.3457495471981407
Ni 4.307209855808514 -0.04132970555862401 6.240764365875717 0.7150027061076847 1.211246699281785 0.31961974751672045
Ni 3.4894165461760824 6.742159654284079 2.942468824524556 0.8480686075581394 -1.1561435876600539 0.2741711282656182
Ni 4.515234659574686 0.6284554797639001 13.149972623366443 -0.5168174464500777 0.9085065011292224 0.21982160698046013
Ni 9.15561377117386 0.4288264197263098 4.524550989238419 0.12446710403785016 0.06207954293956405 0.4588922919985194
Ni 8.850513180545969 5.682408743315794 7.6904137997165 1.2951615929288856 -1.2857253872166503 -0.7404196035188925
Ni 7.136354551715928 0.8373382696216327 2.8214476769036114 -0.3783028631802259 -0.494983895514754 1.378566379708787
Ni 3.3722075449126003 7.362017781999601 5.170561122199722 -0.19253191802657163 -0.5336751414373647 0.39246912737827894
Ni 6.377110507559126 8.126978664813691 9.123396025201364 -1.2016965936995045 -0.9483555148053603 2.3720732942398053
Ni 7.476704377800767 0.8766086244433229 9.138594898990714 2.2747611533501924 1.5251441996027473 1.7022222449680944
Ni 0.2797900009268373 0.941980352284362 2.365686753886641 1.9329702690530708 -2.3004696138598897 0.5101729445503664
Ni 7.172082491859156 4.630059343266126 6.283475870923004 -0.21306346232102016 -0.280253329903956 -0.5245343554783611
Ni 1.2588092077260824 7.20846404801634 6.52109843309023 -0.8069821219304747 0.7239717423755144 -0.3168689242444607
Ni 7.23520706943249 9.178425890646912 13.058311722975285 0.08125663008864716 -1.7997110206448874 1.3599803891764837
Ni 1.576245649885003 2.0747889630662666 5.955822766055772 -0.4708620627658858 1.1099102677241273 0.731680680983998
Ni 7.989820566335478 2.372469631056837 7.256466160432942 -2.279677873925519 0.009795903044499258 -1.4650004402333157
Ni 1.5101844031785354 6.833233220848612 1.4419422883916941 0.6148073301330058 -1.7249662235328294 -0.7893443542440535
P 1.9553429379803668 8.107526684003941 3.0709273859155877 0.7255360015388407 3.087239522508548 0.5801537446148782
Ni 5.230677224936981 5.755015356021188 4.365400092769438 -0.3269725883373659 -0.2074052355939783 -0.363146981375394
P 2.631089837818932 1.5305109406266793 12.251653820814443 0.3254870049307749 0.4780917477451056 0.27723973988861284
Ni 8.05797154311474 7.77081317236295 10.950080634642772 0.12061636283319227 0.39895499221293873 0.0709634756927552
P 6.234484128626114 6.186926659216191 10.982161213310928 0.27083152236942387 0.7702323160049509 0.494831943317922
P 5.727756806481354 7.330450890283258 5.740593456761106 0.030197863739618958 0.3838399909483712 -0.7953401668161721
P 6.682781861466812 8.332692797882634 1.5701044211116078 -2.1569370085501562 0.9318536604955951 -0.9504280810636729
Ni 4.08688602394872 7.261904061551881 9.768948626952897 1.3450746757092449 -0.9707192272125411 1.8991808313074519
Ni 2.4559391577970184 5.8979823517502075 10.582342456401241 -0.7482133885316985 -0.7796158141023799 0.7724408936204955
Ni 6.549978134461865 3.986118687487043 10.56048866688668 -0.849777105608814 -0.3411697057733544 -1.0534796955402244
Ni 5.257199305728694 7.798679308619985 12.689361133057158 0.6946351981949264 -1.8625199855513086 -2.7145789452157634
Ni 1.9297782665612113 2.5405225935187326 1.1113920995865414 -1.256478831646707 -0.09475466457508197 -2.5153179359954745
Ni 2.292636418760504 5.310142202859253 5.71758064955419 -1.2732285403012202 1.001424626716198 0.27709113012589054
Ni 2.5879603867570866 8.615478385442453 8.73841251063664 -1.550604291547065 -0.644068026770336 -1.075415062160735
Ni 0.5751415865014746 3.8429123394148843 4.713641181490395 -1.2883949636290135 -0.44925862556349727 0.2730339293373814
Ni 9.12145082712039 1.2291203113174485 11.768864494741425 0.25368560671775664 -1.4853370949081388 0.3600076644154639
Ni 4.069413302899545 5.173508838364077 1.043105796674813 1.5775404538162765 1.7140814582995254 0.09075994159339208
Ni 2.3003048996003157 0.10636265777552736 1.1205344385085303 0.45303017679078755 -0.3320006376795766 0.3038493720563412
Ni 7.493808864475882 6.740898451552923 13.07408872473191 -0.28811782025369737 0.49247192772617765 -0.6703884098324197
Ni 2.929083505027454 3.6750434941400187 7.175327557280564 -2.4811533742986236 -1.6795867669567657 3.1470708928438835
Ni 1.8081136293715967 8.363596867725667 11.089883576512674 -2.3018369265210614 -1.1546425776344955 0.76776714229391
Ni 8.689410641894465 3.750936598633904 0.1612415471277103 1.4199544557372707 -0.18209246786080252 -1.346192591363772
Ni 4.826521587686795 2.3126775745687507 6.968830005580808 0.627552802724132 -0.1947132419486066 -0.6829343648182302
Ni 3.590202294356462 3.4956028836603 2.4943202266053524 2.4332133560842357 -0.49741153111964015 0.740972390698569
Ni 6.325198666675937 1.9215482283009575 1.0273472066368905 -1.9203489807446348 1.809603340057935 -0.9750379091925532
Ni 8.18046470764599 5.024024094214185 11.58659216192518 0.9985843290539254 0.3292986653673812 -0.18519707492805526
Ni 0.5710477408478561 8.427835354280536 13.271909753992862 -0.020439498801274478 0.6780857784766774 -1.2538151687716148
Ni 8.716641573856245 7.9483113465195 1.7090456945462094 -0.6509979211209498 1.1813625101278429 -0.4447748787605308
Ni 3.7740156880281504 9.16291401763961 10.843194163470143 1.87393156982236 2.232916192289948 2.163444470651371
Ni 0.5859170448724222 0.14737015825684838 7.249635412794118 0.7192486258682323 1.472171246950142 0.07056289782022686
Ni 4.697473851297266 7.343329887516026 7.6722110540207495 0.595740800419858 -1.0256778428366078 -1.616006728212275
Ni 6.447968006987734 4.369726846664649 0.02638951641705125 -1.0432521042749452 -0.4707952140836924 -0.1390272612402122
P 8.945526854912949 5.782531669622865 5.454317927921127 0.44587916756830304 0.5640187867262286 0.4086961307601026
Ni 5.1611545751143435 2.4909122174734217 9.401790417850512 0.5076316661857515 0.6472281696658725 -2.3142949497787564
P 0.8621581870192508 4.380985612651552 1.973817256526986 0.2197575865117441 -0.19673618591590633 -1.486971030967136
Ni 0.3062596083202468 7.031637901592451 3.6035286963537145 -0.7818529309630148 -1.6993310394632284 2.182911835347363
P 8.175889395548287 2.337791158879682 4.660272053071861 0.007942651885844386 1.1537254651368647 -0.13458028121245208
P 6.2085788404109525 4.00305746869383 2.407184926671398 -0.9672934893604439 -0.26493058350395665 -1.1823467284179832
P 6.296513208936618 0.676860808820098 7.500448130240193 0.7937977620297169 0.41641303978838606 -2.777876419722829
Ni 4.517784682615056 5.187151921923021 11.906754459038085 -0.045316464548612274 0.05820026248981589 0.06625630002507299
