# total energy = -381162.3618025977 ev
CRYSTAL
PRIMVEC
9.31755979719779 0.00000000000000 0.00000000000000

0.00000000000000 9.31755979719779 0.00000000000000

0.00000000000000 0.00000000000000 13.63719059658509

PRIMCOORD
 96 1
Ni 1.0904619601785999 8.242480995012285 13.345900364815662 0.2513541303711026 1.7039484836305816 1.1026026783191203
Ni 0.0564038474271458 4.640545367829846 10.95141424993147 0.4809451580335008 0.22829647722069069 -0.6429359700484217
Ni 1.286671131587014 6.218390238922652 6.981463900448672 1.4234773812888646 1.5207021046709939 -0.8960909010736889
Ni 2.2675958603534516 1.2771485856102167 13.419608784051134 -1.1294557939562226 -0.4949949512583476 -0.9273776270021125
Ni 3.1548884320544905 6.611050838290749 0.4072947585766669 0.1246769060558111 -0.43644964672428704 0.21633339132154356
Ni 6.65381843714936 5.585019803189991 -0.059418077978509745 0.8600052110947254 1.0636759193469358 -0.027371964255049633
Ni 0.7050196742823467 0.44479793622501285 8.804306548863499 0.4665004433630805 0.4090221466409537 -2.852303171373836
Ni 6.41781396841521 8.453020573184215 10.004461343700653 -0.21768219203995412 0.19665108240126777 1.2781817705414373
Ni 0.6050012618231159 0.44452772699475146 3.7279714614919732 -1.4072789171521312 -0.3887834509965756 -0.3920569795415248
Ni 8.067459954280228 5.598371866188768 6.627674296487622 -0.2837636570500597 0.42501980762079056 -1.1318343214907283
Ni 4.876503248765675 4.193526125380892 0.03979436556976906 -0.8689966159600584 1.3326379926077887 1.0923270074247253
Ni 6.024752713981552 3.1702810406197246 5.522025645812367 -0.32250606792558 -2.6289452691053437 1.7075760530808397
Ni 5.812787549181 2.366678789822398 1.2198688875746375 -0.5083137798544407 -2.073300565375423 -0.8491142752138343
Ni 9.190514738164147 1.6234636432086567 12.473842934921533 0.23512172767264022 -1.3618734924341385 0.5839049841271944
Ni 0.6503992077749259 7.598879878768348 2.6759984767741902 -1.1713879154136344 -0.20912684627077535 -0.39368834449736073
Ni 4.7858433932331526 5.585010485630327 10.219260910151048 -0.036790686465788244 0.021326015171285854 1.3795194876506758
Ni 2.945951474144799 -0.16184787487883173 8.006503547201161 0.41145081068710426 0.33904520323118387 -0.005458709121726082
Ni 7.52897954616763 1.699616058344043 10.784317793693804 -0.45883007130201625 0.23348007830415918 -0.9895643849435022
Ni 7.59285141766562 4.224991524366845 9.618582996012115 -0.8597501576611257 0.20064940492738348 1.1121905791178714
Ni 8.775529265840662 6.951644914255379 10.1031669120032 0.17971239766440017 0.5930359998941851 -0.3952263784084419
Ni 4.103155114197958 3.3403544571700996 10.098216492553618 -0.7808872246156358 -1.1372683480221057 -1.296311904483245
Ni 8.034522380867333 6.431790307911488 3.7846343370777835 0.723562679862554 -1.8864795816906994 1.0111493102031295
Ni 6.773260234484551 7.641423856195018 5.451385498974312 -0.40374701428494336 -0.15034731423872172 1.1010628446358264
Ni 1.3955654513823479 1.7387404913739573 2.1180052352128556 -1.741264960692853 1.4788689706852918 -1.0323511410917254
P 7.795620151077621 0.15665799414588052 4.700316581319629 -0.6137768319859623 1.238331985534351 0.18892928827697786
Ni 3.137017352618583 1.577835553533141 3.56722958094528 0.5572848104365047 -1.0153363517012837 0.6247682980004595
P 3.554341532417779 2.245802088298922 5.483391316420789 0.48887983949954517 1.0503596618540039 0.09716044580309718
Ni 8.416887076806505 3.0961039481331456 7.790285848169874 -0.5280194858134842 -1.1887377195459914 -0.14869332357506648
P 9.462913594946606 -0.03451410450807524 1.3825795684783728 -0.666876025803787 0.4267483602761231 -0.046464204999810306
P 8.705768696634905 5.0853656661980535 12.826050417251604 -1.2149323756634882 0.07064260201822672 2.633067775914149
P 4.748545201897419 6.855385205364681 12.207507945968526 0.37186507797468216 -2.226821649356436 0.10188819029606967
Ni 2.6380899852804522 5.404165970108154 10.895051399766848 -0.8819840293586618 -0.9316723977227244 0.5858579940885071
Ni 6.988412004690254 6.214458228744366 11.460463282332805 -0.30424635038444375 0.3101840560251174 -1.0696593906238805
Ni 2.51608585903761 8.875702349790318 4.6661146150603034 0.6106727391393418 -1.1927175301293458 0.7407736444242017
Ni 8.04614137776857 7.652269495644129 0.34837144301632544 -0.17941209281516196 -0.0806490784116353 -0.04496473763614837
Ni 3.82819392850785 2.8731720156078477 12.362236273507955 -0.3131295118066865 -2.0841308232217073 -0.4453546625234007
Ni 3.7179858327998656 8.766183753497485 13.318639048750189 0.38152368411036874 1.750946963867307 2.7551496675492744
Ni 1.137888338869303 0.09386695956893569 11.021918360398429 0.07959261212266293 -0.971384371600366 1.6382971641793591
Ni 2.414897161084557 4.029891142558469 3.834545708930925 0.20225274485876135 3.0400317544744935 -1.567711640651313
Ni 3.8814810522273255 0.5989075778027386 11.168600043411866 0.6597795239683218 -0.394524724355727 1.518804630537965
Ni 9.192033500389408 3.844499657920174 3.033184331232835 -0.18959494688543477 0.009264198910745336 0.350418478065132
Ni 6.496994590441457 1.472696210282474 3.234141731046118 0.3035385256841418 -0.1065727402559326 1.5494177274381316
Ni 7.516810813246203 8.425123799549645 2.815370534231074 -0.03974771221158316 1.4266303250955494 -1.301156634170056
Ni 6.3754749773011525 6.282085076787022 8.954642578777229 1.7257205852003503 3.4902195767204796 0.47763511982366136
Ni 2.9022334842004414 4.735342219853268 8.703445829010626 -0.052967810446282966 -1.3937358883603739 -1.711001533822621
Ni 8.393574542526713 1.9744561157585174 1.80212784976941 -0.17849163788342165 0.012220967546224114 -0.1034107975881832
Ni 0.6667981127838922 5.827537246129406 4.68869758441839 1.3431242368510934 -1.8027809178194631 -0.02122265682420216
Ni 3.5477540177352 2.370899644350274 7.538434073958878 2.5575488196402274 0.2521311177464432 1.0069686964628788
Ni 0.7300932273386694 3.386690681380093 0.3728533310339724 -1.359319101443401 0.008506237698798253 0.566920790864372
Ni 3.3637508494868684 2.3340021080801003 1.3785022043693254 1.5453139896824033 2.408602242403774 -0.7568288981148514
Ni 5.964272434201326 0.7685672947040234 5.718455643384822 -0.23643119051268313 0.23625918371119306 0.09612583389099574
Ni 4.57508019362928 0.5500863604303069 2.1419662716452743 1.9309946333839392 -0.7212260613095772 -1.167778086575189
Ni 1.2627156856903938 2.5061812931145804 4.545725221907264 -1.7755616770921938 -1.2842089505721237 2.414941297247925
Ni 8.15976901787331 8.8335869801082 11.740802563461083 0.4728307564564825 -0.936352062586581 0.8073629023086611
Ni 2.525403418701795 6.71711261994817 3.4035834170512604 2.7763628112917798 -0.4438924761555775 1.0290848116356277
Ni 7.495343155779921 2.9424014839127444 13.241562331696116 -0.16400167179736272 2.0945443052455475 0.12124114090138474
P 7.094287435154392 4.259913737988212 3.9763049251737734 0.431732957974908 0.41657476217723094 -0.9315867799874538
Ni 8.247866544498184 2.6981416573161265 5.238290114186494 -0.21005167207788986 0.9173400402604523 -0.629260272333542
P 3.8765054753666504 5.051747910929672 2.350983360568078 0.19174978844490848 0.60204720225386 -1.0006643515114058
Ni 4.559827348459009 3.4640077914735024 3.774092450073724 1.7175071961516226 0.040933504989568215 -1.1830728079507302
P 0.28624940922326914 4.162824766287401 6.449040837873761 2.140788423814752 -0.2909383204216279 -1.5630288904636631
P 4.370438630724778 7.007121664495938 5.183659398363443 -0.5376289838787902 0.4585703898827263 0.26331644493930134
P 8.333327201738092 9.162440930895958 9.620097099457546 -1.0662069132989058 -0.7881755307469329 0.1660171595654947
Ni 2.4280721904497153 4.556584837695873 13.102530365166974 0.3995836269358731 0.6201238572499127 0.6305887613369785
Ni 5.568574310382704 5.232266311863598 5.2636963041228295 -0.06055153633081184 2.4360220291776242 0.5700829906424375
Ni 4.762502906274368 0.9347375855110708 9.096264826893014 1.2214254395869997 0.7947403284486442 -0.2386001731395439
Ni 0.9628020752195968 6.401648002397848 12.142704318504117 -0.9462531237503767 -0.27458841830869485 0.43201526510201727
Ni 8.52164440011094 7.722495942833094 7.419504742405216 -0.04665549507500997 1.2171553514567361 1.6255576051255038
Ni 5.764364191606229 8.45975716882142 7.8320704444839135 -0.3990673494210869 -1.0465212619445203 -1.782388984426672
Ni 7.255117832517894 0.8498238690234506 7.6322031991513395 1.0169674595468032 0.8251053138937468 1.2238361059110212
Ni 7.379647017429732 0.6671503165391983 0.14662950467931787 0.3369189009168004 -1.0970562945795945 1.0829136845306253
Ni 5.97766176743876 6.672313793082767 3.2415053984487234 -2.4440965786556426 -1.5195633630808605 -0.2438135990196833
Ni 5.110811921640943 8.701352173354083 4.058441077125499 -0.8260807904331386 0.37781332513831706 -0.5012915829003366
Ni 6.4178326035345385 4.366487985427163 1.7654157329365534 0.7541449235247851 0.9400922463553035 2.9806886366294862
Ni 8.758729705766136 5.762677713307012 1.7383193376771362 -0.9389128813352217 -0.4991035741100823 -1.7664869684844349
Ni 2.5568315474490917 9.018111931697726 1.915370674660019 -1.0358810086218546 -1.2762238754841182 -0.3880113487172414
Ni -0.06165056527404855 7.96997964507352 5.207374451220728 0.766129349580171 -0.5776386915025085 -0.27019774544016695
Ni 1.4590739380534352 2.917076356745489 11.766331745184983 1.1366739089712166 -0.035297903970345657 -1.5389348256289368
Ni 5.847439553572106 8.552066232414505 12.549910560263976 1.9246797469095047 0.35579748298885816 -0.22157664199835386
Ni 2.9399416481614 4.536412321022911 6.17391100435373 0.06204149061277703 -0.5926575335088439 -0.197267375829028
Ni 2.8428340413412605 7.666003578589139 11.770886168348838 -0.9358252435488335 -0.4423837528205349 -2.774249621603519
Ni 9.44958948462682 0.9831888957648344 6.038220314720166 -0.2600377741880296 -2.282426897425566 0.9055530749278533
Ni 5.911954336686924 3.513167236261744 11.375953016178645 1.2348075173208606 0.26448192600231224 0.7243221837363978
Ni 0.2504429591897714 5.235042944643526 8.581979325960406 -0.3260973848212642 -1.1228421452944468 1.402596166964481
Ni 1.4378858073770777 2.2339501524060785 7.349109647386331 -1.3435644097123054 1.6782467079891032 0.5692129293326584
Ni 4.215413073032063 7.842916083933026 9.49753951017065 -0.9426862323347249 -0.11581097102474894 0.954675029265485
Ni 5.311838271395741 7.3681957366024475 1.2047148085368065 0.3773217302138792 0.5072447151599779 -0.8045953668658531
Ni 1.687838662928513 5.24426732871107 1.7797489349679696 0.25987013826191374 -0.588309026732161 -0.3034328533442129
P 1.5095192060753344 8.416747313411543 6.69100574952509 -1.0952727203166104 0.4579816072587919 -0.515428279412035
Ni 4.128098221418982 6.515918554119417 7.521796639422509 0.10584049007559837 -0.19427152642549766 -1.1627163557815654
P 2.2675026847568094 6.655449010090592 9.136754282413731 -0.2989424216730271 1.1689086006352063 -0.08869020354855693
Ni 6.3248154054069765 4.675374405854571 7.70578955835521 -1.8863700526960285 -3.1346298388670535 -2.253570121094874
P 0.464787828728556 3.0411117109951236 9.603159639499989 0.5854687290698884 -0.9393620530574982 -0.6430254444384346
P 5.986150064292833 2.858003028474554 9.003109728882421 0.03702131441935559 -0.6115497424276565 0.13403417890099498
P 5.896999653425907 1.432025062348305 12.51148121718501 -1.2341256607624873 1.3540401124326487 -0.964696932277861
Ni 2.391053525903907 1.5722729704136225 9.863261181037656 -0.14130937240616953 1.966461458831981 -1.372551540973275
