# total energy = -381162.3599501827 ev
CRYSTAL
PRIMVEC
9.25658216809776 0.00000000000000 0.00000000000000
0.00000000000000 9.25658216809776 0.00000000000000
0.00000000000000 0.00000000000000 13.54794367268062
PRIMCOORD
 96 1
Ni 4.224324525606284 8.52988481524203 5.29701520500082 -0.40992717495372627 -1.7078084808066198 -1.1644819323224205
Ni 4.83866536278806 4.6359647291603086 12.118744057780983 -0.4731367177326755 2.1249797389172693 -0.2042810881426998
Ni 4.219177865989103 6.924710179350416 9.926794686038468 -2.565143344158034 -1.1629950633642487 -2.0934325602386075
Ni 1.3692243595571818 6.348571256269551 10.66784054391437 -0.935956112699743 0.9258331653331282 1.5654580687304458
Ni 2.3620853497349366 1.802441655858777 10.329724445887875 0.3104347385833428 1.0833541145021537 0.6362719277646849
Ni 1.521893167230142 6.539830754489324 13.445981486838935 0.39813172498069493 0.1564174316922016 -1.0371675886437621
Ni 4.605695705872212 4.576963275203633 6.0146095122649825 1.4861889013854728 1.5761991092970338 0.09220618712161541
Ni 4.064009781163914 2.8508606514723596 13.493006774945416 0.3958861234796278 -0.10885587986315445 -0.32999286322092847
Ni 6.9062988376623355 0.5513072160861718 8.160048261862736 0.2960769271997739 2.2805708180534334 -0.51059177725534
Ni 0.04819902270982257 2.109787949508525 6.7461442320893505 -0.2832419802186347 -0.6401915745340652 0.06544203165389374
Ni 1.633758961247466 4.974533474048819 1.6155790341105172 -1.677366362266679 -2.9535447292248422 0.041900753998843965
Ni 3.0184788391484623 8.761910300789255 3.0148372997718456 0.0713707384335029 0.10735409850664737 0.04980021135157875
Ni 9.2195001776161 2.3873002792263054 2.5943496550989322 1.4161085996286193 -0.10284721177522933 0.06171984560730016
Ni 3.9507277300936616 0.7321456542393572 1.1674253170206428 -0.25643308755590677 2.17302851479538 1.1917248271987733
Ni 2.616234066370406 0.6607468599494254 5.935949855018725 -1.4251496267849648 1.580296162184543 -0.3331195817753682
Ni 6.295308883180955 8.690921573083932 4.476213710564498 -0.6227489535775855 0.09196938852046097 -2.338926375174191
Ni 0.36451124172863825 4.477816024916538 6.371462783667552 -1.0307485724912957 1.2743292295645667 -0.02805922013006135
Ni 7.091513787806535 6.177083817298517 5.610556003355276 0.18086939408697883 -0.2871107191454217 -3.172253562757098
Ni 5.1382638972659 3.6528786896223804 3.3851838908218346 0.6682906467631266 1.1253451142219588 0.9033964335961667
Ni 0.05563020677578101 3.5471314963369927 0.5056148757942137 -0.8541947750605353 -1.0938015350877228 1.6072775758693933
Ni 8.615665561055726 0.18410230898235438 4.781272702790854 2.433281233207693 -1.4984890589090643 1.2289628856146255
Ni 5.306715177326079 4.855280927559354 1.4104355884810154 -0.20246074710450937 0.47902300131012343 -0.9579328740811502
Ni 3.5805940404307144 2.2378990450153324 7.9099668873779665 0.617325211458853 -0.11033452129120999 0.7115065200289681
Ni 6.85798873596797 3.807861642806663 5.023523008865309 -0.17016846272970695 -0.474963229418453 0.4642337588160908
P 4.939090021397406 6.575514878273915 3.9573674763947473 -2.648566642880697 1.3854052570074913 1.8743203206203463
Ni 2.355457636990509 8.76235461672743 0.6206029149354139 -2.7734595216020557 -3.9025800437060463 2.7469002830562887
P 0.42556950821577705 9.177864071576387 6.686844716190816 0.9507764655420271 0.2560430512063397 0.029740721597542326
Ni 6.136151211494248 2.187959784880995 10.03866048005579 -0.4269463352195421 1.0920074193017775 -1.15679536231144
P 3.0364551214804143 5.895628183629444 8.25907054829222 2.290263105640533 -0.22529831382431523 -1.9959964921766205
P 0.29129815735782977 9.340261546978946 13.362702795152078 -0.24998013284171136 -0.5155498925915637 0.3114397828090894
P 1.7958509694425309 8.347807846411182 10.080049435354894 0.45601137090629856 1.3023503973678412 -0.3771605220456666
Ni 8.19105688605625 6.831116878290494 10.352416956771902 -0.49718733092397593 0.16753899552665985 0.8029192647150108
Ni 5.75434497187219 2.9110284347667412 7.065212135583049 1.8919187504284 -0.11112899216804731 1.8366647150511015
Ni 2.894153685698179 6.184794550142244 5.708060210329333 0.6442528890876323 0.89376970913968 1.682784962179089
Ni 6.126450313510784 5.788307371396358 9.690315858869251 0.7450941261764265 -0.7130748929573526 0.7562290597473234
Ni 9.253953175988666 7.100409363152058 5.8960650943019814 -0.6395408283239437 -0.527055322128002 1.4522709084817893
Ni 1.8929895414257991 2.0744370626775646 0.6773142904940846 -1.531829067822091 -1.0508599985291902 -0.8281137617027674
Ni 9.091500161093835 4.920141797950698 9.185831211742768 0.5722468310629757 -1.1809539618355147 -0.6455350982341655
Ni 2.642902279242885 4.6957344794267435 9.92942355533933 1.875999508094982 -0.9835806565562415 0.8459366488168012
Ni 1.4007615345854831 5.773061780767765 4.176857698536244 -3.756239793744189 -1.4005475119655686 -0.6150556986983859
Ni 2.5595745276711885 3.7191928433948345 6.6108676164212845 0.09137829190368134 0.7485270631173754 -1.4084014607923487
Ni 9.17990051962635 9.143198171816778 11.041180713597806 0.924535272457311 -0.9583023416054269 1.220416281596195
Ni 6.806392547647526 3.647371023305433 12.86726738263307 0.4687522155117347 -0.38274058723660537 1.8474798033887343
Ni 3.111572284777939 4.279336392701439 4.276300233790584 -0.34956255782273987 -0.6787748341239019 -0.13832072209149082
Ni 8.017514485871162 8.229703116095335 1.2331350159855397 -0.10905102659309607 1.2089126518319695 0.23406243317019046
Ni 7.496378173303407 3.8483869590009405 2.101651413890716 -0.09893707808754573 0.02220301845960047 0.7898822290253945
Ni 4.71209085990077 1.1977276640041028 3.5136994989640207 -0.14122015512647293 -0.6008246427006685 -0.5304730895602993
Ni 6.368222979951701 8.344410680800562 11.978251358130395 0.49680629343547345 -1.1625662033569462 -0.8381742312625629
Ni 0.9959526885808815 2.9640593933042054 4.610609099621852 -0.006528288036821014 0.47481616231762747 0.5032219671538302
Ni 6.689352324266886 6.122238568680177 3.1751094639368067 -1.0446510415050008 -3.0501662718053337 -1.8117751508982733
Ni 8.180559922016892 7.459574003091336 3.5561862848936947 2.867538243156036 0.8634196360929131 0.6340924036148627
Ni 4.561180802816415 4.292082706177803 8.697156806749637 0.5723015955603111 0.32492084801465976 -0.7021890992827843
Ni 5.633889069716837 2.431019116226208 1.6362795285383982 0.9311982862997834 -0.4451137501571883 -0.2890845550423408
Ni 3.077609885253772 3.0710284554195706 2.2128396261023244 1.037237522649749 0.056969475406508346 1.0006934049771283
Ni 3.094280989517338 8.075988314651257 7.490901979365414 1.7289645460589451 0.5070220576262108 -0.22076571606128434
Ni 4.995314500740494 0.740085024659602 6.9219831902798745 -0.08645951444582528 -1.6412413344093477 -0.24144304190497773
P 2.336213202918352 1.6115987038310429 3.661603018200066 0.3562440836079736 -1.0515040598710923 -0.254346123119891
Ni 1.9253320390920405 0.8046478331090873 8.31400743707281 -1.7658848161240621 -1.9600020763598824 -0.25481869188093537
P 1.0780308015764637 3.644612561855937 10.737517613943877 -2.1901381778924733 -0.9015249276050668 0.9849212297445361
Ni 5.682319506977792 8.719441102365469 2.088523729234086 0.3553881633655815 -0.9879314773257696 1.6370121268193485
P 4.388341902866769 2.7355976918444145 11.327706177253084 -0.7176776818366866 -1.152306473302151 -0.95860830288162
P 7.320021772176552 3.2314079959362574 8.524813133939414 1.0262787096454002 -0.04063011481653648 0.5772725664123413
P 6.855443175905515 5.90045086287504 12.092136012691796 0.0236466928846625 -0.5293189213511982 -0.39520863779662907
Ni 1.3316796627814873 3.264111500302265 8.37418725392385 -0.1924463002913008 -0.48180596337189924 1.3679302401511795
Ni 7.6414380705351395 4.070313513536757 10.730838064339997 -0.29050714642148034 -0.6256869531599869 -0.1355351889265537
Ni 1.1682454501898556 7.070325471504867 2.164013007129831 -1.9296718008074571 1.7380670225808452 -0.1059451339742627
Ni 7.0007530008524705 8.234896058622743 6.388288472851275 0.9959034397876526 1.0161992139222111 2.7296394390933116
Ni 8.77756318102784 8.57034533536199 8.738599450224603 0.7166898640021205 0.42350568496910934 -0.803283590032965
Ni 4.581258329272648 2.4651944171374165 5.288493595569927 -1.5217274606117146 -1.009126623346146 0.30837785605431406
Ni 6.897634676867946 5.117371791589681 7.424436017647417 0.2748735536492814 -1.0955532276715068 2.220934080227407
Ni 5.9213614817153495 7.10177933729476 0.3776222645375863 -0.15650639186158208 -0.849505340004666 -0.26901195266218186
Ni 7.307627208817909 1.4108326958507582 11.841918566450962 -1.6828962909459728 0.5519754824084494 1.5156280325821962
Ni 5.911244037539848 0.6634821799438084 0.23112204313960708 0.9910206577740547 0.2748943795848879 -1.8867562323908538
Ni 8.953827016334243 1.6314725854822794 9.29863099488846 -0.4706527749685571 1.5411436603547974 0.3458557983951141
Ni 7.811712897258241 1.274020413221379 0.892940815289877 2.8736351000823928 1.9439727908111617 -0.4651647552707924
Ni 3.100436616577456 6.187275314130381 2.6708553057032502 3.9481315070836005 0.5530728292376862 1.2241022150882144
Ni 0.36733172227783795 9.115409912516817 2.8034484382363867 1.2176901409142833 2.0345725526776053 -1.5586425884705093
Ni 3.5583504737758838 6.931060194633485 11.873973184415595 -0.8791519592265052 0.43257833669433887 3.5956556322688074
Ni 5.820112987303973 8.066324442995976 9.247691098235027 1.4509632454139594 0.8252014731519789 -1.5026971834531409
Ni 4.627087666978876 0.5224192748392322 10.65948092466927 -0.9285029988558074 -0.5439680387229406 0.8723045972873686
Ni 2.090848982643863 4.13356373865222 12.824144669516885 0.42167737351111895 0.03409642746307676 -0.8643480614444533
Ni 1.2965046510093872 7.009130207603458 8.235198748855623 -0.482833119084833 -0.04878976780919339 0.17665381334373448
Ni 1.5052405761306662 8.022327908534713 4.606788908211761 1.0629855781481308 1.2690931779766077 -0.04082089067110389
Ni 7.394926034087034 1.1224068559015818 3.171885396410432 -1.5095324612074197 0.3204643549052029 -0.6983278165551651
Ni 0.07065456509349044 1.9569802931048856 12.185521966313905 2.6338244515745157 1.8941142154178217 0.27247651417201463
Ni 9.088278870542075 4.913171591670595 12.459488099450134 -0.29879792567536284 0.5054554844700392 -1.957294190510416
Ni 5.0983402589045665 6.766098646004381 6.735807406919376 -0.4509632669594298 0.3976491289173216 1.0006877485501735
Ni 2.348154193756776 0.5400530636355089 12.405431511622053 0.49800725572211 1.5349678705613887 -4.016635722602586
P 8.486702860000753 4.6748979132427975 4.059451840164813 1.1649902394174065 0.591980047825845 -0.3042676905406825
Ni 8.602289800000284 7.089606931905204 12.848815311983989 -0.17767171308528756 2.2331966996448442 -1.4135588366235718
P 7.13483459177849 0.1139392683954688 10.280234129982736 0.2611754873368986 -0.43719295264821484 -1.8723814517264206
Ni 7.993586221284089 6.001727127032553 1.2014821336816721 0.6064934109506717 -1.8589106709334953 0.2493880077836673
P 4.449666758916812 8.874275950237026 12.82685407108154 -2.289977970299946 -1.4840451155695924 -0.9549285400371876
P 8.54126115457569 6.58175381457244 8.07143129931036 -2.8173618794119606 -0.8388918261548779 -1.5453939509907193
P 3.407329337706985 5.539147952483299 0.5520042367141821 0.832046006877638 -0.0385313233059788 -1.4066109445508292
Ni 7.229705301160662 1.5235778651623846 5.595138240300642 -2.5111674041622107 1.2077212026270296 1.3663148160349436
