# total energy = -340860.4396739809 ev
CRYSTAL
PRIMVEC
9.36066928095430 0.00000000000000 0.00000000000000

0.00000000000000 9.36066928095430 0.00000000000000

0.00000000000000 0.00000000000000 13.70028568363061

PRIMCOORD
 96 1
Ni 8.289518361345126 1.4491907058042548 2.865167885559467 1.6199220041062812 -0.3103416646489042 4.056948049068387
Ni 9.343351847655729 8.708932500388416 3.308153125426866 0.21804497469601156 0.2949083608129695 1.301728704623442
Ni 3.9005065618910115 0.16160914355980752 2.8324111601617945 -1.9769435893102274 0.621346159692788 -1.8708074223710813
Ni 7.069626605458392 5.760218771107368 11.391116154531419 -1.094367949114154 1.3409447127012712 0.31594924064366875
Ni 0.5811449713012112 1.8123004202984825 10.798619499830266 0.2862951652226618 -0.8416133388510989 -0.09712033659378111
Ni 7.860088306380385 6.380962180840817 3.5945708781038888 0.29094294840731827 0.41100112474419537 -0.015379567779863833
Ni 3.382206314628879 6.376871568450469 0.900304472305369 -0.5962272531379732 -1.2913018528631632 -1.7555191566190218
Ni 7.4826006041708855 2.284405765623851 1.1996343319188802 -0.39320240599987766 2.7654826740441663 -3.859083920195625
Ni 6.156736713567616 0.7531116952040844 13.102569406437656 -0.07001396729529233 -0.6063386305403622 -0.21436546896189532
Ni 5.950801993687412 3.4817757516909578 11.516788753405223 -0.04796161548094321 0.20477191173618928 0.9318001815498403
Ni 7.459732489595098 4.059974920430974 3.6169709592254033 0.6127959561299318 -1.9189886100619984 0.762014556080849
Ni 7.635937724459868 1.198970660480721 7.915257281769383 -1.3320561519623897 -1.7072150701969955 0.6302825429504694
Ni 0.5080783966208061 1.1963309517986203 8.267450583976144 1.8127382861424912 -0.2867353380838739 0.5182793757075848
Ni 5.07632828772338 6.308473159442985 2.69623027417265 0.216152385658989 -0.7619104264028168 -0.4163384777967088
Ni 3.915895501867514 7.728046708260832 12.186759921859126 0.36454489016418506 -1.2590915866792056 0.1894368240410157
Ni 2.782524410337724 6.790837798086023 8.063932788853805 -0.3826673107965087 0.16541680697733446 1.227238960944983
Ni 8.125481996291455 5.544202610622119 1.1057187389844216 1.5907284132614605 2.1937737177625314 -0.2725451626264209
Ni 1.024871576160179 1.3868392890259802 1.3072988756060684 -1.6560534597215155 -0.7585186271124484 -0.8417241533973504
Ni 7.913163300094965 4.914819303322788 5.75206469226702 -0.1816792915827839 0.6932198059046384 -1.5601867930291775
Ni 6.3789309156492715 4.382974167893988 1.7220570178462513 -3.52272783376083 -0.392923184196562 0.3577602631421839
Ni 3.781382687109399 0.08508660985304918 5.035512962310032 -0.9630889643607928 2.3973940323927803 0.11212478042241333
Ni 8.676142076582037 1.6518211094972906 12.829289352822082 -0.1547654979110754 0.25647833897154537 0.1431672515505147
Ni 0.7841488656907569 7.457485929014586 1.5197448769021213 0.16163137179297324 -0.9275681457463639 -0.20479402322337634
Ni 4.30894999676614 7.954977408899732 6.458123112179203 0.5288921182264246 -0.7125406177204373 1.206020160775523
P 3.9714042695443146 0.8483583752824961 0.40805028677353955 0.331179684440178 0.6000173163080247 -1.1314897936671158
P 2.7838161826715178 9.028112594864563 7.8265069060362835 0.7810327490545645 0.8304501231454279 -0.04998044568318489
P 9.243801131931821 5.930976096564399 11.663108180080833 -0.3342511242766501 -1.1982986237615492 -0.9739166511039163
P 2.9821032359088977 7.415512688835366 2.5804210123141993 -0.7744247568197437 0.8722207793243107 2.0916006492361916
P 6.91903216121145 7.616317762056736 2.147944059562142 -0.29907483348583336 0.24694366000823278 -0.26779350687404846
P 3.9914641833944637 4.289311313024838 1.4687797779994052 0.718900241389878 1.591729343722149 -0.4991161725155727
P 2.233586693158868 5.723159882198017 6.403924838174368 -0.4188316765322077 -0.7863032534248845 -2.598622449752086
P 6.351822417977768 1.7299639750227427 3.946257768113125 -0.05621562795961931 -0.2674803465090039 -1.340668833332065
Ni 4.993448923640684 8.455305171517773 0.9333045750992632 -0.44936198391058096 -2.7334945511733437 -0.7179191084235313
Ni 4.557410236301608 5.355500882528253 6.973733103146175 -2.425417257078584 -1.3246819709855056 0.3083485454782754
Ni 6.153479200725875 0.6683077775574162 1.9858565858120676 -0.3596430819871935 0.38873151471271766 1.5883987366870194
Ni 0.7903943041045782 8.358356721799625 8.169644696969765 -0.7473692953638483 -1.058579221550319 -0.15406821473373467
Ni 5.052833008318866 6.8233848444961795 8.448596379984222 2.5081057345177515 0.920268526761157 2.921784663204426
Ni 4.127390459184484 3.131808416592721 6.046593464706598 -0.6267256788371465 1.3946455446588368 1.212450746892215
Ni 5.50445720968524 8.338118955236853 3.7992128895833903 -0.2740466868726119 -1.3242428265655581 0.10949942698442432
Ni 6.78081252149549 3.6651793410824505 9.368419719466601 0.0944823847503018 1.4024226175010943 0.06669698710691739
Ni 2.4737721012227842 4.630114553088405 3.2375970821951827 0.05862526584237645 0.7544673398612104 0.8496174401024982
Ni 1.8937288806729322 8.006086662106364 5.95471943369968 -0.7724606911148374 0.17681399307068257 -0.49932648875416585
Ni 8.44249977620886 3.958870333638879 11.005124284457775 0.781771426992802 -1.001196826976108 1.31151406614498
Ni 4.68914293234134 3.7590200486642256 3.5303857062517716 0.9537103513593702 -0.5799254306541561 0.05900116112455646
Ni 9.224461989601252 0.7774016954139544 6.019289329051208 0.32112409997638885 -1.2108957437002694 -0.6141195600373617
Ni 3.122372862154574 4.8024444709517935 12.551899965477991 1.169620024879934 -0.3476038914344723 0.12220376192497018
Ni 1.0755315172507094 6.58968638010849 4.096330823092007 0.06970466358498963 -0.2779455077063859 -0.3190777589703215
Ni 1.669484692061561 4.418591513764179 1.0648163593485789 0.9776100407951034 0.6592563044750002 -0.01879502121931602
Ni 3.999804539549612 8.615335170202863 9.891167220611237 -0.02855055794418309 -0.9738832267628195 -1.0284782883998802
Ni 3.052654598806039 1.4235424725100838 9.395751937129246 -1.9755490229555461 -0.8134623303381796 0.5291911375240822
Ni 8.260593893871041 9.118237116819408 11.240987871604933 0.036903043673936445 -0.03704933944381361 -0.027406674147726993
Ni -0.16431812119314074 3.1162884272490223 8.97078224098373 0.32848542543746656 2.062356664769409 -0.46551468241104343
Ni 2.99949535906969 2.4201916313775893 1.4318575548587014 0.9993646588633756 -0.11070733124959643 0.8770279709049671
Ni 3.727792856595118 4.437003949855286 9.6832246372122 0.8065604610120238 0.6825186174370503 -0.05102765600077663
Ni 8.140309296122831 9.112658158044471 1.0966211047002594 -0.022214845534142384 0.10117573761007738 -0.03111677600946254
Ni 0.21945714244106546 3.8272218836209153 13.272028407092536 -2.0032557448421953 0.841111716624332 -1.3005477969414632
P 1.301067478195875 8.737473180429996 10.275899144625978 -0.7544094900400814 1.5576879378667237 0.23943989543201988
P 8.711909193157595 2.7053363330589892 5.32725974389741 0.1888686102423715 1.4568878384285104 -0.21068004969050813
P 1.7279888738457096 0.5589583134348448 4.400545079834313 -1.224747304871381 -0.9316500291252213 -0.45607359160280164
P 0.4487991514363807 9.355408389437807 13.472230653224802 -0.01967331005921128 -1.2753065058761712 -0.7674300706694654
P 1.4320138780324287 5.1284765751984995 8.859645825132745 -0.14939317785556852 -0.25729749243873107 -0.11784162830153254
P 7.558328417072287 1.6470658896018748 10.140005631177758 1.1850109055137075 -0.4170139065971786 0.5932131489019977
P 3.1282794443475015 2.431162335545753 4.45633279544986 -1.1986392949304194 -0.5867198278681701 -2.0182686733112596
P 6.530583115502871 7.773614445368871 12.520731745624122 0.18713542960134869 2.158363456584038 -0.6201248856911772
Ni 1.2703083195810407 2.6030991053075527 3.243611312082593 -0.818257694844294 -0.11253384293537393 1.0469200400448355
Ni 2.1057293141205173 2.4628762824073043 12.762309085181046 0.3383934285797979 0.02842046012422202 -0.3225592897610187
Ni 2.393298429095052 3.1880847591345303 8.1031979874666 -0.6512478323482268 2.0617689105867396 0.7315894068217722
Ni 3.5629889166764417 6.409802402293131 4.679031537595222 0.008996289961339346 0.1506933847242308 -0.026046303465090626
Ni 2.382402610279572 8.542424918696186 0.18466727971803057 0.8589037505004303 1.2746485605771984 0.05872682441724724
Ni 2.103183212129271 1.793316983393162 6.470165612957653 0.4287134544222939 -5.069857279385416 -0.26897235767349803
Ni 6.672949531623691 8.525294894269788 9.35759597780308 -0.029483868391729867 0.37276290719860317 -0.5459968962275112
Ni 6.321418964788181 6.66839088577907 6.094038015966271 0.31563993693336606 0.6393310263059827 -0.16175941273040526
Ni 6.241984326928935 2.3239826745171923 6.024166237644735 -0.35819580801770573 -2.6189444491388896 -1.9723405433205774
Ni 5.374250302706438 6.2740446185466485 13.344118663987327 0.7627660895348928 -2.056429243541381 0.2255983615632373
Ni 7.1966134422717944 9.152375476974095 4.858669329813632 0.6596206297929543 1.1943458097613884 1.5301359963903842
Ni 7.596987980395253 3.3393250895483693 7.241437006187537 2.431526712410432 2.1655370915143415 1.230919495120364
Ni 2.181101421596672 6.820894906519446 10.462195180764878 0.2547559569638 -0.6401638066199233 0.3766972092560028
Ni 9.0181715642958 6.732099599574736 9.57236155289851 -0.43650826787636443 0.1806300243826631 1.3939716585202637
Ni 8.542640214085152 7.3715081834646 13.182551643438403 0.1358663470137273 0.2032343920457403 -0.1284754538662949
Ni 1.5758218371924095 3.665853309256604 5.741816631752254 -1.2546908865083488 3.289054665609258 -1.1149650565392153
Ni 4.978125508347779 2.9884310482106717 13.615302863794666 -0.4416736141273877 -0.1855508587230482 0.5220642966713138
Ni 1.4521112345589193 6.516017914405889 12.801025748585435 1.1813522257151978 -0.20426591863404822 1.3755283642134117
Ni 9.120586644759861 5.694001397996797 7.494110482878371 1.3838908772454939 -0.0769222643793514 -0.6158707384005134
Ni 4.456399256200367 1.175278807025412 7.5167164987197665 0.4275348607331605 -0.7412639537970589 -0.4055714690881918
Ni 8.543707330360895 7.433372845450431 5.610253363822969 1.5797816844419696 -0.10321899329235128 0.4154910421947489
Ni 5.357251327647236 1.7571660793851005 9.873480236374252 0.845818378071382 -1.2808518611744328 -0.7417784315396322
Ni 1.5840030619731051 4.346514361806107 10.800455127037926 -0.9526507997466045 -0.8761237139231428 0.7843273606454364
Ni 3.3223635571655086 0.4818423133080681 11.811262297897194 -0.5050600488038335 1.6887897736122721 0.3944877004702045
P 7.17666585645067 5.80939036581331 8.3729977443162 -0.3538390737109068 0.3189214358981153 0.31129940057648325
P 4.571479321937059 6.207406015327232 10.780178981731904 0.1659333416024368 0.3417975691653404 -0.30954565111017013
P 5.371807168075132 3.194309604076363 7.907653610271262 -1.2737795277086836 0.002392154381260396 0.04059900446828492
P 7.057579424345399 4.209811150481993 13.481697097870931 0.028917711475614713 -1.3146891214388519 -2.789105455669429
P 3.8251438150839423 2.644192442592739 10.992259916933623 -1.1375959065648538 0.9110704052016568 2.5968884977801148
P 6.0852399230928444 9.053620418122453 7.072032297413355 1.1582200105731084 -0.5519240603452237 0.05493187615118926
P 9.288573212167595 4.217646030506526 2.3048401062374184 0.2919330802347295 -0.5019670117008065 0.7653873292078238
P 5.535759287107031 4.670496479523096 5.315943631039992 2.0395463517431134 0.7573266636868764 -1.698048573206379
