# total energy = -340891.27968826576 ev
CRYSTAL
PRIMVEC
9.08972992434003 0.00000000000000 0.00000000000000

0.00000000000000 9.08972992434003 0.00000000000000

0.00000000000000 0.00000000000000 13.30373854825408

PRIMCOORD
 96 1
Ni 6.373218618577053 1.9574733179450305 11.335716622057388 0.11497613382827941 0.30388048240459276 0.8991520564975161
Ni 4.454367562661038 0.5127243902731615 6.225537778100374 0.1501341697866511 -0.3833386258319204 -0.7105163882015569
Ni 2.7514066798330767 1.8215000494837363 4.49297800804128 -0.6539940276347962 -1.0231201094117606 2.1325557514923146
Ni 3.2382344298330765 4.527576246676498 5.106852911813825 -0.19494129879901267 -0.2325110295226705 0.1727411085528896
Ni 5.122062756731018 4.395675177177076 2.8555677118507026 0.3644973247557013 0.23806975455737067 -0.3894570800248325
Ni 7.218899812362295 6.085446862028078 2.4962070611411913 -0.15044321638663768 0.41222496984896745 0.9407360505868895
Ni 5.1191358637271716 4.12442854945106 11.671183099974321 0.20683342225090828 1.442766825646096 0.47932613437283905
Ni 5.691107113003656 7.879641363115684 12.474609775692233 -0.725242381557822 0.38176665335911025 0.39262570756080123
Ni 1.9898236663943751 6.272595309407555 0.517785551840061 -0.9429950218243953 0.03315206127193645 -1.428102795876018
Ni 2.8046634068813234 1.6394509405364268 0.29919845591274863 0.009102733632216581 -0.5065142647518567 1.0778738081138726
Ni 0.455504541020949 8.864559038369613 4.658490171516857 0.7928351410061314 0.6710502117861346 0.3683668350134366
Ni 8.778442938001788 2.5867734932316355 1.498999162190055 -0.5428714632246521 -0.5225792886345193 -0.03602886859909924
Ni 6.623131650402365 1.0898131574414647 5.041345046906622 -0.20612225511649665 -0.20492283549175674 -0.12525668981868104
Ni 0.9179718150883149 7.269465979382161 2.4648902149730185 -0.3896002904709161 0.4528242314275685 0.028255395301267465
Ni 7.6249744025915795 3.779791443113072 3.8407489892695748 -0.7816397865109441 -0.17534255073147867 -0.19462710999270352
Ni 7.76641968840789 3.958004686073974 12.589766653879899 0.014104300611866032 -0.5831529364525183 0.28491551126631576
Ni 7.870651620318156 9.04888966950315 7.012560218402009 1.406123206281133 0.5610252513155434 0.27810954408807587
Ni 7.174096534051865 0.8099067441105899 0.3449779712064489 -1.2479139727958315 -0.25093015545980657 0.5510357442029994
Ni 1.9155605737191446 6.802135699858094 9.267916708354024 -0.48748373048296695 -0.8914395183446066 -0.44711586818888155
Ni 9.138178085580114 5.020766807554424 1.4687194541949842 -0.059022758391111256 -0.251420979053296 -0.17052456051754505
Ni 6.364492477944467 2.018401776966092 7.267273536548224 0.8475001366491791 0.679824615544655 0.011449893708154475
Ni 3.5547751812801054 4.31916692123492 0.693448216611897 0.6360027332636982 0.2078726621487001 -0.6105282431416775
Ni 6.10337180924418 5.658893110501696 4.730317216598825 -0.014993645195354822 -0.5468744137364581 0.2925527160965994
Ni 5.3362804195311595 3.2985356974961704 9.353938275531661 -0.38126323136013046 -1.5867218632052285 -0.554000226147962
P 0.3134275189817579 5.602927643965418 12.603176732291622 -0.7705447050390472 0.5208319669261094 -0.6969147382577223
P 4.0265957873380245 6.025327388961497 12.5740150610651 0.9151101224886691 0.10684167764660309 0.39164688858729974
P 2.401497530196235 8.582550170530075 1.401256388402292 -0.2309665678536861 -0.046389128787500754 -0.6862911971056053
P 6.547250585818175 8.041647617797524 5.847990395955783 -1.7121243345731547 -1.325066350908118 -0.1076960552270984
P 4.902863921986442 0.936669389339594 12.821065736968327 0.33883360144101 -0.6989898756191961 -0.596260934589386
P 4.154797336798422 6.325533895911906 8.051010039517902 -1.0892522251541434 -0.9518882105489671 0.3120252229989143
P 4.745702493301652 1.0960032634527048 3.7443242263065253 0.00492700498797216 -0.7506703347126232 2.1073411998998997
P 0.033643817003528864 5.493287322808914 3.5663864021593397 0.676287548925674 0.37874792113744443 1.1457866699057622
Ni 1.27977942106688 0.9679471496695167 2.642135401707493 -0.017693046404388884 0.36817220250412724 -0.47831389105824074
Ni 1.7891315215747405 6.503101768055189 4.657053085231429 0.06638151274902761 0.8424672022109619 0.7305799917206514
Ni 6.148475048638856 5.668909992769518 9.142701135141337 -0.6841286422366476 1.0019319053699198 0.47802027107722184
Ni 8.48069974783412 2.541033972749168 10.216911771337141 1.1333867535795126 -0.2834996047553956 0.6310453892584229
Ni 2.082429833857686 5.660011147270246 7.114134313311266 0.989368209772296 -1.4316645450853471 -0.2730737814363813
Ni 0.4463475471946299 9.027301561167327 9.349228886509012 0.25256152041564245 0.7583751595560488 0.009258799594106635
Ni 1.4827349086130914 1.2176420279790128 11.571059725945231 -0.4202704658612633 0.6657820214086597 -0.28027235606734957
Ni 3.939970662099964 6.780665758010004 1.5073935276840054 2.031475916030153 1.0623500014466607 0.15719004819216797
Ni 5.500113709907947 7.966566449437988 7.943888482496075 0.6881794152672535 0.5370731113753202 0.2857063825987273
Ni 4.9697188848538 2.909195299875834 5.0224275011935635 0.09559721508103536 0.21145215196984227 -0.09336575464735533
Ni 0.8822755370901634 7.580716508070686 6.8530081907730835 -1.830789230106931 0.05798043316952595 -0.3236543225974103
Ni 5.123108075660963 4.5056427286073015 7.179867603518145 -0.643472559278182 0.15544195515280973 -0.3966795659152007
Ni 7.854435542309268 7.541503413603006 8.905629164640665 1.4923893737692298 -2.0829956811759995 -1.3885003509930476
Ni 4.717524330842262 0.05781977142070276 10.51981156523488 -0.21448142571446935 0.5013787432975042 -0.37830209184927754
Ni 8.217579338572198 6.974622413028862 4.966032999409515 0.2590041907171926 -0.04981306686738518 -0.4601899277640204
Ni 7.04317715537361 6.0467337027008075 6.963642019399526 0.5687650431619624 0.4342474968666457 -0.33805712828630163
Ni 2.4966579117405416 5.239383899590162 2.7110755485968467 -0.6518538413633419 -0.9636486935190048 0.3674661775760381
Ni 2.4098691713656213 5.389464428740801 11.258821143624663 -0.6047131791217973 -1.0233263118852958 1.215487991056642
Ni 0.898541608613092 3.3457750233998635 3.819716263426097 0.7457687836459479 -0.05112844324469905 -0.3577795464158935
Ni 3.7970710195115553 2.535416519716941 2.560091500301541 0.12060684975149552 0.33637279860534325 -0.9956339881763498
Ni 1.249765133182717 3.2276630740458923 8.368729728923313 -0.18074983778997905 0.11639358300109631 0.14459087137091872
Ni 3.6748596020062343 2.521000208213524 7.211530768392673 -0.9087571836874478 0.5052138007728783 0.2791860649817063
Ni 4.358170951916612 6.995292458652298 5.774740808156109 -0.5008460107224858 0.3304201805663342 0.3023295929777051
Ni 0.7462922699260611 7.237906437427645 11.252129284527049 -0.5281665529143097 0.8918745489994963 0.8520322201915778
P 0.007861707326169757 5.790521488106349 8.017550744029831 0.7396050780373972 0.8999951212241015 -0.36564197988310576
P 8.572542377992079 1.7222038408687768 8.204495581461215 0.03646878434999525 -0.31994499206662314 -0.7521772582754529
P 2.1501937697076055 3.2175371150201633 10.531824552172406 -1.3189147294844255 0.05666737078505725 0.3862252033510961
P 4.233877986281225 6.202931620024082 3.6835521106384643 -0.25257514726239727 0.1513418169415071 0.478958209510459
P 7.058747862564879 4.1173022012677825 10.296335103634373 -0.38500315801853696 0.05008174714773956 1.0419446983174312
P 6.623777021219982 7.8540901325758945 10.456166185968943 -1.7763468919976502 -0.15170485670788067 1.3343392915696115
P 2.537161747843458 8.60558354590817 5.559845051510976 -0.8278666786889678 0.08996649915781925 0.2787523198783973
P 6.900132077107992 4.015606303978862 1.6168302388924147 0.27169669858319656 -0.2872328465455828 -0.7490613383542906
Ni 5.281842027605584 2.67891608447384 0.6745597580342803 0.6590776128052908 0.7490196864830778 -1.069738066380616
Ni 1.3453436422990022 0.8552263190751145 7.209628287940173 -0.1773832353105913 1.3204213959369389 -1.037703149432258
Ni 6.965232722119008 0.6396888275042941 9.342230703516277 -0.41118367306864667 0.5650253736138721 0.034939492189662406
Ni 2.6316131304613677 1.3477160617834865 9.288550395058158 1.2610862485117313 0.6354754000053185 -0.5414283030202224
Ni 6.388789325768323 1.8520051827784823 2.587670649565423 1.4167362059102893 0.4720110887686645 0.39638671726513025
Ni 4.1891474258094 6.805235297728627 10.41170559047294 0.3093440766223253 -0.04222548432811437 -0.036137369152505504
Ni 8.010633459632544 7.390168501736431 0.1427105762080361 0.5433476315301223 -0.5367954322339014 0.0786317908712904
Ni 7.926798881450946 4.013061179627691 8.089923172901337 -0.7162520051337535 -1.2941930583680292 -0.21525969864139055
Ni 2.8319962244669314 8.228114335440079 12.55884884685107 0.9706994297181993 0.16498306187402556 -0.6205424328445699
Ni 0.2134632152246162 5.002832770608496 10.094038621500518 0.7745599968460274 -0.6552623528242585 -0.4509254717429589
Ni 8.798267638751442 2.082611628454198 5.722855721338546 -0.21188975372789318 0.7530864003532837 0.5987857578937688
Ni 3.8083968228742653 2.1699184834291785 11.425769484412688 0.22959282743461104 0.5525151569620033 -0.4847946136865779
Ni 1.3421258779407366 3.759575883980916 13.115397551532444 -0.19330453452653804 -1.1679135837117884 -1.216647558582382
Ni 2.9052867160508216 8.295014746956566 7.784350089461888 1.9673394905615602 0.16315217931287385 0.08499398564389234
Ni 5.918804845135178 8.188101344747746 3.800492393817915 -0.8206120540090834 -0.6532674338814168 -0.8234379534936529
Ni 3.2787019070166905 8.34459013342544 3.381863068753499 -0.3548919404554533 -0.4052883906301342 1.7059963672985456
Ni 3.2197640988274374 4.4843091327065965 9.195264315803891 0.8405908111238556 0.7262867636619362 -1.0535604281794888
Ni 7.562927906801968 6.028617871158367 11.281237326347599 -0.8876666815657357 0.7888378469212801 0.7113753937677426
Ni 0.5162130285802305 9.097183404066614 0.2549796472301055 0.8391468795884773 0.3642890653996371 0.7238658129252694
Ni 4.674566267686431 0.27075396436946847 1.734687675811269 0.017312266026202443 -0.33039395531408905 -1.8021715663702382
Ni 6.177834875975575 5.770896761412858 0.32942180758290057 -1.132937581857236 -0.8348320542632074 -0.22093335198740013
Ni 8.189110304758389 9.120634907016688 11.580305799123842 -0.21164524181725486 -1.0482017349707369 -1.3191242743920701
Ni 0.09317700249635903 4.781034273133796 5.719010765622313 -0.29616048805251577 -0.1770453923551983 0.984399295802795
Ni 8.06343570018951 8.668611732518947 2.491843081851916 0.011593618374870357 0.37319665230191207 -0.03339425918972958
P 8.280671153291754 1.4073810483587879 3.6904439437922423 1.3126510079629006 0.4354062930614372 -1.1088468594566192
P 1.9596094044540489 3.1739973091554936 1.8589179223108583 -1.4894549737312541 -0.23497337502023402 -0.534739321035821
P 4.943967680257849 1.0094326765935988 8.47960352641715 -1.8455815579247572 0.5071799233603136 0.297676667586726
P 8.609383052975275 1.9156060223682725 12.436414730965021 0.5940258746112802 0.3915101058991193 0.9128146415862731
P 6.269641147214231 7.862816273208479 1.4806397258882884 0.4199120540805801 -0.8768011996061417 -0.40179786097837256
P 1.6158085532600164 3.1409016028604486 6.208708143328257 1.3567716524311988 0.18614786887709875 -1.0856871335107046
P 6.767731072468162 3.6986474249598547 5.9308860050463945 1.0620820924972547 1.3099253815016214 -0.03203825938246741
P 2.3709742174418373 8.636615883532802 10.304157725122293 0.5226139985271967 -1.040304591610847 1.1034573130099319
