# total energy = -381159.9145895116 ev
CRYSTAL
PRIMVEC
9.33867744850708 0.00000000000000 0.00000000000000
0.00000000000000 9.33867744850708 0.00000000000000
0.00000000000000 0.00000000000000 13.66809841388059
PRIMCOORD
 96 1
Ni 1.0299907618132371 2.080928177346539 12.23841535980204 -2.113003797502316 3.4246446190331477 0.7565087957712713
Ni 8.992436730601666 6.358070506259054 7.353423179212241 -0.17115499501269232 -1.7057055755310044 0.5319352759281226
Ni 1.534727605443221 1.8382252867844522 8.779634417784074 -1.4534942393659291 0.12329185278282637 -0.07951805013098563
Ni 7.23529918088869 9.060665108701885 0.8362085335394067 -0.5825392141279194 -0.50868041916524 0.3837525734408875
Ni 0.6594862013938929 0.4506761732242408 10.765951519114855 1.215313927372623 -0.7341785077051872 -0.8805403549335996
Ni 0.605167783488072 3.319171448280348 4.9595381740451785 0.27071170896210794 2.72999553688115 1.507851731070887
Ni 6.865263422081806 3.7952198745104035 2.6934903257100222 1.5638650132117131 -1.8180118758366044 1.2245110204908587
Ni 3.997813145042317 4.479539487216109 9.168082313226929 1.6194988005259334 0.005202370136545878 0.37792079725045885
Ni 2.605014760837412 -0.057229283694739286 9.692773109154578 1.0045906831490055 2.4312546896959675 -1.6783184417673032
Ni 3.773628852040145 8.101564248087493 11.008259383617041 2.2695623827580715 -1.570986454747843 1.1779092614719198
Ni 6.263152187752262 4.985826551317573 5.921061487613198 -0.6046383600198039 0.5176445703370632 -0.0413497665913804
Ni 2.5735247401757726 8.09090881701545 5.580206294512548 -0.7010467581482249 0.8266027243748797 1.5494712063838862
Ni 5.568158466619433 8.631384779587338 8.876596038936409 -0.4089105607637538 -0.285829795550469 -0.0786256202237033
Ni 7.537620188860002 0.27619979302686587 5.2443809131344254 0.42754026004979917 0.14419646414597748 1.1505277841351733
Ni 9.348202990128899 4.047597635002934 2.9319982823215724 -1.4895264503991381 -0.6828538892892819 -2.2059270652956138
Ni 9.138876533091338 1.6191399117185956 3.771725629557689 -1.2652658338107177 0.3944095389341014 -0.601659479897138
Ni 9.132292765426316 0.11993383403061718 12.842667952891288 -0.18587327505947343 0.5641077468956092 0.6116237901987015
Ni 3.776290375138771 1.338456619605237 6.0948645491600075 2.2842279551900466 0.33454577269893354 -1.3936291875791806
Ni 1.0221182566478273 2.425161170113058 1.2315763890386886 2.3678782823218514 2.6750438632356186 -0.6278065706061511
Ni 1.4537612711797525 5.5687561419819325 6.018610511582737 1.4946925679811096 -0.13871307243390305 1.0254348735878662
Ni 2.343625176519708 6.951496770477292 1.8449201847121894 -2.0397903494331193 0.6673611929703216 -1.4707147170092736
Ni 4.958053324316472 8.625949669259615 6.543657111124624 0.7960492770680547 0.43253359949933246 0.2436271940404901
Ni 8.174181804631061 3.2219184603887943 10.549353033877644 1.0051591540579656 -0.9420979639314226 0.4177171033117903
Ni 7.022788234810316 1.21325296983934 12.292117424990286 0.2049241210433374 2.4981231693837427 1.3821240151530585
P 5.600451613549431 0.657347644237453 4.866485723310685 -2.0827725094216003 0.7901727636826198 0.36139374612971303
Ni 3.0842943694959755 4.6239434580022705 0.40088141071833056 0.20547022335479453 -1.2905176663989708 -0.21546204446018374
P 6.533665660025606 2.4993382858056457 1.032578509359305 2.223725012708983 -1.1281838692223345 -2.232952187734206
Ni 1.4795453598650392 7.5826979853409435 10.473645308936408 -0.2999086422410383 -1.713085155824527 -0.5766979248557939
P 5.080156533139408 6.18978753700557 10.197276485846086 -0.39917662130544157 0.29886091770281437 1.2116832725985711
P 2.993718536044836 3.949840358524274 5.032894419982084 -0.6460223222832293 0.4205975101833789 -0.9970455238118958
P 2.4315021321620662 0.47201972073971465 7.374622911093614 -1.7281795882638045 -2.1837566998461617 0.24899540033093892
Ni 5.042008035392433 3.0423076752804556 4.406471806415159 -0.9805308139863244 -0.49723566766340827 0.475169431891988
Ni 5.156472205988434 5.218555734267966 13.40498801609474 2.32905488169675 -1.2342642432228808 -2.1438935451026366
Ni 6.61495884800294 6.774164622688479 11.996954513352646 -1.675085279541986 0.44816822071279594 1.2068043472397152
Ni 8.536158284721756 8.689209870909067 3.4436364086529068 -0.011180442096851713 0.5479205956127854 -1.6874268318264745
Ni 8.658130752059146 2.3965381234559033 8.3055433783662 -0.5957402861992256 0.9941617745061975 0.49709477121016965
Ni 4.805132479614707 3.135815853478854 1.818431025872705 -0.5726355818609622 0.9822382835957341 -0.623071627024327
Ni 5.886980917802228 6.37823271106584 8.206353548753052 -1.5944919940689508 -0.11436446838620949 -0.6972086153490573
Ni 6.136883928746914 8.070373065107104 3.1680193491044766 0.28259174822914557 0.8393008886678385 0.888984886156527
Ni 2.694675403889726 0.8985526109222777 12.33243809913284 2.9622610260519178 -2.8952871311345296 -0.5323715921345928
Ni 4.599653557723229 8.536755960084253 1.4995404023438759 -0.4821330076940148 0.02703746373376634 -0.9898117250676179
Ni 1.491442835049775 5.542897343876333 3.6094577025071 2.2773998765246195 -0.576244125147827 0.866802693632533
Ni 3.424698504471489 1.3194243947806752 1.2600500168552187 -0.616301655290345 0.14441552213531905 0.1354724540094183
Ni 9.007686791022916 7.71957498203064 5.472037326445612 0.7928096870848346 0.49342426433711795 0.5423410446424789
Ni 6.217542086651594 1.421841671351317 2.9952678226485623 1.0751088437742258 -0.6627738307099554 -0.9457077927698679
Ni 8.763844581801067 7.452348724251036 11.669822506895615 -0.6296335965125608 0.33549039600038993 -0.644184240633226
Ni 1.0102768135283255 5.215380583904694 0.733063773988474 -2.8415387337684805 0.2817332568835922 2.1845429431928833
Ni 4.235435795023167 5.029708997073518 3.314390979248113 -0.8762219300639039 -0.4027879928057837 2.684825625212731
Ni 8.82125877131108 5.423250207246164 4.994432142669798 -2.3150832500080063 -0.4690964862250308 -0.7596550547097368
Ni 2.2755742332927302 8.857474162807472 0.2711494362137536 -1.0415883434192772 -0.6833269722709587 1.0878160069282492
Ni 1.7996472098706817 4.247958961603018 9.032726587108343 -0.735111818152734 -0.08146283256218229 0.5834578692874468
Ni 3.3094592236397467 5.301660625687876 11.535533257751986 -0.06820211089753415 -0.2110531167592107 -0.17134628508789201
Ni 1.5355307317115785 0.4218280644383952 2.9642550084091672 1.7173282473715972 -1.4410470147415118 -0.3885397104168857
Ni 6.393931028008963 9.038887312680847 11.004295115001717 0.5760412651084015 -1.7853789202929315 -4.304031062867962
Ni 5.948550818817113 3.4280884444181603 11.183853603515837 -1.4143615350305256 -0.6651610999952092 0.4876253982671538
Ni 3.8868042851357596 1.681596987099689 8.402832787100156 0.29923449899214916 -0.05622205571752252 1.8595344205604232
P 5.128568237501786 6.956782461964389 5.321400722269896 -0.7113329705655813 -2.0806896587506425 -1.3615078815646036
Ni 9.20929950041323 0.7770115904871919 1.5741004038155637 -2.3451492161554515 -2.0378298832726385 -1.0222636749487364
P 4.555257484702638 1.244070605718169 10.765554625319444 0.424412770164411 -0.43001083307747884 0.399061435883816
Ni 6.114741924301852 1.8625712191287274 6.919665888085478 0.12841683271421755 0.2722631126096279 -1.7878248107302628
P 6.3895418495656155 6.9557738847901724 0.9112877654822653 -0.14915946457820764 0.3226791031683346 -0.14465926271500892
P 7.263576696476901 7.378591849047706 6.831603092760093 -0.9321254260997431 1.6507287050744925 0.15665680139651728
P 1.4137076832148137 6.4149243751167235 8.483187437984817 2.406223971979585 0.3506833016907444 -0.6008349271133135
Ni 1.336075256832782 6.742646585994223 12.600866244711717 1.2309500912479832 -0.8584275821949602 0.36738184539234797
Ni 3.6595849219334 5.53534235374725 6.877909859205172 1.1753589842462404 -0.2594253374150113 -0.5744515520237783
Ni 0.030163928451096222 1.4782472836871128 6.182641580952698 0.2189831702395648 -0.7724622337767343 1.2039625069155457
Ni 9.105369358081266 6.626753597734747 2.5882051412671414 -1.2920065922396715 -1.3387135093779075 -0.3795634750602044
Ni 7.851595866400035 7.3817296447008225 9.315479330164353 -0.21057977666721797 0.7569497399634318 0.14758234989907484
Ni 3.4272573021171855 7.538068445381876 8.137479868034884 -0.8199754488663491 0.1686376279074773 0.38457429801123444
Ni 4.088781202950098 2.6136530375610234 13.01122361152891 1.10094637366262 0.7049502069676892 -0.3207068099333122
Ni 2.8323835428803967 3.4959339367392794 2.646867911964123 -3.4122961247701236 -1.334045928698909 0.5700570225005086
Ni 4.3716964389952855 6.145802365796696 1.4933217769706297 1.4989778256200248 1.0829144558615738 1.4644350546481488
Ni 7.320981547309374 2.890311359655056 5.021345277469555 1.4312917351269607 0.15535916563101632 -0.03831175109600498
Ni 6.041722804624105 1.5252955411287918 9.079280828508205 1.861613414576639 0.8632949375895907 2.7755847954751744
Ni 2.0659115838637643 1.7362095733479894 4.816295934744874 0.5482034169605268 -0.6413737677676246 -1.0179496209544145
Ni 0.10680271954297432 5.542327684546452 9.830916430518569 -1.14499451302177 -0.2433726548275228 1.4617323110050053
Ni 7.185038418373582 5.250269883190543 10.431642738969071 -1.0781432597251754 0.6964719942933489 -0.5456004321200411
Ni 7.333859583635709 4.653126825311768 8.161221587942384 0.6953314529310025 -1.3544874843827124 0.37759940935529807
Ni 7.718473018081032 5.183554370851648 0.9798878229485386 0.10883145438312224 0.44658776359955343 0.043702840204589255
Ni 3.9128685341472176 0.38748601165633284 3.4324281278705517 0.12175484731300966 0.497721091940259 0.9938558132300045
Ni 0.11790827487239959 7.752204321352043 0.6493808184288988 -0.26947475123121334 -0.14965980125339387 0.19993618091044277
Ni 3.677944761975151 7.104398937823979 13.275782743003365 -0.35605690729783196 0.519405518892228 -1.024678712148132
Ni 6.260247859037619 5.779651496846052 3.0170138671659683 1.1335492472993058 2.112323740716156 0.33464141773653333
Ni 7.883851658619877 0.27159395726461183 7.9424770746067015 -0.9678660740344621 -1.1474851406541078 -0.09231160235122811
Ni 2.8204393743079654 2.5086115926019112 10.728022480290047 0.3566976262056244 1.5988965508945496 -1.0377077774179482
Ni 8.436028984148178 2.560609349139281 -0.24947810111665947 -0.698389780141352 1.1619594230108827 1.1405087093362745
Ni 5.43951818351917 -0.49342396965919216 12.834467660144258 -1.8516709586519466 -0.2855670288073856 2.7264630982478595
Ni 8.447263413227642 5.103988838219036 12.42760949580094 1.3497911073483075 -0.6060460390006078 -0.2900572033682553
P 1.1742266364036955 7.717025523062481 3.8138776183656495 0.7552327572723252 0.5537228041168593 0.33989212461251134
Ni 3.483905720068997 7.292535935525461 3.701881660243216 1.9686813493014355 -0.027882585342881013 0.24443966263945643
P 1.4073573824882673 4.274919723658224 12.598378421015319 -0.00036226843542518257 -0.313742205690021 -1.2711981401347525
Ni 2.5029990474009494 3.247861306592245 7.0791592940392185 -0.8347379518875042 -0.09095714520586272 -1.412453262264219
P 4.611756483813824 3.430367081737686 7.339577655892861 1.6486283709020382 0.9900657500599529 -0.27176791814076423
P 8.660250631860507 3.8748507778857895 6.696630252420608 -0.16554150548065683 -0.09635620473424696 -1.2632544598076436
P 8.143055992393444 0.9236895292541092 10.22514590122584 -2.358963753441041 0.783444958040483 -1.11502187791908
Ni 0.6514166501324092 8.508693234079441 8.23009526866055 0.7910546520669409 0.4853031778918803 -0.45590775544889867
