# total energy = -340889.59370547987 ev
CRYSTAL
PRIMVEC
9.06528759342103 0.00000000000000 0.00000000000000

0.00000000000000 9.06528759342103 0.00000000000000

0.00000000000000 0.00000000000000 13.26796472628558

PRIMCOORD
 96 1
Ni 6.662750732277588 1.8723173173369618 11.446711531829306 -0.7591727157566797 0.4793988965923034 1.5184760435539526
Ni 4.633041890595814 0.363929599207015 6.232918304843301 0.30329504221476794 0.2075754426232554 -0.701404912818592
Ni 3.115920674334674 1.9949162676444858 4.7360135865916835 -0.45178627708135743 -2.3258080926246785 1.4536963280744062
Ni 3.5101881652230817 4.319292284699379 4.962656656425199 -0.013409588537686583 1.1236021633889228 -0.6606845522810945
Ni 4.92856120300893 4.227234288516821 2.828173033032076 -0.06113363408652697 0.7819457477871372 -0.23021940527501641
Ni 7.2757726796781865 6.193050982774206 2.6759360312504747 -0.8032429666030166 -1.2725399988746278 -0.25573143350319183
Ni 5.051441177233899 4.804357696785669 11.511312584748671 -1.3819761767212844 -1.7299616198648917 -0.2062526100467738
Ni 5.837619184219237 7.769468245616351 12.619175043918835 -0.8880127520512447 1.3259616090288777 -0.7627110679272413
Ni 1.8062223050113069 6.228586910399575 0.4985155793867394 2.671887062774192 2.2298483519979015 -2.0847782269977193
Ni 2.821652371618574 1.857250809246818 0.17346427936516345 0.09306724957033004 -1.3100557364318988 1.2437331019452647
Ni 0.6179434920709588 8.838800512647202 4.366686515112183 1.1632490883565838 0.28684563840949306 1.161845780251154
Ni 8.662516928819924 2.2962464294473617 1.4836503611646132 0.29960499495769044 1.8728000273210776 -0.06964372844006717
Ni 6.83196339173043 0.613319288835831 4.77969104906408 0.15322437867620065 0.8886287883686891 0.14334337211706283
Ni 0.8531024931318397 7.227898895548193 2.4565107434514792 0.3791603260845148 0.18833639188798532 0.04815933331404609
Ni 7.766114089182325 3.845721657365376 3.8370824382258406 -0.22926192645775356 -0.6064167920764653 -0.16296680277494513
Ni 7.579378228683606 3.7949469811843315 12.788792015201292 0.030356757914986432 0.09417179548841846 0.5306234990952344
Ni 8.268684571739174 8.890409195292923 6.511797375228577 0.5858369110425846 1.93801503056583 1.324316617226287
Ni 7.120230474015919 0.833901307340183 0.47338388240821616 -1.2960159705093808 -1.2711364336588817 -0.35302814777383723
Ni 1.6181991736649335 6.2652016072564285 9.188530245264324 0.9375417120193079 0.07704542022077698 -0.5784053944652039
Ni 9.382572727616626 4.970606007173844 1.4069081684828368 -1.9081480678030682 -2.161972771201851 1.301546413409307
Ni 6.236002315705074 2.1552902716292834 7.009359286353533 1.176862051154328 0.16261584719342959 0.6751953443027597
Ni 3.4465679764284793 4.258092527709872 0.5461255636458406 0.37886259233843783 0.4227073574375301 -1.166190687483411
Ni 6.010149738955469 5.476249622247274 4.8008004779080675 0.2854873246093857 0.6320895142522212 -0.6488371660242052
Ni 5.385886834857049 2.762020909394166 9.545982696438603 -0.5536240737554659 0.686744996813572 -1.0423064525322243
P 0.010645367298589573 5.613353032810051 12.593805836403632 0.29354747590970093 -0.33180754783216404 -0.9801598038001508
P 3.944560488717264 6.255438292447112 12.552476283435055 -1.6238619625906354 0.6410960886262056 1.1568326433072786
P 2.3964450539481796 8.400892726965802 1.2555885738123804 0.23407066070030655 -0.24696859970889723 -0.788579451053571
P 6.476658507202695 7.947845910892982 6.173040266794553 -2.0492399248817934 -0.3272718647453396 -0.41389233024906136
P 4.6977045874712635 1.078379424115064 12.64106680708784 1.324716680878183 -0.1137602591433073 -0.6924628731339558
P 3.9532994260210534 6.1520577519777975 8.388166876149349 -1.0694693861002613 0.540015996053728 -2.325636857154137
P 4.873308274724077 0.8833143773147654 3.860977629967604 0.6890623320928391 0.6776157808187943 -0.27139896483711967
P 9.154580742979373 5.4730949021417565 3.54007913822286 1.3074895183666193 1.1316746559844124 0.21013883247505746
Ni 1.2243668165841828 0.8765135985125837 2.327280535221007 1.1800700165686644 0.6568898611253526 -0.26578650374634866
Ni 1.9021421137368253 6.572913731571616 4.501435670469778 0.47686533153717225 -0.18060611312326313 0.8881104539713738
Ni 5.830602651570758 5.535618191129556 9.266452738399371 0.8052047183150778 0.4316136587882244 -0.061619572584010004
Ni 8.814986001965607 2.0943262121189243 10.086253897313918 -0.3525571216746896 1.045312843458716 -0.27509338296957137
Ni 2.225482793977047 5.189568965302204 6.869661390462599 0.1835986200926838 1.6157902413260947 1.2991360041956013
Ni 0.2699153139475305 9.058588411952579 8.851841835474206 0.8452799890694088 -0.7566748890354903 -0.07473322714783259
Ni 1.6399830599107914 1.2822486782903009 11.403337756493505 -0.9180326954521029 0.6112065001556247 0.7474253454127645
Ni 4.105813825605036 6.88398907760849 1.8186934212445263 0.07174251995062483 -0.023434319763540285 0.23969057799024523
Ni 5.471726043705167 8.032406914181106 8.329667668353617 0.7871877129123669 -0.7028311037421574 -0.9699669224275489
Ni 5.331395390735597 2.9326568190095554 4.923356821363591 1.2498734105150473 -0.5370391728135913 -0.3770797894064022
Ni 0.9964201583852264 7.57694873159085 6.6071941168561406 0.6227445827022113 -0.8939316886388411 0.7938779804483488
Ni 5.004981577978794 4.8799350000031945 6.840166570533541 -0.22229397978035265 -0.14806623151402887 0.9414181642555787
Ni 8.262592698431966 6.950600811330739 9.414549623306865 -0.8296883052787387 0.380358460157674 0.20739186585753963
Ni 4.65874198111059 0.2068462946426277 10.364469388642517 -0.6671915001616767 0.5138380521067796 0.6759844158629583
Ni 8.015681458449267 7.346998644819137 4.67722338306208 -0.11275804313103806 -1.5366534857939278 0.45540664744276405
Ni 7.112606567094252 6.199088464355454 7.258107153616054 -0.16570914140677268 0.08490811079830538 -0.9272411014242483
Ni 2.543792239566229 5.065954702776812 2.5911538349434586 -0.03622067289493117 1.3295297859961104 1.3331681540796458
Ni 2.1838640583321314 5.094020833370726 11.513607915584064 0.22255237564806188 0.055421157082781974 -0.20090651524351205
Ni 1.2815325205651977 3.2782799763169095 3.810347091860346 -1.5341132358705774 0.03492637956353985 0.14718691423286911
Ni 3.5772169021776685 2.2460338011012086 2.570376195627809 0.4046463861707612 0.013916610081092162 -0.914736026978702
Ni 1.0149133452106736 3.295485892294703 8.022926436346767 -0.2723502730067955 0.21867592341179112 0.4701920332820548
Ni 3.6262057166897845 2.8812747685553224 7.216910860376072 0.4903646515751877 0.31047741889582015 0.031198279979675305
Ni 3.7330854581956787 7.238387433370272 6.3783753779843355 0.4365681745800223 -2.1110474451068932 -1.5428716987894977
Ni 0.9799122695572168 7.32091781222266 11.218993318879372 -0.6209070152728404 -0.7686618861940374 1.2662868188760643
P 9.151407892298538 5.825979354864397 7.757686091245257 1.2242017167805561 -0.6304884883136884 0.6121495807951844
P 8.374956938971879 1.6274095059270188 7.909126254241585 -0.36930991565299626 0.9501267477731702 -0.44108688838598226
P 1.5886916623331535 3.3015777656019094 10.283044068355824 1.0708629240136784 0.8030007686852235 0.5501096328443041
P 4.045520597381483 6.2144359963630444 4.139790523752966 -0.20890418873700795 0.11411481426924862 -1.2278069176333113
P 6.752723712298453 3.9994145443450977 10.571622090008036 2.27398159487169 -0.9383004445622033 -0.221175035684561
P 6.312966607934508 7.80794132644341 10.35699959161106 1.045807009486315 -0.41749110334391326 0.31798246902361366
P 2.464244340353827 8.770484504844962 5.460404405947176 0.37956218950862375 0.48850882931337164 0.8280163168929545
P 6.825091903684505 4.074348212138797 1.8511997297340796 0.29632169622072835 -0.28831759496932924 -1.482054567502125
Ni 5.367611214935431 2.789461535139572 0.7125814691214191 0.0002720227144640477 -0.002347931406886279 -0.6952342652315059
Ni 1.701636081283275 1.2628489626989006 6.841718547780854 -0.5213173912029602 -0.8048499060788203 -0.24446074568537904
Ni 6.773274719422614 0.8289036142534824 9.43492929649426 0.7638325831261942 -0.691419519471106 -2.3053955904065973
Ni 2.6009126171089463 1.6996870444364753 9.194128966922852 0.3553583385689106 -0.4882925995375075 -0.17944500293562643
Ni 6.570130688260139 1.8922609501879344 2.6849850013922203 -0.307567958558509 0.01678776098130012 0.43614265700682947
Ni 3.875455800888644 6.790933899783384 10.400956264943371 -0.1256672949935384 1.1516197316477714 0.6738593991001556
Ni 8.198410461802474 7.197738683504926 0.6617252053514392 -0.014802355120155155 -0.9037561309284305 -1.4519217526724866
Ni 7.8077146942519216 4.025993967762848 8.299164788436821 -1.1618768905994055 -0.31170563487596636 -0.44004713426755826
Ni 3.080375681421645 8.560387398047625 12.161681704249014 0.15381161863823833 -0.8516897492504946 1.2902741829295972
Ni -0.18641857543063606 4.759149107227577 10.375919753485272 1.0139428137878668 -0.8713142083496414 0.2510941918414966
Ni 8.61754403674098 2.3901174831618257 5.697542359304133 0.3012911244108618 0.22720915769378286 1.0257259224657238
Ni 3.822976850627607 2.579174057301386 11.301984214344863 -0.5574953837854141 0.394508783516127 0.48113104879206176
Ni 1.0910255004001124 3.319046574921829 12.8021660340854 -0.7871206071198573 0.7638166422865942 -0.05680595324545055
Ni 3.156451575460445 8.434597466483947 8.213586659873299 -1.484897950488191 0.7551170576300673 1.1156312293683044
Ni 5.66692888287789 7.713317853853205 3.985073259267717 -1.1797964511923036 0.6377210015063856 -0.492492496551468
Ni 3.092233077680314 8.704199121478457 3.3293039479085906 0.29844157077720856 -0.34051458868785867 0.8362276490591533
Ni 3.5499666474731124 4.372668698438709 9.427339837665698 -1.2425455093950666 -0.908035989250707 0.044562102881091
Ni 7.147344749405582 5.924818186216285 11.491476828820845 0.16456242939683918 1.9597552504563989 0.7004464055600648
Ni 0.5473947039181752 8.859650674264127 0.055118762027492385 1.1560276309074802 0.4067125246711705 -0.12609769766273765
Ni 4.601957019211277 0.2847461245585264 1.4831726205049558 0.6007824766088234 -0.20897695095647237 -0.4417324923897812
Ni 5.626162284272971 5.624322030878085 0.4393818014548399 1.6984923456120167 -0.731477049613624 1.2810490647869035
Ni 8.226395004807452 -0.10105438765587788 11.142383479397422 -0.22578090988768856 -0.7540305094341079 0.6225162687414891
Ni 0.001688863090970993 5.0888445541171325 5.629849136764103 -0.08770444259651991 -0.4216328934264287 0.9989118875966733
Ni 8.150944615617158 -0.37033422493847507 2.5874524779920716 -1.8072397249217649 0.8667173330075784 -0.5998962173491281
P 8.653161551955286 1.548949441233761 3.695340319967681 -1.1426260127895935 0.5942336197467121 -0.69549034710637
P 1.9021874401751229 3.2599137035186954 1.7304473785228027 -1.052949534068367 -1.1384945071197232 -1.7975541222028848
P 4.591359697937282 1.2279113440590603 8.258206912262285 0.3037897224629994 -1.0698414247276995 0.22990778757186855
P 8.71036351708694 1.6187430909245055 12.50952857661925 -0.23305481784128249 0.5931830669950107 -0.1595336087236801
P 6.346580694576056 7.797090177114948 1.4930574101689105 -1.166480707920004 0.5859302420873392 0.5479293373635337
P 1.9016525882032103 3.3631945258237548 5.960752986498673 -1.5259942063078686 -1.45993022479926 -0.11646968765467036
P 7.019850543761911 4.107536230260347 6.046489757596238 -0.36365888801480595 -0.9768039999540402 0.9154011713665267
P 2.0547471661974033 8.722229978633267 10.113612028941622 1.2016050624269627 -0.4343066322393553 -0.8434233954766442
