# total energy = -340888.7647244122 ev
CRYSTAL
PRIMVEC
9.11951080585072 0.00000000000000 0.00000000000000
0.00000000000000 9.11951080585072 0.00000000000000
0.00000000000000 0.00000000000000 13.34732587864275
PRIMCOORD
 96 1
Ni 6.3372028140553365 1.745045761697166 11.280972639103625 -0.26059596068434476 0.8678337060002087 0.0994250734675578
Ni 4.754393150567201 0.5495216615323276 6.18508390119499 0.25534448247741837 -1.0121774943573276 0.022663503035786774
Ni 3.0049609041461145 1.6148921026955199 4.680987471797445 -0.5255622825222432 -0.5355764722251357 0.9476600314002325
Ni 3.303333060481306 4.060243342395376 4.631028055450142 -0.7586060446199322 0.4763637093104054 0.5811855283135023
Ni 5.035593267951993 4.617974387604362 2.537246726739359 1.0624168501288542 -0.5674342401656809 0.223868266246008
Ni 7.31215148113409 6.186785601921568 2.8561678768966083 1.3709356026364066 -0.5779387392414305 -1.8365065922066823
Ni 5.239842952695537 4.561013922769422 11.630178772877645 -0.3891686022501363 -0.41656139244079227 -0.37228699600344917
Ni 5.759837461963604 7.9228395259102395 12.664449858104218 -0.010761095171245984 -0.04524138833630273 -0.34508035368167017
Ni 1.8944142300819724 6.5453374104254705 0.39415346695237097 0.24451988105808853 -0.3018356840604221 -0.6115741679076886
Ni 2.8565135063582225 1.6680679705233366 0.2750325921898079 -0.3496121801137527 -0.3962856729108917 0.2725297360074532
Ni 0.7641119596406396 8.668551048487565 4.8390997271953395 -0.6484913526490121 1.69362010512138 -1.7695609794240685
Ni 8.622862299076253 2.217974475413979 1.856252724934951 1.904567806650978 -0.10578932512268877 -1.404511381709323
Ni 7.0677759486041625 0.6341443386605489 4.678878128935403 -0.02030143056151342 -0.3389179336247002 0.3114783493565087
Ni 0.9091176540297632 7.452692263005892 2.364906210496849 -0.4892665334150026 -0.09935822478536437 1.4400640820029522
Ni 7.488623135796425 3.686671699504161 3.824796722949006 1.390321463362186 0.9000496286111209 0.05780971191961657
Ni 7.545072908023175 3.5639686808755773 12.6161328656629 0.8772765965806634 -0.23190142096312963 0.3855441181236715
Ni 8.294423115433856 0.12494459439810472 6.6584339363135605 -0.7602446086646197 -0.4787700047590528 1.081877529956627
Ni 7.043764276508358 0.8636477728791042 0.2693292500976254 -0.5510699398750445 0.4103107835453901 0.1367353798822419
Ni 1.7105557716225985 6.699776326848738 9.291580527311286 -0.8317076497016128 -0.7412508411709363 -0.021923025325336437
Ni 0.09489580611262101 4.6407093281796925 1.3410860847164547 -0.27248808413624037 0.34991017097014576 1.484826216709991
Ni 6.509680122960755 2.076631176586449 7.302148289671162 0.4319728418998561 -0.1735666897779785 -0.3062566959462532
Ni 3.358506101187581 4.411517781232567 0.41421000718795953 0.23189782141870385 -0.8715718328864022 0.12617997296389882
Ni 6.098463139237224 5.735470128944238 4.738434006561254 -0.6899395924914699 -2.017823358243725 1.8321786542552898
Ni 5.160074591198382 3.392084140176094 9.250884710096122 0.40079693051768395 -1.2839862930383563 0.15383784389048344
P 0.18786283567823753 5.389101986950017 12.62674341654914 -0.5029041788030952 0.08970296108378746 -0.2424475719100921
P 3.925083071931293 6.082029780666529 12.6430810202558 0.5298876493704745 1.1461756778140648 -0.5237709949497753
P 2.679257573761881 8.405051901683084 1.567296463563269 -0.005122923048862145 0.262318085581774 -0.2582634558964262
P 6.506597728289892 7.891477528060838 6.159724365393997 -0.142961820407928 -0.013622475879441057 -0.7839586644521079
P 4.662824142016506 1.2068760672840402 12.544044044261407 0.7264975941211617 -0.18840169790828198 0.06932979674407415
P 3.73938247227809 6.568683358228457 8.280147433132765 1.5037544210730618 0.24005258931535434 -0.661009539720681
P 4.993452008265431 0.9910993208127716 3.9636886972572225 -0.09910599956524223 -0.6416864139120368 -0.7428611230808497
P 0.3160767747198463 5.328439000705696 3.774730608324634 -1.261365984535679 0.6235251696219778 -2.1387359121610974
Ni 1.8671742511415355 1.1784231933991511 2.549993067069138 -0.4122789630153545 -1.3622365322005119 0.04011435152238253
Ni 1.7885640675236691 6.582900675660041 4.695322430919131 1.5738912870994637 -0.15649610744893694 0.9977453780923977
Ni 5.72270281373948 5.83490015585672 9.134669311493726 0.24885321832611978 -0.16630897977430067 0.8255724833381524
Ni 8.693128130256724 2.602042675305677 10.226681491684904 0.8611910038727103 -0.9053602421907568 0.7009945647540508
Ni 2.5440243472109136 5.407231574540773 6.984775632458033 -1.3742762369738653 -0.32421353753499005 -0.72041564959314
Ni 0.5006100769829003 8.89589133473 9.321798938498777 0.44350706779170074 0.9096318729829173 0.030585843206657002
Ni 1.5644794466584475 1.351392955891039 10.9375865771608 -0.31685195496359625 -0.1576291926121156 2.109842369055199
Ni 4.196643866336493 6.615192863617217 1.5497049271132846 -0.10736566847087316 1.7249525966860744 0.17840859125131212
Ni 5.520459421385255 8.135980733742812 8.209766696115452 -0.47094408095673085 0.2650966767681757 -0.12303859912143973
Ni 5.354584638342868 3.0613468397968413 4.647218835031947 0.4978324207071427 -0.4798670944779736 0.9801086388472412
Ni 0.854497255681637 7.632684048860396 6.909189478641521 0.8170101955904382 -0.7597522424092334 1.049214235395651
Ni 4.872244589417977 4.682504046453554 7.098108353677409 0.6046787263394361 -0.00832291804339857 -0.36733865085923834
Ni 7.933573190193097 7.3642421271695016 9.006468139767321 -0.6325880511551945 -0.06513272794359105 0.040575350319201085
Ni 4.244658091017243 0.3936929316539136 10.39596514788696 0.27044662822617943 0.7759375939198443 0.44174611923653595
Ni 8.308686030419745 6.9788424786921635 4.967140395530598 -0.9120847053987841 0.34841867402628385 0.15364938202876122
Ni 7.1221738308872915 5.90852196703387 7.104354306665795 -0.4880527156125595 0.576912097749129 -0.7741259946324023
Ni 2.2896447112669733 5.4125026518181665 2.6602023558187793 -0.210563835827618 -1.4286962064856428 -0.6877721525265058
Ni 2.1224749576823903 5.3133279712097785 11.34951123492711 -0.29595891356467097 0.2830092953825384 1.8422771761418724
Ni 1.1033513799951749 3.147936595417682 3.8223809645220483 -0.5514000695209537 0.7118273937034967 -0.049098043078231575
Ni 3.9504261926127375 2.4565773575691825 2.569440423979242 0.07881871007111588 0.08238020217012909 0.4542565929987209
Ni 0.9452464202059697 3.431252439322119 8.130603870139437 -0.4055131050464307 0.8467863984116061 -0.5903494542009574
Ni 3.673503125821539 2.590196430697834 6.932227186977421 0.37289917566615133 0.5508979330735545 -0.28906681443052795
Ni 4.227659322773194 7.092407747438486 6.037222887955432 0.16854506819367102 0.15834601617348212 -0.11355997020704314
Ni 0.4644320654480467 7.34080498425791 11.753081508794075 0.5338314645095709 0.301675504333474 -0.7138081715789514
P 9.100861460831528 5.948246556342388 7.964802955135021 1.0630940787015368 -1.3770656267935446 0.3688933969408679
P 8.764397107631854 1.6351556558276428 8.191493932204185 -0.8548437214984439 -0.3725312508037713 -0.16026277358022076
P 1.694222727671369 3.6019696826314527 10.134544337607597 -0.5487099242833001 -1.0475579307391507 1.8107181703886688
P 4.023993286724724 5.927289920384864 3.9189885028231934 0.28610696047125567 1.9455982422297267 0.37313417449509284
P 7.032647592769358 3.8646754319910674 10.424021323049416 -2.0139098821219314 1.1927882354662813 1.1446420147783578
P 6.299338604962369 7.616560753658959 10.447325321102443 -0.056451655229825363 0.5125895244116592 -0.12157101343697774
P 2.6014134290563 8.723587296530932 5.742006082377988 0.8898510908115642 0.040733987384252435 2.2573475858594345
P 7.100815936451904 3.7500522999849233 1.5125994613239138 -0.8934652905253838 0.9693634845155951 0.7536127051703989
Ni 5.286926987268512 2.861574834885823 0.7237508284740558 0.3218247255878393 -0.23541149099891714 -1.8533370335004598
Ni 1.5932241448908737 1.1539829042929006 7.232635730087772 -0.6976922398536952 -0.3185378273064514 -1.730602595883
Ni 7.224348830568797 0.47427566547091504 9.362041516024172 -0.6935496784402314 0.7969548196014598 -0.3104144268683686
Ni 2.6990195537966737 1.9940904837876892 9.031668084128256 1.8960628545037603 -0.022585084389367554 0.6995861144422983
Ni 6.516866297518861 1.7909077818148282 2.6254989691900756 -1.1923591183486626 -0.00868390092724311 -0.15447753435701136
Ni 3.982763978124217 7.123195216103673 10.539022002805186 0.504157334483906 -0.9612082023983124 0.23524591195533034
Ni 8.381450607576003 7.014855427080441 0.5356271747852068 -0.712981819022914 0.2442846251188309 -0.24503538724192636
Ni 7.684227524244175 3.970780940853466 8.43922088497536 -0.1519246860281706 0.27287374961043326 -1.1948525741944775
Ni 3.3959325737592425 8.40159560706694 12.657830005170553 -0.6653333639070155 0.18035543056503778 0.5287815607904893
Ni 8.904199209123954 5.46680021948183 10.250653037932922 1.1259251550951448 -1.7108747784367695 -1.2670056993199599
Ni 8.704846701712519 2.2631160541736586 5.685827159623795 0.2590558698907345 0.9671705906293343 0.36459785488930757
Ni 3.464374502767605 2.9252290206924014 11.599653946125242 -0.24993539564670506 0.15324057662611676 -0.7697075538497324
Ni 1.0328028439780272 3.3573570428191526 12.889005045729846 0.7454209133882259 -0.5791224751368864 -0.725320285983609
Ni 2.835447436270372 8.522365289393088 8.482626108867192 1.0851821688498278 1.4647173617752582 -0.6150011913113667
Ni 5.730864775959664 7.752933919067495 3.797740958127952 0.42567595314755075 1.3330395989215815 -0.5043113435632669
Ni 3.465687712331523 8.297122490648578 3.815773878903586 -0.7847035130379324 0.08862772574173769 -1.0156340854473607
Ni 3.2396971136964483 4.8180017388194765 9.377710659584755 1.6581753911605248 -0.9853056096671484 -0.5532255527654666
Ni 7.198759483094118 5.938224213906652 11.602230207943345 -0.2350559074317113 0.5773849236204894 0.8644403640479436
Ni 0.8803930187212301 9.048205405122761 0.40546530822378646 -0.3820031948499486 0.02648159123029633 -0.31404071076704626
Ni 4.734649409554129 0.24019423680036794 1.615213109477811 -0.061859970729590236 -0.4849529936413132 -0.2599040768236427
Ni 6.058674713352683 5.5801283809457765 0.4110601281367285 0.5501916510351492 -0.3134619554454408 0.5135722000399027
Ni 7.912771585920202 8.945118454355201 11.641631054616314 0.08266970838608989 -0.08442397207303524 -0.5156959312511248
Ni 0.26760748644715515 4.974857325620787 5.859529218837784 -0.7956885512945264 -0.8653626187518967 1.5377670305730808
Ni 8.016423946361115 8.844931508041295 2.2575531525487285 0.30475491458974613 0.022366797730974382 0.4057113371001658
P 9.052081197238492 1.1012082949429478 3.6591289528031536 -0.7603420534744325 1.1611829498561743 0.7723352212805666
P 2.105257321177688 3.208645179216305 1.7172403730833754 -1.3550487562028213 0.5960537036745864 0.01035331820986604
P 4.830030373644531 1.2442660618122596 8.442998186373796 -0.3822068262203224 0.038536465512301374 0.04116464716376781
P 8.97790309589885 1.5192284337684414 12.644229166673142 -0.5848033275717477 0.2738512830323542 -0.33659905568353643
P 6.35142013148692 7.7291046371889 1.4489854013651218 -0.10962181149490154 -0.6314505951166416 0.1223595707765441
P 1.7920112426289538 3.450148065825161 6.137501029377944 0.5773756676491089 -1.5190882232166547 -1.0933593053439814
P 6.8441290642602475 3.9193833776434546 6.137954269067714 0.04204293600366308 0.23541123388860102 -0.8647129009830398
P 2.1571473379741684 8.322383535732277 10.803165899027508 -0.289616773396727 0.6819969406056255 -0.8241552912756516
