# total energy = -340896.4652518911 ev
CRYSTAL
PRIMVEC
9.01191781447793 0.00000000000000 0.00000000000000
0.00000000000000 9.01191781447793 0.00000000000000
0.00000000000000 0.00000000000000 13.18985266010791
PRIMCOORD
 96 1
Ni 6.3462287183149835 1.9602814199246148 11.541701292303635 0.8583134252145992 0.1476324864107199 -0.13142708029545108
Ni 4.6842958564055674 0.31953557728342125 5.908698295994268 -0.6493452160088752 0.04620966578684299 0.28620594794296517
Ni 2.8203157924572246 1.6715666022742506 4.794986541886548 -0.31280555280836453 -0.6550291537675299 -0.08628107988643205
Ni 3.3768467898664154 4.1068391853507755 4.816446622270815 -0.8404092912406689 1.7220611340708922 -0.39533950694753844
Ni 5.0420870256896695 4.624375613481535 2.6522948892915506 0.08914837413189808 -0.527441244712511 0.1563474976862146
Ni 7.189708197442351 6.435167337267801 2.8123276283230894 0.2593793146684243 -2.6636821583658965 -1.0965091638268727
Ni 5.166811971105315 4.442569179318584 11.557555959678616 -0.38082434405049903 0.14611347866303223 0.0014675856844619886
Ni 5.433744982898049 7.7065597198034865 12.327909131213449 0.3614590521500098 0.8951676179284711 0.6219714519816127
Ni 1.8219665021327556 6.168297408901218 0.30849507651545105 1.3384990793742562 1.5435931503365545 -0.06955759648416408
Ni 2.687137667937541 1.5443633794027303 0.4296107487635414 -0.1691261375081216 0.18359347788636124 0.018786279468567646
Ni 0.6124310237038951 0.08964875809290175 4.735777339294399 -0.8367637240682815 -0.43322059826402803 -0.3869325138307659
Ni 8.684253694022994 2.3417649216868766 1.4381822576996406 -0.006533944463775843 0.5837404335248721 -0.33015869937483133
Ni 6.950162404516536 0.6256470014822221 4.935841018176825 -0.7640038185967358 -0.7106182038867439 -1.4620339014058241
Ni 0.7873523524985254 7.123596766837642 2.5611528563825092 -0.30222366352746016 0.567490804435229 -0.25724247083107954
Ni 7.47759391863475 3.873079043794675 3.8733719311303694 0.04350923613654442 -0.02915168186329173 -0.4534536374814513
Ni 7.466500247550454 3.7948826311233197 12.7255041400143 0.8528112644494473 -0.21939634651758344 -0.37209519170761723
Ni 8.03088963747427 8.632516272662356 6.969069408525353 -1.517472541990103 0.26833189587602174 -0.5052713934836911
Ni 6.874957948628274 0.8567306033859783 0.4959348606335548 0.3927167246127108 -1.2183295742704954 -0.62037839646288
Ni 1.9203045515818544 6.454894425816562 9.114346580400678 0.12597171360783466 0.7033661503100209 -0.2322248657408194
Ni 0.02058502314439436 5.001335132397073 1.239552374974412 -1.0428646390285397 -1.1325084647396173 2.190729017398937
Ni 6.3599899171336025 1.8314650637272707 6.943666614006739 -0.09198558647037705 0.8454877342048407 0.4390323198497987
Ni 3.6238003794057896 4.174933237920184 0.5174652339783901 -0.4423426151699543 0.7373839020163623 -0.13024025907620151
Ni 5.884286812458004 5.578404290976946 4.825494587964263 -0.14982512318666455 0.790717066221864 -0.5584585190296317
Ni 5.283272987695373 2.804626043182034 9.518246327049274 -0.3083174351300238 0.5273527987637627 -1.0422722568601792
P 0.09112581145660294 5.622652808461833 12.366766719337955 0.13392362146505968 -0.4860058603858598 -1.313083981735261
P 3.9652349174811192 6.040877899997184 12.621818418411326 -0.35476261396644065 0.46695732839484094 -0.5725543350010656
P 2.170412312428705 8.411210601811778 1.3610348322859718 0.17336562951076595 0.16588731885584979 -0.1775290168598362
P 6.279044869465731 7.709867093717326 5.786889607250336 0.25638475081647455 -0.3696217904664602 -0.16123773589898036
P 4.670264300046308 0.9070315250140107 12.62510326253011 0.23711793216706262 0.5025424245883022 -0.08890849020695012
P 3.9713540098176243 6.247322918030538 8.207108682463979 0.11075181133428669 -0.18873696976051366 -0.8745034047109003
P 4.688621577055821 1.0112273211769947 3.7825597344209094 0.3532672603678368 -0.11181316271926549 -0.47624518145467015
P 0.08558258068166336 5.402248329413389 3.725896398669796 0.45048581310237895 0.5354530592733939 -0.9634334921844053
Ni 1.5596205566128956 1.2274412583455039 2.6603272118239905 -0.4303635884312072 -0.8764615568785358 -0.6416105663687788
Ni 1.6890316993996495 6.420162493762235 4.894160897328028 1.050705475229197 0.27251585205038226 -0.39999628899325956
Ni 6.010381569412897 5.623734238624395 9.267335604306721 -0.04241780284457856 -0.417494702888339 -0.8802364505399357
Ni 8.482314635000321 2.328039770540342 10.138947587921372 0.4955068578977595 0.4904584968405747 -0.21568290222173825
Ni 2.3456580702721044 5.115867598530558 7.008890370686344 -0.4785072380159695 0.47896926525405253 -0.6814513525148006
Ni 0.5731273456373305 0.14958972842838472 8.937220035266222 0.5596790217002942 -0.5778245822610694 0.9804871052325823
Ni 1.4559114040230654 1.1149815333569315 11.274422222858881 0.07419278126333029 0.2154473891721644 0.1953555035182958
Ni 3.8812438415220285 6.723990297934422 1.6601277747297363 0.6417416926300045 0.7340047011314842 -0.3366324800246331
Ni 5.599753524769552 7.931172764567905 7.952202075270752 -0.3089406705363196 -0.09609292377053127 0.1769309782645211
Ni 5.219946239759264 2.844927340573563 4.851663395514693 1.2539920606691113 -0.5072961372232038 0.14005081740872008
Ni 0.872181536833603 7.4673293440084185 7.0275801874708455 1.1914448340645094 -1.1034699114154223 -0.2965327837902699
Ni 5.0079588921427725 4.66391990975927 6.9821808480546315 -0.4543486384918949 0.2685039026775118 0.5995275211557998
Ni 8.195041724233375 7.130923456189009 9.040299254786358 -0.30797753529210187 0.0914644238595844 0.43546568554446297
Ni 4.820718271412941 0.5678130175801335 10.358796031627898 -0.7807013338570749 -1.5238807595092916 0.0403524356751176
Ni 8.244300868138138 7.157742924220581 4.784012729311936 -0.2651231591307369 0.019706734400307995 0.925839078870399
Ni 7.0778883186332955 5.989672181799808 6.895588932554576 1.2304829218035775 0.4212202313690423 0.8370779128745907
Ni 2.3563101573733536 5.143236793561433 2.5728656462348733 -0.5916805143075552 -0.37764954586694316 0.8039962998292735
Ni 2.477655633530989 5.2142236718157 11.182924219187996 0.5241348060470974 0.200078620025578 0.3836309602613587
Ni 0.948252038043719 3.3005428799795458 3.770820810006284 0.08626642459841272 0.4975442000427625 -0.08185338313238162
Ni 3.6528187554345743 2.551679528158454 2.6094540334016014 0.8974235038421834 0.5019060765558839 0.07038060660609169
Ni 1.067903273613338 3.27939190838341 8.255238633040666 -0.009954797219866727 0.0939607079188769 -0.21742508172382555
Ni 3.6588206928368012 2.8176122170508155 6.975651713448156 -0.24683207413103295 -1.1958059392466827 0.5274767259361367
Ni 4.050821102929992 6.962860197008634 5.93791313183592 -0.25574865989437245 -0.2610001381012989 0.15298552319251718
Ni 0.942718720378603 7.32934786718335 11.251735620431905 -0.5665970889763662 0.23551124980157503 0.16930431495719878
P 0.1569515642600351 5.4792191212338395 7.894443791480043 0.44758535162613244 0.7080846388316128 0.06193890359664171
P 8.494868236804079 1.5861696671038272 7.72143208811414 -0.08520018811742745 0.7345148079986833 1.406446651058823
P 1.7786642360401126 3.162390176712071 10.47383767112959 -0.1024898284358106 0.9110961162332697 -0.34470265862727734
P 3.947265152946524 6.109386500795577 3.8958873071149394 -0.6854656158805162 0.06711761958410377 -0.5972752347865133
P 6.951144703580865 3.9319719280642733 10.395753907433502 0.3616621692997513 0.33089943419559786 -0.3478993111877041
P 6.281910659396525 7.761919932208712 10.206479296806249 1.340314278206124 0.05590786691121339 -0.25592246646807537
P 2.4106069634520577 8.582473091889735 5.591468868532514 1.054688628246661 -0.837180757001042 1.35896120388335
P 6.886484191777594 4.007906349312267 1.6491007918387979 0.22348131522023446 -0.10977530635363031 0.28935683486712105
Ni 5.315319368179334 2.6767739622129754 0.6283424661624113 -0.043301491001112524 0.18875830991675233 -0.4905646834011358
Ni 1.5072342771547202 1.1490555953957002 6.88060571765226 0.05289864777124438 0.57972128506315 0.14060926101535137
Ni 7.021816164704383 0.6194639245277659 9.044862890072375 -0.709884668154829 0.050319059969526236 0.5829536759575186
Ni 2.748130329106117 1.6553902094259063 9.218308967886909 0.5193651525725959 -0.6475904381012976 -0.611566968818837
Ni 6.372543518937359 1.9711588049763984 2.6578209974222498 0.4923269175078812 -0.21569987150260272 0.5313472646351365
Ni 4.267035040098501 6.955308209706733 10.256918100780009 -1.2609499800441832 0.3024550628119759 0.6596324568674962
Ni 7.9897862793788414 7.04760827408152 0.3288313707224558 0.26845325194523445 1.043147460376281 0.29683925928709526
Ni 7.639402906708299 3.781743254648174 8.065542264650011 -0.09218510407569286 -0.12984842295442153 0.5727214567065492
Ni 2.92770180759977 8.49720232357161 12.43064499665697 0.5261307534312035 -1.3201822833429393 -0.374488117419826
Ni 0.19820992734543313 4.978697194327411 10.052963075695958 -0.4854343041531059 -0.8239015233936325 0.806289209628508
Ni 8.450015920811762 2.2099836444605043 5.6571540354148135 0.9274704438262349 1.302388192584312 0.18171554413735802
Ni 3.676691326273161 2.5899080844050704 11.523724318234622 -0.2655255367754782 0.11046153378737748 -0.018495744811342342
Ni 1.348885865601374 3.816294948342075 12.723816207768898 -0.8231268500111373 -1.6969471126120839 -0.6352242032264609
Ni 3.077813326081592 8.436750377484318 7.892425121843258 0.3674782617608962 -0.05375739622711387 0.11814630402614491
Ni 5.5484486754739395 8.001970392543724 3.5117326728511458 -0.5965761518369597 -0.20015086802441012 1.2325277201477483
Ni 3.0043121226993654 8.314855174327379 3.401320455637027 0.1253075976612745 -0.26092711877151836 0.9852806699664837
Ni 3.287818051733383 4.339680111268698 9.066862784346123 0.7546136356310875 -1.0013438940769335 0.5229207311343381
Ni 7.205965697552887 5.995286606727117 11.372185311938216 0.06860808808670119 0.3130495504983705 -0.1395286263566629
Ni 0.411725696258347 -0.00654085009990431 0.0918774054195845 0.6215243371418651 -0.3178940230748654 0.817271933892257
Ni 4.592725757390512 0.1837295774687092 1.5718217924220175 -0.5308903796033759 0.5044812934822279 -0.45048786998490803
Ni 5.918685303545542 5.670776450695903 0.48921467336502544 0.08451961711063509 0.03981404667314433 0.12786275998296043
Ni 7.987100727808476 8.875090070043349 11.227743191083634 -0.3970724304782452 -0.32585364424157426 -0.05815012597817082
Ni 9.097351004204192 4.632711637651294 5.777537939919569 -0.7123452138801797 0.5528720260807898 0.9692758098977954
Ni 7.8682425410247365 8.679909949536698 2.6133453796032255 0.921040114819859 1.0363399505361444 -0.08490579680546023
P 8.505655502675648 1.5250238033288883 3.5552854702647827 -0.4873076099164188 0.745337352535484 -0.6558074266944512
P 1.887825599032867 3.262629740863677 1.6069196083480126 -1.1486557639234412 -0.46312098536788626 0.05410732336736488
P 4.684052534618991 1.1258769422447579 8.143151100266374 -0.03568202678264177 -0.06675766514152374 -0.20533009823250442
P 8.641050559028587 1.7372454608139345 12.27830212727306 -1.396849751399007 0.34983458053720395 1.2346085139361769
P 6.295004976281564 7.854544425632267 1.3973069011301504 -0.7033504665807371 -0.543340946661903 -0.47681648057710785
P 1.708551513833919 3.2250139950425134 5.980002393762887 0.551213150321128 -0.7838833311294823 -0.1436850717271977
P 6.809522411875165 3.940380047578204 6.047362876205357 0.019320554705482853 -0.6402059727117684 -0.7557559767656468
P 2.4966797924740836 8.474897826468741 10.1030576244013 -0.299584169022084 0.2939179718752422 0.05118552173487959
