# total energy = -381171.9829253324 ev
CRYSTAL
PRIMVEC
9.23770386092975 0.00000000000000 0.00000000000000
0.00000000000000 9.23770386092975 0.00000000000000
0.00000000000000 0.00000000000000 13.52031336188342
PRIMCOORD
 96 1
Ni 8.170028336108876 6.07936048411082 13.04988685803283 1.333504454373142 -0.7876793078368047 1.3775374242236404
Ni 4.685991454307195 9.10504098628711 7.682728383412374 -1.131143980291923 0.5862158916485583 -0.4057391050143077
Ni 4.616764103166223 8.337286198366472 10.0611405425835 0.3479013680702331 1.2347229280268543 0.8080151911806794
Ni 5.060561861841768 5.260225588497886 5.6303988490958305 0.7685384732422957 -0.5208941876226125 -0.30146004588855824
Ni 3.316686642507603 2.4053502267801727 2.7394456357793624 -0.7190187692456134 0.5690118690654459 2.47897924946544
Ni 1.1744169779296871 4.862884241470052 1.3280002674765836 -0.9170752166348399 1.201952932684685 -1.0608962997192697
Ni 6.862662327271683 4.111249246415841 12.352266563751435 -0.8590371907545012 1.184053940917077 -0.45295201525468437
Ni 2.6269534996011967 2.1748879961603507 12.708607286906293 0.48181316246075084 -1.921500577850575 0.05450584435736419
Ni 1.1586389800982517 6.045809144459899 7.811374491960465 0.19211822752792077 1.0517141189993693 -1.0056283803849002
Ni 3.3339241975154823 5.882846814398801 0.5359983550196759 -2.011570692465794 -2.732214913129972 -1.1584007591253467
Ni 7.668190085410551 2.0837765250763636 3.3372054298513874 -0.5196867975780727 -0.47694889238991406 0.19314769723369962
Ni 3.171608506709771 7.259107617045624 12.360675645382559 0.7904771822969161 1.6190552852306117 -1.298485772206112
Ni 3.4299316515331113 3.4189387841915377 5.113734084041852 -0.5317360154331229 0.3923169180711308 0.3124491979102103
Ni 3.389729165255355 6.390698810172223 9.89398891391786 -1.6877037396369448 -0.9967130801731415 0.8465164325796711
Ni 3.6892709437577738 2.2001715910459705 8.715720737337165 0.6675483692804632 -1.1117190387980918 -1.6537800903063065
Ni 1.7990243101150034 0.4425672965495804 2.2874207782345692 1.1585061743549596 -2.360371689532161 0.03992306144718286
Ni 5.349138486113558 7.6099740770184505 5.583957217773957 -0.6721601570208617 0.11357591104664311 1.2287471700593935
Ni 7.44982000886646 4.795522906466053 1.5441551426857925 1.950657659030505 -1.4160371229607354 0.8977896289323505
Ni 7.841341602595813 4.110491754716675 4.148194518387179 -0.2705443301463083 1.421762969700919 -0.045163483910515764
Ni 5.620653071746787 5.800557350299018 0.8622906757470781 -0.09105587556725608 0.35113221630270497 -1.1232905456857751
Ni 1.6584449359939335 3.946864309992893 8.583276085048858 -0.2187872521786748 -0.1173232939042173 0.34323738693566047
Ni 3.4299963154586504 8.121825998471621 3.847150689271533 1.3851628019793822 0.09954077310981566 -0.23195747101204567
Ni 8.942956238072606 3.2219170407788567 12.994467102535095 -0.7378215037744131 0.6074300638323281 2.005967230236087
Ni 6.400998849740168 6.782331256345357 11.988394340812052 -1.7799374375623862 0.5379195185360155 1.4891194447687064
P 2.756567719491638 3.423529922904783 0.7768594686364809 0.9045454595989454 2.1251154931641856 1.362106434380551
Ni 1.2160882590875364 1.7992183018916192 9.202520006495925 -0.19484411109951605 -1.296802470966418 -0.8773488445794954
P 3.22292395047653 0.9332759618923361 10.641027227636636 -0.31182544828328235 -0.97136483121634 -0.5787306390151066
Ni 6.752668989930404 8.977394397273773 10.857933128152458 0.44748662126473904 0.5289432831793341 1.028521740043306
P 6.541661363194073 6.315587041807233 7.015906593094684 1.038438999157018 0.6046532724181393 -0.36500537474037137
P 9.234359599660802 5.6942960452316855 3.0844156695134273 -1.0345535480596828 -1.205214377044776 -1.58300199115148
P 4.985062109923546 2.0056070768037593 6.848850112776622 0.23149878620807227 -0.07784349064204013 -0.23555521566563303
Ni 6.838782863340616 0.355516719989422 6.786250814003366 -0.28079840377414866 0.010825629860594259 -2.0311599274516308
Ni 2.541005904856655 8.753684928020917 9.11973540148059 -0.7480357253032537 -0.09283147941044012 0.2090620544711109
Ni 6.163414349607444 1.9368785616598008 13.206722743034321 3.3298773560525747 -0.7855586619493762 1.0521506923161557
Ni 0.7311457683621001 5.999639101625288 5.088004308070015 -1.8016720010260003 0.6215883576105812 0.8650656563367682
Ni 3.986900517604978 1.3224604165986495 0.9634287503710183 0.288105221848207 -1.3130191899355967 -0.036769089199233454
Ni 3.716937866184677 0.9240752090585481 5.09856392711048 -0.511239438141668 -0.3109075644547033 1.1993507191751474
Ni 9.000220762988924 4.151913617876017 10.56478568811545 -0.4906423307166066 0.7240095375919853 -0.36149144804984196
Ni 1.3603811900752556 8.627303904407409 4.729513971276179 2.4818768827282094 0.2080446689501901 0.1468153898260633
Ni 1.5901321175141523 4.1918943992662125 3.6018924287180982 -0.5846405767416383 -1.0838079142101205 0.02275400586706404
Ni 4.827328320127432 0.34392986830325706 12.645886974215243 -1.4224594815473115 -2.973443782141614 -1.9229108279345402
Ni 4.951141262126689 2.1181869711665846 11.136303013663152 1.6091328839105774 0.45685006475750994 -0.4519536558971571
Ni 5.849951351706913 8.857128733475495 1.1861137582892678 1.818192624388843 1.0900428393762387 0.7789123602774521
Ni 2.849979378784072 5.855872719745526 4.751984685400868 3.092764308981519 0.8182124434286554 0.47003750998206145
Ni 7.810164352782527 8.467075934626232 12.9775399343698 0.21899345465220998 0.04409133389225955 0.3550577766093562
Ni 8.26908423233047 3.161585598251277 8.228056819116915 1.0628781060359889 -0.10357946195556356 1.0143048251129758
Ni 0.600938487897433 7.797231567674792 0.8946143245831297 0.1867093978075236 -0.6582399473953437 0.3954174113733255
Ni 6.292788389203027 1.8562149334021334 8.866878205905996 -0.18208398322037028 -0.33515692392037116 -0.026867513814805344
Ni 5.580912470651451 3.018927740809321 1.8729009975022048 1.0756037811327734 0.2994093340071166 1.057372088616095
Ni 0.873426727495202 2.239773626586582 11.412523285534869 -0.6281865796533891 0.3493116181541984 -0.7682343117383156
Ni 7.5041192309116465 7.187367610512293 2.0421218717850818 -0.7212108918009257 -0.20122841735930505 -1.3582456658735642
Ni 8.29374890107165 4.83287094231646 6.481029695297922 0.4589989927797127 -0.5664813893341083 0.6909034990666358
Ni 1.5416064602492041 8.825018475593719 6.970545773099671 1.3155077606854053 -0.7469471202247653 0.9836796440279512
Ni 4.087924044703678 7.625650460109754 1.4251356451096802 -1.051665525149621 1.8938187956645898 0.5538778416374848
Ni 6.246452067702745 4.339124920014117 7.8041681593443615 -0.8444268970404941 -0.8418295686269631 -0.011052144049103546
Ni 9.10731346138461 1.039638881699801 7.215696876290784 -0.9294404230684121 0.7379073786200002 0.513134855392168
P 1.74790285812486 4.355771261988501 6.0839784121646465 0.3104781902267685 0.4649721796440121 2.1293778679849646
Ni 6.873285686467321 8.470133614533847 8.640237613285509 -0.5735691494188251 -1.3592016020289301 -0.06438093737923106
P 4.83367462253387 0.5429700499631094 3.3132613019947827 0.6620279536828664 0.030913401749404826 -1.3255335203525236
Ni 2.2085132374404592 1.9585225013079586 6.741052577592564 -0.08413292319517769 0.4235295962285093 0.6532556068068749
P 6.655312831180111 3.8030886904094827 10.11710162751503 0.924521131389924 0.24314999729375544 -0.40537426547572125
P 8.366929989374128 0.6863567622229224 9.448725131673319 -0.05535919349659498 0.5790499700277383 -0.35585456147903877
P 2.589023488420942 8.875881271881708 0.11374384502252159 -0.4948982777794831 0.49407038256154906 0.6518690108719934
Ni 8.65190390922305 0.32629509203849677 2.053073169460238 -0.4838222224709797 -0.5587056020434313 -0.29748049241551994
Ni 7.304049045295 2.44640258179358 6.080382174134331 0.10238904119188819 0.9543528700393757 0.32427910066560284
Ni 3.7241247996231177 4.552423497255246 7.542645073977222 -0.8389771867798325 -0.8770423690826702 -0.8055515601315353
Ni 0.5372306646863699 0.7163081687620697 13.287196074596833 0.40826829919406454 0.1088013724761352 0.2089764367358401
Ni 4.380934766726692 5.4020797657224335 11.99174670346605 0.7502795270321079 -0.7379243479008647 -1.148347488654403
Ni 8.459824337262253 6.887973635268248 10.7802458880103 -0.2664681031944056 0.3070737925309099 -0.5255473701239078
Ni 4.636227944753363 3.4832239638806244 13.296335858586541 -1.010222684623802 1.6439564193476655 -0.2901513057439583
Ni 7.556072076230144 6.3559003805287695 4.907183649315866 -1.7337879355895172 -0.7085237832515604 -0.543365115031619
Ni 3.697233844302679 4.8315129998801485 2.5050167352129256 0.4441297889773641 -0.7575570345301275 0.709672552144023
Ni 8.749527961379146 0.6182693437121616 4.828887644503278 -0.7919275415901974 1.0084442525671407 0.21001490530268346
Ni 6.138721967755321 6.576820063279813 9.856253818284587 -1.27619919289377 -1.2770494567092072 -0.12166974379837109
Ni 6.874117079795676 8.39757145237581 4.236901415211491 -0.03274634119308554 2.521177480100045 -1.833956572091319
Ni 7.909220249004121 5.861018120677675 8.74061172981773 1.4954266179336566 -0.4458118046654773 -1.005996048136964
Ni 2.1199883233780192 6.754165497921442 2.58923503183449 -1.107608359063828 -0.19209123094472724 0.0489121523196706
Ni 5.2895645352851455 6.566732490895781 3.158210141338158 0.6676663829155662 0.9834868112908547 0.7866554945579807
Ni 9.053651640891161 7.708217055318988 3.5757848306670423 -0.027250351075520814 0.4735264969719264 -0.6427400519875317
Ni 1.0256529983761513 2.5078794995735585 1.4951842281049923 -1.5698978496693543 -0.5058619758798385 0.23566114511587802
Ni 4.630297339011102 4.190508743718955 9.666659188605205 0.6222457886889219 1.1952714068994512 0.33492578174617155
Ni 7.7149975297969 2.1406807795503937 11.071973492996554 -0.24651171467713676 -0.9546326060633237 -0.20325830330514025
Ni 0.37016494666466054 2.88098111222804 5.423335721817359 -0.5108591719841138 -0.3745624223011872 0.24852334579052685
Ni 8.705602680531092 7.883096023086499 6.171076101013412 -0.20663210487337963 0.21824526363227573 0.9873691770643964
Ni 0.6368666886970833 0.04257472857466073 10.94842474932164 -0.3727747342731451 -1.0920074193017775 -0.3940495844915214
Ni 0.9193048588945238 7.155940942700499 12.181747792105961 0.022519264148438637 1.3674586998313996 0.49591514907977174
Ni 5.464702158754811 2.553689271965883 4.636683363543229 0.9046948406926162 -0.26312566908473395 -1.2479065165966636
Ni 9.171607878777346 7.968738773610643 8.706676101695034 0.98035443630946 0.5268336930354991 0.145193280841608
P 1.0601096329846142 1.9000940257319456 3.6289191782821684 -0.27648409266951096 -0.23956742214881965 0.41374372048633906
Ni 4.617327603088775 6.690138973934509 8.001929842819278 0.16798122527040102 0.4745413113896859 -1.2940932995653711
P 1.1540663167923026 5.787051827565084 10.012521584511704 -0.11002701735312019 0.25989687773479114 0.19874987391182544
Ni 2.9161952385356704 3.0545668014847767 10.628750319487938 -1.9350922004920803 2.0683249665377024 0.39096040404323634
P 7.8272818176429775 2.109087833072929 1.2104929819877115 -0.4004002092998975 0.8728614982321031 -1.3256849583287234
P 5.670084023969277 4.575831838300245 3.6171438774415763 0.5059599349102833 -1.220368459077395 -0.49164608939077253
P 3.251680921933942 7.834200857675615 6.122079320862396 -0.04388615985998893 0.18844874909613352 -0.016336789486810575
Ni 1.4319087294246735 5.0053388694317436 12.28498929185064 0.728757850910248 -1.3219244628450264 -0.2635087634557655
