# total energy = -381174.0377927129 ev
CRYSTAL
PRIMVEC
9.18695681049104 0.00000000000000 0.00000000000000
0.00000000000000 9.18695681049104 0.00000000000000
0.00000000000000 0.00000000000000 13.44603992397858
PRIMCOORD
 96 1
Ni 8.556051554051104 6.99949630824627 3.582670543202813 -2.2568284801311718 -0.5352702538386265 0.26190696618628445
Ni 6.634838439428101 5.501654902151635 4.160500715865062 -0.09277594358215634 0.2964916461396894 0.3173998570472663
Ni 0.7239294249744566 7.505532252373507 5.76226038168148 -0.823763969374504 0.5529157348345316 -0.8393129728526965
Ni 0.8090961875545578 5.6394133165553955 9.673121169429324 0.8587924217335469 0.18991504922901487 0.47900603202925895
Ni 5.408012253400884 0.7416749503670744 8.06564721659996 -0.9564087241271402 -0.2960992957972771 -0.567398501831739
Ni 8.413148443944369 2.189812165101345 12.758785628159282 -0.1350389660164255 -0.17585677136373584 -0.720647820208604
Ni 5.5474335069514975 5.075609789249042 13.19785233336437 1.3401355865364146 1.0822544536800716 -1.5703416220749922
Ni 7.655059158197822 4.777410364565371 6.366874207651679 -0.9239863419323764 1.3991658011266936 0.488915577833487
Ni 0.3002738394867635 0.28281678453177683 7.276001653585291 0.35328525808996575 -0.19752011526978241 0.5942621589918025
Ni 2.768599618642612 0.5723804699997406 7.924571392163441 -1.1761128316931295 0.46657012025875133 -0.2957581104077745
Ni 5.853662331714455 4.621636328244588 8.668796641686134 0.11103360424076361 0.1573836522602128 -1.2520809596893274
Ni 6.769978571197312 3.216454566543172 0.7998063370280435 -0.11323806809125014 -0.03140653933573946 0.06803036120636026
Ni 8.083694992865126 4.243730867991258 2.929636862406671 0.041200385497709685 -1.58359771575395 -0.5891394930532563
Ni 0.74893723956922 5.2551412953696355 7.460171654099511 1.3721108538914304 -1.9871372420137776 -2.155948933605274
Ni 3.8373366552827064 2.4091140063972545 6.311100194057467 1.0107366481457432 0.24301964236347826 0.5742774883397593
Ni 5.409785336027087 4.513138370651496 5.9561520196830005 -0.17719760166234647 -0.915623828900294 -0.02045878207498412
Ni 4.2404419375239994 2.786835727518334 8.804815965203156 0.16584746675684986 0.6735326118883561 -0.7478030404671573
Ni 1.3503631915948977 8.976924410380883 11.485782123415222 -0.885043899230908 0.25022335920076905 0.8442178663534815
Ni 8.680047907449406 2.781810462251322 6.3042026270328355 0.9046169362668292 -0.8385257010647107 0.09134306779037171
Ni 2.147478669031153 3.4251362859950834 9.555226792613013 0.3499721345563328 1.8706271880394751 1.6268272158665469
Ni 4.655931237278881 1.0348922884798113 0.9021618954300478 1.0350531134039205 -0.09563423896655787 0.9397153226318591
Ni 1.7922190568275251 3.405834490152316 5.378966771374946 -0.5958521291867416 1.5067875514724307 2.8556335212986497
Ni 3.4924031823114774 0.5593708207408432 12.138909511168812 0.4210741927094813 0.5043720215978733 1.824243201458297
Ni 1.641479472730366 2.1449798168325653 12.108131369125765 0.6554616133192582 0.5115145461799255 0.5496866863742726
P 4.727635433639091 6.235233387656153 2.363867326385253 0.5139614650585212 -0.7379644571101805 0.8895615845956035
Ni 1.496895149563552 3.7301891803116454 3.3272759054635532 -0.3522102798582321 0.9974815829080499 -2.760099555355382
P 2.620487504136615 0.6253359253052526 1.0099414330160452 1.3262395452806126 -0.6519587423723223 -0.5667451845184561
Ni 3.614295722645528 8.19242262437353 2.352935766712093 -0.7853432035044604 0.31117830161758664 -0.0319536700884611
P 8.634829707002904 1.9230229450756569 8.475106198034426 -0.2570627507201057 -0.37592767807983 0.24074601583795313
P 7.92540373043253 1.8767574315753341 1.9755190525505462 0.9055947267990662 0.2572180453510473 0.15347017613841954
P 7.400451842640249 3.8884436949177927 11.621734382148972 -0.7651772700795467 -0.6361174044646916 0.4916345194265468
Ni 2.5870469820672795 5.980157537311345 3.102565702809892 0.07524590511819298 0.13753087920034376 -0.914180154475232
Ni 5.265136704163986 3.7917417896150933 2.568005177096644 0.35641120531345716 0.23770208680530677 -0.6005171387625787
Ni 4.603473715021764 6.529712094911781 4.596031361470015 -0.12476020979823675 1.9753484769089658 0.44896192025868487
Ni 6.7635752624384295 2.865632254383359 4.758943663078677 -0.28436426674853604 -0.18134453395118447 -0.16688362133084808
Ni 4.0973642752416275 0.4269279794330495 4.213370732474079 1.3332077490683298 0.7525271854157041 0.8166983207769742
Ni 3.516270895590635 5.68512761265897 9.293472024810951 -0.839871673569644 -1.3486734488040968 -0.058432175994963885
Ni 6.329013840756092 8.434581613721226 3.9279650635689123 0.6529650721496497 -0.8174269714128825 2.94776900308333
Ni 5.876188749328194 8.059312810015673 1.8771745194055396 0.7697255515718614 -0.006902897767420369 -1.8066663689167983
Ni 8.644742433187742 6.9503920251526985 7.944969191930075 -1.3467502636394548 0.857942929249058 -0.5117390034859057
Ni 0.3987681200245529 3.115655278591318 1.2233075816446473 0.6526711950583146 -0.8132946944120638 0.4145518182099312
Ni 3.5826925918986836 5.26451199111434 0.7887847451800815 -2.036916370319434 -0.3053079588797387 0.7213952398975899
Ni 6.108214525532353 1.2499221949509292 2.895578058157317 -0.2173248087005354 0.795951575147926 -0.532344081330767
Ni 7.461682908462261 9.107434316017418 8.70335246028822 0.21478892965255914 -0.3651439572007647 -1.1571625158428716
Ni 6.557272964749145 2.6306758390198275 7.302315853410345 -0.5553091747673726 0.11376540134962987 -0.16552196509663106
Ni 0.6323961014619243 0.5754378891603654 0.5614930077183203 -1.227312751605712 -0.08876013755454391 -0.20249442855592223
Ni 6.754305623216464 5.844897975106173 1.5676742193928879 -0.12022144138761877 -1.2565917030754876 0.7636844875841041
Ni 6.759156336307839 7.440378356077977 6.234417585908967 -0.11212735152557463 0.10702885395674469 0.23399378471578414
Ni 8.411549913493802 7.168894601223324 0.885864234399553 1.033576014637762 0.7119423220148061 0.8089685562328841
Ni 2.9977223165572346 7.503437626265867 10.905047035072116 0.3249506728113307 -0.27506150129037144 0.03576558763538356
Ni 7.491411900060164 5.611668707585782 10.15151815458799 -0.11942594206951691 -0.9830242698321392 0.19805130518290406
Ni 8.557585775805384 4.7296841249636685 13.316527601492737 -1.5988466714932208 1.0841658117701716 -0.14687143987497933
Ni 4.712164598703717 6.105798355943277 7.29149178112955 0.13471140747367766 2.683793327293475 -0.4679243202938006
Ni 5.320671856886275 6.4719353247760525 10.644759424241062 -0.5192875052571251 0.7254683815256989 0.7054037495653399
Ni 1.2989162345651506 1.3395777045318757 9.840618681083262 -1.4721604483168644 -0.06175249861744849 -1.430492379154117
Ni 5.4295924144835395 4.1480119670460915 10.816895430288628 -0.8670870576421713 0.04525861472748334 1.4721589056549678
P 1.5010017191693195 4.795784277790281 13.051183489742188 0.21420683189684397 -0.7905733415551481 0.8967696723082685
Ni 8.499992744801904 9.080672711405336 2.619409874125974 -1.250164716503221 1.22472879292862 -0.283550512597989
P 1.2722556864758066 8.170474985026376 9.413491344691721 1.150009706848174 -0.022986690703160412 -1.406614286984939
Ni 1.594194207046061 1.0610934887385326 2.87422573359865 0.7451725448228457 0.07468026242271009 0.4429190564987146
P 3.9696196435454434 6.874535324403659 12.75492618768639 1.1163030586243485 1.0474175485065444 0.22825868200421978
P 6.18885763067648 7.15068605321744 8.740302399783515 0.9208974185944077 0.11071915832413835 -0.4049394919311477
P 3.1202579438541576 2.3073592749577045 4.12771889858484 0.2542283665951041 0.5375413092609904 -1.1738872847967203
Ni 8.615720837248999 7.507562569784859 10.160298129022515 -0.07588842379819834 1.6284974044801177 2.0895720488419367
Ni 7.07868787424563 6.730355227327793 12.306609135868225 0.7037546439976912 0.9098792131070329 0.27544228166855794
Ni 4.127662858149503 7.991779491957517 8.973227579040033 0.7324394135268935 -0.6262137721977344 -1.1460453228837877
Ni 1.9553794062647227 1.0700415844790634 5.630744504295882 -0.6505245810289569 -1.8701919002742695 -0.6028203329744587
Ni 2.3356918491505154 5.880387188500086 5.4294169436122415 0.22030137483035608 -0.6893178997470709 0.5332383110102623
Ni 5.890759262515547 8.90985044015335 10.545876535438564 -0.8897914412182224 -0.15274075417156274 -0.3141998620527298
Ni 2.104134607733591 7.3320090158774605 0.6109234277716336 -0.15801537230694074 0.4253208838009772 -0.3982582232562302
Ni 1.2179515859395862 7.87615245603316 2.8637241234949524 0.9843944107067885 0.2051807171388337 -0.5712803533846483
Ni 0.2887543145904064 3.845917272758739 11.2363176661693 0.7780093888472085 0.5427750468561039 -0.8476556883904369
Ni 5.444879510286664 8.636657911368783 12.912823329680313 -1.7110763529246145 -2.7951714593578507 -1.1848867212310175
Ni 8.133414802051732 4.0402673398952205 8.573961525967086 1.2435407834288001 -0.7556868140906082 0.3713336309512444
Ni 0.5497658576025217 5.483887328063148 1.8113968287560245 1.285863198346095 0.2748375582050234 0.275422484174216
Ni 9.128564316226063 2.0165737242602844 4.167720745066791 -0.8094372683391866 1.5030365690704308 -1.2910830519841376
Ni 2.294745583528804 7.154324088035971 7.413353085811119 0.01869886196108393 0.6923638856622463 2.1312938540607553
Ni 9.150061794699209 5.2556465779833195 4.808303343566074 1.5543056516580522 -0.8589299757526756 0.00490155106667543
Ni 1.4671753449222609 2.6856138395623073 7.536491377461818 0.35083551099789256 -0.6317699261292732 0.8353287913939679
Ni 8.484393292473955 0.12337347773997837 5.046002984174084 -1.1884453851165533 -1.1354212675110382 0.984431177481995
Ni 3.698889219133012 0.8062280197001495 9.93658287376998 0.381440123257627 0.7988962595985468 0.6705542459863225
Ni 8.010364705184513 0.5814893374809895 10.787205942604157 1.3424192403642687 0.8658673263024571 1.7279222208373595
Ni 7.272358106592791 0.09311072396289091 0.3741038976070955 1.9659726921210205 1.3548512954800345 0.5921615677090317
Ni 6.302390040493198 2.2265599915511642 9.906975149999361 1.2888693321622706 -0.8728098190585614 -0.8329294379238559
Ni 3.269270380108175 5.150364055204588 11.677132649217738 -0.718156421245318 -1.3704038985026528 -0.1253207102873971
Ni 4.455710704867041 3.1410020918850803 13.42788729607061 0.0909319483948821 -0.42447756196407543 -1.8303223177728414
Ni 4.091209014311283 8.553139288804955 6.60275850563307 0.9873041281544157 -0.47779915620535135 -2.146769581098851
Ni 6.114516777768497 1.5808823069146143 12.253012430991161 -0.593513710861552 0.7696335060786874 -0.37106906443594806
P 3.0674329433325425 4.757667594805206 7.350976406499535 -1.1716108300577177 -1.3734851085311377 -0.24310526009874905
Ni 0.9278183091616503 6.579964747581908 11.969973322109364 -0.32634806737948957 -0.6830680621826171 -0.11527412468467245
P 8.935913836062886 8.273304590389582 12.654216013213677 -1.5987929354371497 0.3338793427595282 -1.1473031065502886
Ni 3.857382594611083 4.382913260669949 4.267302761267495 -0.49858703948498007 -1.6314384893863128 0.07121261558908382
P 3.8378143770265543 2.7033538527809573 11.215032406393904 -0.6111581634161927 -0.4794950558505355 -0.013976002564117867
P 2.5730919949729607 8.186827767796546 4.532270207796933 -0.5821913438701973 -1.3527157371942704 0.808196196843234
P 6.32492564506355 0.7867672895079864 5.856166696087009 -0.206990773764379 -0.4744844900098215 -0.3622967175599567
Ni 2.9055863286909256 2.747883031481526 1.5163632293210052 -0.4647690624942706 0.23192250400905218 1.2952659797172337
