# total energy = -381166.73868362315 ev
CRYSTAL
PRIMVEC
9.24684543844685 0.00000000000000 0.00000000000000

0.00000000000000 9.24684543844685 0.00000000000000

0.00000000000000 0.00000000000000 13.53369298462400

PRIMCOORD
 96 1
Ni 0.2450913303573764 -0.0041185448452457024 2.4743780979143466 2.311619716939438 -0.3963000710885949 -0.3238489551067197
Ni 7.947275068713924 4.294475321728965 12.385358519583185 -0.5599448737671712 -1.3154501679745927 0.5187187772378486
Ni 3.0868373406129144 8.631846758269548 2.581930928310634 -0.28059400107282645 -0.12589406629236383 -0.8772943371924761
Ni 7.063285915906011 4.32709819154043 5.727322991370863 -0.5545563557617482 -1.5466103398963236 1.5925613527051412
Ni 2.6077213042151572 2.631051094616044 10.433285697870568 -0.7575138399970179 -0.520487181992181 0.02588072442150382
Ni 1.5848537835788998 0.12355264661929723 11.283053201334585 0.2023782146930321 0.0894957301689878 1.399340636141661
Ni 8.641694648391207 2.1376394355628094 1.9611809642195042 -0.8199726206528717 0.2333227267906885 1.15641946702926
Ni 2.070599807974055 3.9228908479835702 6.612778693825061 0.46306339265707347 0.6642732980736173 -0.7081525159550708
Ni 9.030598463167461 1.7151233385403313 4.325612223519256 1.640362274238504 -1.7245193658033975 -0.18624351391469862
Ni 3.904905734099415 8.05402064952559 0.23429378923525382 0.1809958923625141 0.45945562070115714 0.8459708444888463
Ni 5.793583109910551 9.187711609699948 1.6075316713942682 -1.0627914598594537 0.2487308338156426 -1.8013871227957299
Ni 6.303001057978425 5.3518335749039885 10.933626942705184 0.37570424921511425 0.20425614844203532 0.931015480865016
Ni 7.853965153955561 6.663905425535542 12.559537643588472 -1.1329949174577325 0.8228761674529118 0.7013036113540373
Ni 8.307615378714775 5.969994422343415 6.788865441991944 0.5338705452776226 1.1352724006379997 -0.5220758666355396
Ni 0.29095198373519543 3.8193539224509796 0.6322669097686189 0.012365463543888382 -0.8612154293527425 -0.6603233122869338
Ni 0.04987748292603351 9.314162217600115 8.2624278956664 0.03610882990741523 0.07101824019009059 0.12100897028592061
Ni 8.786343047614777 8.444561155899528 10.458025632162112 -0.43619433618037134 -0.5049590044495949 -0.875016596901893
Ni 7.1604055308804515 2.497526650149614 3.777998332047124 -2.9211331456633567 1.0846239823535127 -0.00040109209316059954
Ni 4.666919752076533 3.9967454004734164 10.259066812430985 -0.9955283158364209 -0.2634375438981979 0.2859390674348237
Ni 1.3467290263836431 8.019446695380163 0.7384447342859477 0.8037479312638932 -0.03294071659207875 -0.7658406146951585
Ni 3.3375840414852265 7.346563018137942 11.648868568369274 0.12886497599522967 0.629434078907245 -1.0429235172909328
Ni 7.197846007033123 7.920570179820638 7.380071735718098 1.0304796351006253 0.6664296822949877 0.2297352665497463
Ni 7.4225813324009975 0.039900136971789874 3.118393124490071 -1.266532102117651 0.08596072043253583 2.3039138636547483
Ni 0.4807185146682576 3.5655372689773617 9.705538638778746 0.27393278700256696 -0.04177451283362483 0.8166294152122516
P 8.667299162707518 6.827287933103226 8.947814232282791 0.46699846604542156 0.5090012928397685 -0.7820264804264015
Ni 8.834001287696493 5.543936783615213 10.788179616057658 0.9895098775564829 0.8141272176156882 -1.4810376962018363
P 5.692256180377093 7.3218462009593575 11.670766022451057 -0.5772483980426253 -0.41636496015927 1.0972768952308327
Ni 6.645550437843999 1.5975404551722476 10.925086556492634 -2.38365662820203 0.3572439856273976 0.9174007182950588
P 2.631032600925675 0.48125483168896765 13.206651287985576 0.4508383113457913 -0.016410580147539478 -0.23785558166403553
P 6.211642227554025 2.2829443607944913 1.84749747546579 -0.59136606839093 0.052703501041302774 -0.2564477428439261
P 4.667677993381673 6.221037022261636 3.6266505934872706 -1.226332904190946 2.8102810613057794 1.3919080911230157
Ni 5.344648776195511 8.158916861300325 6.081392090967482 1.2613135340311892 0.07235881337838505 -0.9318899130501692
Ni 7.404753414884982 4.338370095820526 1.2822063900541516 -3.3389078416859594 -1.431222315341606 -0.32446627697574437
Ni 6.139174701841878 2.9771974972584503 8.943294374356533 0.004692520379662887 0.16658331648160987 -1.724061966551005
Ni 4.403920981334551 1.6266957580394674 9.385534916842401 -0.11300641169641827 -0.11344915566079171 -0.5815485680798759
Ni 1.7560776158631717 5.500042009523653 0.44312823962359477 -0.493698343934111 0.2678757821752096 0.7825972653282071
Ni 4.648102422125757 3.968745953254279 1.2256628564345 0.4876881331842891 0.007946765650902443 -0.3605427109833274
Ni 1.1678672999768456 6.518517278697199 2.645336545741819 1.5025046078263606 0.3990097567102741 0.642316591296868
Ni 2.2876325113031117 3.2561470759439626 1.6960831596206063 -0.0607363986481083 -0.06623984496484077 0.8340923478837056
Ni 3.6690464539743988 5.363577068288501 12.795334969850751 -1.0612215442691721 -1.4185089815399956 -0.9010513304027579
Ni 3.034629652700348 2.688547977974234 12.843907722921232 -0.5846886563707543 0.7867686230970773 -0.08792041526206794
Ni 4.248869881278242 4.940330470496435 5.707523646461477 1.2357297720248137 0.011580505748747798 -0.1634329437780863
Ni 4.762532131285872 9.043414590593393 10.623880746132174 0.5151860814942417 -0.7405656421784536 0.17835794051903478
Ni 2.8898240571086378 4.884969608375901 3.8967694350214366 -0.5940934946244221 -0.4462792312201992 -0.9626588188019097
Ni 0.6238901927158391 1.617633849758505 6.469402660498899 -0.2507843739105617 -0.7067376378854151 -0.6715536337851145
Ni 8.95661445484503 8.801535614253167 12.653149930184373 1.2020478063913362 0.05315832919053426 0.5243188970334454
Ni 5.630598216685808 4.464672754197739 3.5291000755272255 0.9040620922046236 -1.649929349101649 -0.16956322504554025
Ni 6.687050279032736 9.095178429937096 12.538966187106169 1.0448991529600649 -1.9152849359581656 -0.20944771994530378
Ni 8.571686783498176 7.258607026741496 3.8037258294043923 0.3226029985147605 1.5528794607344867 0.4793251059315745
Ni 5.863221100996195 6.095529592570303 7.612797260010034 -0.3375547347285864 -0.8166831512683225 -0.5682387383448473
Ni 0.7081308017170906 1.3176199577423469 0.3450672958093567 1.1639404579966535 0.17910356043580766 -0.8532082427775499
Ni 3.4933841360014926 6.284276196479497 7.336236141435719 -0.9613200453858284 -0.12438200052321159 -1.0734306847408546
Ni 1.095399774264698 5.718877847663717 5.261575119056563 -0.3154769289929406 0.4399818282472616 -0.04076869727692979
Ni 1.6211568977738586 8.861094544087535 4.445790696330673 -0.8352796833235874 0.10908213694134762 1.0004800034147414
Ni 4.02902613701305 6.637616644675566 9.385967669197042 2.9587352722868463 -0.020129166649707268 2.084970031293551
Ni 6.772583596990802 0.28936060167891614 8.993111752788867 0.07342093609431226 1.679719435879888 -0.45699378942422586
P 6.934606818316341 0.8287669933651474 5.441722156944028 -1.0558615655088397 -0.9679190387595847 -1.5133094117513486
Ni 3.0776829638801053 0.9132896311445308 6.423672387638184 -0.8804547371983289 0.488161730386598 -0.6506721623504149
P 7.961062114884244 2.190374193650902 9.366790636968584 2.445581904951917 -0.0787498045063934 -1.1052300886396385
Ni 1.9568821058931576 2.4916733971477267 4.695839260391542 0.4680567321066068 1.97493710040316 2.4825453695501443
P 7.840215095165978 8.89318109687829 0.8938814277864567 0.3165794180284999 0.1127457018358639 0.7065352920666219
P 0.07735818213031215 3.6049010889284414 5.4615215018534125 -0.5245184146387611 0.9560564829940437 -0.24878045610665542
P 3.948902223488007 8.571668289807807 7.458269531391177 -1.8717106509116408 -0.633624977060141 2.139266844963903
Ni 5.239253234780803 2.8455409155193205 5.339244919869599 0.45440828808523676 -0.9870788995174872 0.29377090477441664
Ni 8.737427236587948 8.903731747233984 5.901245053080017 -0.07791496730992387 -0.6608527024278424 -0.8875926337946908
Ni 1.9559759150650613 7.19871521048048 9.505186319478291 -2.737954900937543 0.4193644091072262 0.5824458830831646
Ni 1.0957788949172689 5.518554193583333 7.9988049628744555 1.1842719704651539 1.7339293462633882 1.178549723269396
Ni 1.1794535969932194 6.608942177757948 12.11748666142889 -0.5770684208213352 1.0621594827024095 -0.3500960617287067
Ni 4.975681159637374 1.0570253667483762 12.70862452850068 -2.4517129575503196 2.0946602619981216 0.20285026923344418
Ni 8.034250894520795 5.10677368382024 3.898312733482755 -0.8577467540778518 -0.4157936610368323 -0.2962383924783027
Ni 0.5585011269925454 4.066596068998306 3.271106622083699 1.6561007680196833 -1.1848293856305208 -0.8453067285422862
Ni 8.790910989135996 2.0163948015016024 11.339353542925881 2.1840012117568 -0.2617588706441944 1.1473684125705852
Ni 3.9926398012114293 1.6907763951691324 1.3008434065238255 0.24822226961034022 -1.6963945825427236 0.29152016106702694
Ni 6.538545945367163 7.4447645139989875 9.663652279461294 -0.025336164771943462 -1.4705164849555383 0.1893172677440159
Ni 5.011984273832333 8.796579305234191 3.8123596087533054 0.8042976331197762 -0.2745480519890626 0.3795819870029656
Ni 4.149410814472084 3.076647317219424 7.400060640953769 -0.3938773205797152 0.8149625690327901 0.7307064899961868
Ni 1.7466920680007463 7.72101401389058 6.770744399483574 -1.4052184350786767 1.0772395169639835 0.7801894272176628
Ni 6.461834117715258 6.651542393523657 2.5021500727419417 0.44331063551017846 0.5300889667480032 -0.8593994591899263
Ni 3.9114247599545973 2.642008606159861 3.4914219554533084 1.0668661441494594 0.15767521535870266 -0.7117091229580775
Ni 7.4960105300123505 4.874446698555762 8.888171156157245 -0.88187655724652 0.9360075347629685 0.7906396760167094
Ni 2.5976145024283284 0.15014379931681196 9.359075994031025 0.718390134522679 0.3470266787747636 -1.9922349682516591
Ni 6.597152450147512 6.510176624340638 4.945712134393905 -1.0268934604112638 0.6781225452518836 0.9008258446555131
Ni 7.626871883065599 2.0264183816817694 7.027437746494138 -0.4542406521591209 0.19212825483024976 0.7969496773951371
Ni 8.931814416059783 3.888659027109975 7.610401402422689 0.15315058801547174 -2.518679910489172 -1.8545901891812706
Ni 5.370318018428115 1.150104110377122 6.999652826083284 0.4106928494751572 -0.7183600526156919 0.7037875541181557
Ni 3.466115189551942 6.133025549794081 1.8471192794977376 0.6604541814378433 0.4737121306201712 -0.33083695638877864
Ni 3.341828343424983 7.44524534994859 5.164470299034418 0.2529908946435772 -1.2569213185007644 -1.473083474351766
Ni 7.4910079867674515 2.1853531567156335 13.472114342969267 -1.0383145577640118 -0.7337761300604461 -0.3730614122756285
P 8.727385162717411 5.650340231155048 1.8700995391506443 1.1665817522742425 1.72539122688539 0.3513926690529432
Ni 1.794812650341695 2.2120303050733656 8.07895106882794 1.7106706328457633 -0.21340824725494859 3.099719143032797
P 3.1160851119319806 4.538850946269049 8.81775550539157 -0.4954096701982629 -0.2654268064140848 -1.5910181765877374
Ni 2.4794398209684276 5.042461875560959 10.767744088199567 -1.0207186990591195 0.5940850099839897 0.3175194133442661
P 5.137972539473268 3.6949468673366197 12.408744715739699 0.19143868496239289 -0.6690390948933769 0.5388569427486204
P 0.9815433695060307 4.084830847702448 12.125565630066724 -0.062173902425583245 -0.09456234605861778 -0.8520908413436551
P 2.1829212364320694 1.3075408964910717 3.182041933949612 0.16393070935011123 -1.909165453323989 -3.3165225320122236
Ni 5.381053605687501 6.128725766783217 0.1963586068652033 3.074469881547705 1.194172774518634 0.3876053715280744
