# total energy = -340867.0316567568 ev
CRYSTAL
PRIMVEC
9.22772661626255 0.00000000000000 0.00000000000000

0.00000000000000 9.22772661626255 0.00000000000000

0.00000000000000 0.00000000000000 13.50571065580161

PRIMCOORD
 96 1
Ni 7.891053440882439 3.7450820445112054 3.466254291021466 1.6469450696623442 0.9239230927946087 -1.4012568793277673
Ni 4.911005293003856 7.057798961930024 11.58991195760299 -0.2983094160747185 0.1261591470282924 0.638213624872088
Ni 3.257405924530294 6.454933131534124 6.690458855456181 -0.5298737654134036 1.7133978019689393 0.44593007541089646
Ni 0.9674717614955558 5.3541207215168525 7.433043538959138 -0.5507763198940256 1.1327375500312877 0.799576830605339
Ni 4.227018518583431 1.356632672921599 2.2326825792545804 0.07848600932204547 -0.5670483175811718 0.04980098268252713
Ni 8.652617712335534 7.522230438753412 11.77660178435055 -0.5728253292742651 -0.25029972096465924 -0.7560251712666334
Ni 7.808880536032206 1.3085285344618272 10.089980996448963 -0.9490502268795398 1.1502560185310255 0.28191246277393384
Ni 3.8262675826215204 0.9160031939388276 9.506521074969408 -0.16471463870398728 0.5002695693937256 -1.5677975154969
Ni 6.599005626023366 6.830898394006114 9.943660627774262 1.0711596293184908 0.5091563303603941 0.3295586038969873
Ni 4.566829548466627 4.458874375660014 5.821285450941772 -1.2780442165223085 -1.2363946593023223 -0.1716177935817238
Ni 8.917222770907173 8.91128934274112 4.638117427088749 -0.4003266757494847 -0.3910480786610362 -0.8298855088912095
Ni 1.1913087242077538 5.533147844144521 12.154301859412303 -2.2642412276554746 0.7330672769188795 -0.2357133385100521
Ni 5.6743412879528785 3.1605793899324834 2.793575172704744 0.6923183771362916 0.8930048059491975 -0.8062521857429856
Ni 3.6765477194890055 9.079400064870438 11.449830454842857 -0.8138788490503079 -0.026170487747780732 0.4162397474353154
Ni 1.2937364888161307 7.715754319777455 1.0451895199716523 1.8862322415665838 -0.7503872562545658 1.2001503322583071
Ni 6.835512257276763 3.4219639719412123 11.361044038380477 1.700278233867846 -0.5266424029602994 -2.613855721762073
Ni 0.12317261664586268 2.358431577150773 11.807556193033324 -0.19173796137036656 2.6416076950643603 -0.183147134377562
Ni 1.4779588214865484 4.2046505094473305 10.310272666623995 -1.8159192549736338 -1.1300204082104408 0.26043089586139023
Ni 6.82680128342178 3.057948615340198 5.422407743467745 0.10308478170733214 -1.7115136975723493 0.7715006411944133
Ni 4.932173697689588 1.4634989739963387 6.636841150387984 -1.848144947776559 0.1277354903764768 -0.07459104514301347
Ni 5.318151043458884 0.7745975124200196 12.874413337696593 -0.6979323808889594 -1.1539069850200514 0.9697692045944459
Ni 8.30092137066715 8.586307269409787 9.12946878631085 -1.4987428267910834 -2.1294542297488555 0.32131230472779504
Ni 2.1989118684314026 4.917861493824038 5.4458129490670855 1.091862923304113 0.25973875489037207 -1.5265400515090097
Ni 3.395083604526419 3.2945382961324663 3.6995653605736125 0.11928941649165263 0.6997586354644206 0.04434690154649137
P 9.02925659884504 8.881317686934995 13.609839150948813 -1.0157682970323798 0.17508544041535007 -0.8202042770477035
P 2.9007358382561517 5.812664908806894 -0.11365883058178732 0.2672000962644237 1.0331296711289626 2.436261913102572
P 6.32488678138765 7.704099701155799 7.983319633023543 -0.18164252480757748 3.0739788008438995 2.2139766750729675
P 2.5746925763725677 1.145742210546838 7.603674353206883 1.0909825775816888 -0.47546356609363927 0.42970024381559546
P 3.084136903264394 4.436764742867071 7.531662098051268 0.35968576229967086 -0.8900732341246993 0.021756932061117368
P 7.324074239005638 2.599339833964367 1.229674842848497 -1.0563040523628968 2.751385829631468 -0.1249340163719397
P 2.161105872791716 2.021518053401543 11.155122706748203 0.5129996153658842 0.4955410535698046 -0.43086803887145153
P 4.833953776384041 5.2436925179971725 2.890654547009787 -0.18621111801486642 -1.5394171645819938 -0.9998814505987941
Ni 2.706215362765648 5.85281474698807 9.23446185889771 0.11192500570678143 0.6031792589757741 0.5594303960245979
Ni 7.004979455207649 1.4220387986462995 7.737110970084628 -1.6437946969588206 -0.05289813355061212 1.2022840907718584
Ni 5.129176431619698 6.055271067304087 0.36366562576509864 -1.851453700434818 1.0642302491885092 -0.5828287203438801
Ni 0.055246398802734464 2.026823996162788 4.119916910481888 2.7340915613273946 0.34997110611506826 1.1567845636781626
Ni 7.031896733528607 5.722519248224981 4.346596935741459 -1.3123944118674045 -0.35239745616837376 -0.05675967338854741
Ni 8.98387463971495 6.190291162056318 2.8917886346017116 0.5428467806343038 -5.092987951865609 1.4306972960760715
Ni 5.644221988522091 3.9259178015409675 13.029269353421991 -1.5183721709862368 -0.802971715219501 2.37366223599348
Ni 6.8038334720604965 5.004962004647323 1.4308355903581162 1.136124721335966 -0.9860196050150373 0.8754991929652663
Ni 8.78873590654618 8.10043978383097 2.4456954187338393 -1.7708341897095372 4.891420148889014 -0.7450211068466459
Ni 3.136836449541731 0.49184612960492224 4.221791011497787 -0.8711051776626287 1.8623749753330119 0.12455143622154034
Ni 6.939075032249719 5.707247360799137 12.101791481529062 0.039440979604441755 0.821998392833649 0.28686903544826076
Ni 1.4425058961148922 8.131601816360924 8.21171509264714 0.993620814401063 -1.192105864687276 -0.3476637981381303
Ni 1.932830373613155 7.772329511202136 12.386613566180026 0.8188536765570801 -1.212738196225647 -0.2545849786035745
Ni 3.593378220172312 3.3332116980670348 9.579762463300321 0.19517398363510904 1.2126399800848857 -0.9036648567662049
Ni 1.5254631577211362 2.946136252839324 8.308037793375796 0.3633123033086646 1.356513770784122 -1.0393550832133842
Ni 3.2424477798068545 -0.2568786831386139 0.5438766657080154 0.4715745154518782 0.08985979837662589 -0.37937064232310796
Ni 6.636534789866814 0.5843411693642491 1.415060791835772 1.1380926436956142 0.8752531383927312 0.3463041987864423
Ni 4.204465954916505 8.120805376307608 8.154977493235332 -0.5345004655521375 1.4721650763025549 -0.03154255069297148
Ni 0.19476685578915576 6.540547978384261 9.532020051720968 0.3461257642270491 -0.5457189599757762 1.1972889515501122
Ni 3.772571441877724 3.966593620134997 1.3255057057525017 0.0008137541505469856 0.8216551505616172 -0.2705900957825792
Ni 0.5138533346332572 0.9071962517278154 8.50069703642292 -0.7014347376152629 1.5960832498154707 -0.33311263979683275
Ni 0.7589952723839977 0.1810839828737232 11.385881387139028 -0.3365046961975172 0.2253317381654119 -2.4403296554140423
Ni 0.4364197901346325 3.6949662616654306 5.921039020398482 -1.4393673130462437 -1.9540677131533182 -0.7774416892691967
Ni 1.7474361196719927 2.5130790462563395 2.049572187632389 0.4769941438055526 -0.0798108987810561 0.6588269302470654
P 1.2263464018850516 9.667796820049587 2.882834048766039 1.0762416718270886 -1.0234260706879534 1.24170450155101
P 8.579820177651257 4.5152742402804105 9.542770353141577 0.35557765366856825 0.11727907092984317 0.09333541563005215
P 5.029692311777994 5.25600230520326 10.306032526278269 -0.1912625643958448 -0.8110385513880354 1.8076750126869705
P 7.043717451228007 7.796598432005743 3.938872606832292 1.4490745130316784 1.412065539907497 1.2473570718510967
P 6.511434501146474 8.837652084941586 11.14853226445241 0.13729228082697648 -0.6218554952290386 0.42997818006733046
P 8.72233318635502 1.5278531388953316 6.399518788108337 1.0027849973988343 0.9943893171359715 -1.0837436366310886
P 0.9743648732219033 4.328338956006852 3.8207254100608186 -0.9592487646790965 -0.9317626434436858 -1.2155352993548099
P 8.504909493589022 4.403554155044949 12.750863307035189 0.7009763099216056 -0.25849716917378707 -0.27565491189999625
Ni 2.0182698936590073 7.366660196993715 4.549506337430653 -1.435776510371192 -0.1318759949074116 0.37734281325980173
Ni 4.186665670418347 6.450107030553026 4.5231436454748275 0.31808222782627155 -1.3501672597408039 -0.9631789529714381
Ni 0.04804784932787007 4.177465627056675 1.2240782267012014 -0.9781864821238637 -0.2674502646020168 1.1517691127414422
Ni 1.5254539299945948 1.077355529149299 -0.13734640461329214 -0.008053980652728065 0.7667484712214085 0.5244883327317742
Ni 7.894606115600839 8.848199376378286 6.739997905393125 1.1896332347770673 -2.9077430975096954 0.9450346779622433
Ni 4.8978280995028864 5.91322867265393 8.358967461702512 1.2241412958562659 -0.9031169546825351 -1.3674818397598514
Ni 6.325449672706669 0.2554105518458938 5.209300781177765 -0.2028422988136442 -0.6845125079386275 -0.3930697370767553
Ni 5.59028592688822 3.4961918042393907 8.007819246990682 0.17697314435636619 0.12338029873157462 -0.4489603775967881
Ni 8.497554995535609 6.5958220603666184 0.5763564175880662 0.8822097722162227 -2.459922747054621 -0.3481461370911875
Ni 5.800059834351485 7.293290543263877 6.0658469646930655 0.9359072617396786 -1.7482586184018667 -0.8409800761424743
Ni 2.0867857632281246 5.56627538242777 2.3406746629673587 0.4768565897864239 -0.10761095171245982 -0.21013497582031554
Ni 6.956017138179536 7.990546788450685 -0.030204194514967506 -1.8829761965231313 0.5389417891529429 -1.2815707416183284
Ni 3.2897675615106166 4.545615005148189 11.791147449697593 2.1196665542344717 0.6132487273966342 -1.2897267950665594
Ni 8.324027597926552 3.237593995646133 7.812688818775798 0.187973866342244 1.5312724239876725 0.4863331618182915
Ni 7.459251205109071 1.229668383439918 12.432614705761038 0.9992960104089692 -0.6776841721628845 0.9207210409175434
Ni 7.607033245667914 6.169270400995248 7.683263494625554 1.745760277460045 -1.8382359161929633 -0.16350827710071195
Ni 1.4676699063930043 9.299610531051906 6.069966221821099 0.14598440928433568 0.8603903623482859 0.21913357977450001
Ni 4.36615417937308 2.4881457291417597 11.606551394102253 -0.3948738801650296 -1.1394345024354893 0.22331162241158958
Ni 2.710174057451864 2.3643465498637433 5.728825476543302 -0.39815229380598527 0.40009656201654964 1.188332770798089
Ni 1.819218604436728 3.557362403481637 13.383388896080119 0.24836753693895292 -0.763640007499414 -0.5999432685369798
Ni 5.764265483097801 7.143690640576399 2.429664089413647 1.7345718649433932 -2.3270283381850247 1.2406855733681923
Ni 3.483457541612403 7.930963358173542 2.8552828256316936 -0.10035915524605296 0.12094726381004978 -1.9446819010630443
Ni 7.271688435430705 1.4023468302071753 3.4630799530912606 -1.295502264097756 -0.2846920824016 0.4530417467550133
Ni 8.863351303359092 1.2633034466829391 1.763831944190566 1.1166447582344834 0.4007642775075356 -1.4205257548597083
P 5.589197055156348 2.249378304885746 9.793706380387597 1.55561280050525 -0.5417915998969121 -0.5644635875731311
P 5.165884327800971 1.8942861598501648 4.425524449167119 -1.496003316372733 0.2058908558319809 0.07265449024193293
P 4.1362176894170855 8.39196212072357 5.437358506009952 -0.7874268255063663 0.15260499992464685 1.0247435039477966
P 2.2898972521285734 7.755110573476078 10.194812583821346 -0.08490399703324733 0.4755615251240842 0.3268761719688177
P 0.5238534218860589 7.2854100647976106 6.212207935364548 -0.13663664952084856 -0.47774901969370626 0.5527077325887836
P 6.478565339206381 4.871464484774406 6.330437258902239 1.875455462666054 1.5043316337327706 1.3006164453958697
P 5.099859944398004 8.557212247625083 1.2796835840663923 -2.165415221224497 0.5193702947789184 -1.9568581314142621
P 3.711262426737358 2.037048317170543 0.2567993246903587 -0.8327741432929141 0.38715851379864286 -0.5974793803775194
