# total energy = -381166.22982843185 ev
CRYSTAL
PRIMVEC
9.29604343588486 0.00000000000000 0.00000000000000
0.00000000000000 9.29604343588486 0.00000000000000
0.00000000000000 0.00000000000000 13.60569922688701
PRIMCOORD
 96 1
Ni 8.117658275704063 1.8429312919273495 10.191947634543373 -0.34402697271649135 -1.264948559680615 0.5869334865408731
Ni 4.933242860557126 1.570482854337214 13.010762680418868 0.8132995795080703 -0.1589430263275327 0.6131435692773375
Ni 5.760692972415169 1.2253021738200547 9.053503971077735 -0.07523767758807687 0.7871414330554637 -0.25797446390109763
Ni 6.258858637831362 5.696912819204241 1.6304934619823321 -0.2376043848851779 0.11254824111307714 -0.437319193813434
Ni 4.512039137778054 6.739008571295539 8.584583657942781 0.8985061953834009 -0.07278304539999723 4.206274121131447
Ni 8.571946616655078 6.446294759270215 10.293664010934375 -0.2379640822174418 -0.22613752189615893 2.0400726565602287
Ni 8.25329684377004 4.672089115599445 1.13761724521459 1.6762990973444294 0.226061674352901 1.0557512651832204
Ni 1.6016245994555076 6.202757016401839 9.684822442576431 0.055327568927711165 -0.20760783852308762 0.08970013287031003
Ni 0.13235892398307172 2.6195599349610017 8.566420118901995 -1.5931974436272434 1.359211115110627 -2.308734939192475
Ni 5.638199009602108 3.07834756087836 5.65224254224396 -1.7251827104190096 1.507611847145939 -0.8019198769162189
Ni 8.056137061019625 2.2202855783712 1.5290764181861978 0.23829472608398314 -1.09266073661506 0.3702982477081945
Ni 8.778151449554777 5.728863320091277 4.222243353750531 2.169010651885239 0.4376770913734849 0.5617629008125165
Ni 3.713118582865695 6.551154127907336 6.602831762321396 0.7058220680496812 0.16005040045909855 -3.1346735476207948
Ni 5.960251134341859 4.180235463596783 9.116634330860672 0.7334552563859175 -0.5307983341102019 1.9831162937798428
Ni 4.233408831380855 6.008497599166917 2.846706894249504 0.20092451296564107 0.758321680610294 0.578391510508133
Ni 3.4795833826084483 1.6882823152742343 3.2430948293887893 -0.2385675201293956 -0.27965683397053775 -0.39208731855882795
Ni 6.573483223959317 0.18105066928310481 11.149312740595951 -0.291368208870195 0.21737545943281272 -0.82428821730909
Ni 8.278126575474804 7.045592079952651 2.3092951931496066 -1.9669828785530898 -0.9332374282169993 -0.8074757737374416
Ni 8.648546013602761 1.9796482010183185 6.086291537681079 0.8914436321096646 -0.657536493570416 -1.2985693330588537
Ni 1.3570271076487777 7.371743759796035 11.860291796107246 -1.9204785643439632 0.029783401910019675 1.5665682710754891
Ni 7.383057044515129 5.815586108213236 12.566740889709243 -0.8854347069114235 0.18741645117687722 0.43650209722877725
Ni 1.2823891758413803 1.2106794976794348 12.219863681286384 0.03935998985486125 -0.20260472888154138 1.1644289675972979
Ni 2.83324808273241 4.081771772763061 2.993308286201453 0.07203125483563724 -0.13389739621281457 -0.25847274369375484
Ni 3.3306886567697287 4.897731975078952 8.5366513993819 -1.3809587912003636 -1.2410259874267466 -0.8985414194967105
P 2.151727258894359 8.715533301758708 0.158648134488903 -0.7775293638869963 -1.0928713099639695 -0.7453844037233357
Ni 1.7814379653728678 0.1695663373669436 2.1553880407533392 -0.07947357004629538 0.673288357088034 1.3513150001920018
P 8.735566275110925 8.743737497188231 10.13389198480822 -0.5395146309372774 -0.3355068510606222 0.21219468656282162
Ni 4.157478749552131 8.456433982374504 12.982694207221803 0.7562519425654588 1.4030887903301834 0.7531023411928837
P 4.772300462577119 8.81836613295231 9.82614461152758 -0.19342151972037655 -0.12306970946969126 -0.3185100593923095
P 4.297244760851697 3.130572732243905 1.1820634875308846 0.03019606396740606 -0.050101544642081455 0.3050978997514617
P 0.7233214122257883 4.61273387900831 2.811821632486692 -0.39551614173471883 0.7360978362150871 -0.8953141708086645
Ni 7.739913555440818 8.926665037617422 8.182916499802696 -1.715456227159865 1.950124412234854 0.15607187542732476
Ni 3.388472862039972 7.9735881963478485 4.383865292497148 0.28077217852190356 0.0672896263855938 -0.4553397987605706
Ni 7.525797789676741 4.129144409516143 5.565397975954524 1.6914737482023388 0.23387834218384235 2.178306475364868
Ni 4.025540006727073 5.238441258759724 0.6325762261597438 1.2791690741553712 -0.06836537594827581 0.32400347840671295
Ni 0.9066895851082932 2.82661070780272 4.086390047083888 0.029892159573742066 -0.3586177260464727 0.29450804005075726
Ni 1.6593344363791995 5.953083884942992 7.160026373208232 -1.4524398299594856 0.9897477045989018 0.43935833573064975
Ni 0.6088462163796041 7.880795091938652 3.416281975628442 0.5449154902378744 1.5470584831773357 3.26610037080593
Ni 5.911567755480814 7.934544814408495 2.667111985350138 0.032392814508408724 0.31392449690415614 0.030179351796857705
Ni 8.913604096754376 8.812416665228218 6.1491774115247315 2.099820723153139 0.3214298041422658 -0.24036626390103116
Ni 1.4983176700526424 0.11802907320699714 10.074612046167966 -0.7503846851514044 -0.796793354322931 -0.4508293124847268
Ni 6.602514767244223 0.29534924030622994 13.530786132490777 1.8001650774631706 -0.3406547138101488 0.4748058779049823
Ni 6.90712751471773 6.552613606708402 8.63619064242762 0.641828595916856 -0.2549737294015609 -0.5986723722443561
Ni 3.149545956657767 1.306651848903693 0.6896362696554451 -0.10814548405969118 -1.3332794828465295 0.5964293418464504
Ni 3.2458994456580994 2.964043412229244 5.335297663703608 -0.8408828884429776 0.8491577268572601 0.06004451478740626
Ni 7.814644447681405 3.669566619916678 3.4740931394243098 1.3106900275817879 1.1714066844667115 -2.6225967011794964
Ni 4.513480024492482 3.041553821422179 7.55889077428767 -1.2168481046289623 -1.8172081489883865 0.8503895423818323
Ni 3.170517830385191 7.836685366390502 10.913947149409214 1.906115353643756 0.7614232023537532 -2.4106655526907064
Ni 0.26591424874128505 3.88087498059845 12.87772607487785 -0.3837158066656811 -0.6525740073588181 -1.304721725813495
Ni 3.921991380197917 0.7207138720748385 6.098346646657021 -0.6172187677879757 -0.34080769444824527 0.05778811465306177
Ni 7.628584140653748 3.997326515254231 10.903484452653801 0.8833279449810659 1.0197627629037533 0.4293557159919832
Ni 3.645982558016645 8.132773642140583 1.924961437381931 0.24357397220505148 0.06516255274026196 -0.9163144272094155
Ni 3.926732362290552 3.1635086137227453 10.06896562945607 0.8186677857985191 -1.0657675117686418 0.3435397486674277
Ni 1.9485901202898948 0.6599493553165582 4.850948707472288 -1.6017072808704673 0.2373896977712105 -0.2341069132548807
Ni 5.252747869427501 4.356758030179254 12.329824718496912 0.3833113721384108 0.4300069764227369 -0.373294354222041
Ni 3.2498316719819913 1.0635882042445803 8.685075745428685 0.6932352325236061 0.3892673326115296 -0.342620579287268
P -0.057688456024058386 1.1537133442212544 2.9843283083554013 0.042325500241088394 -0.5279827190382778 1.1221641453908158
Ni 5.619402410011304 1.3278096434974949 1.7487679507329479 -0.4937834474487495 0.3687969805723197 1.0085334698468373
P 0.5816459936285213 4.2597631141899175 10.412047263391823 -1.978302417330967 1.5924376826430833 0.6090267188954865
Ni 7.264792781412163 2.4818576452782297 7.709002352196833 -0.8692591255928255 1.1631824967847064 1.113404911140947
P 5.112805233304876 0.5000453253752727 4.0235041732402355 0.0626744962110856 -1.564992699058253 0.2511361008230255
P 6.7056729599539855 7.567351103312196 0.4609257158807044 0.7914174347229983 -1.1624175935942238 0.4917116525213854
P 1.8297123183278825 8.042657798207228 5.918791710743926 -0.5441120204999725 -0.4151174609054141 0.6278045137236219
Ni 2.0425638222005906 5.694551624201241 4.737926483196847 -0.37742714544349193 0.5754591673526863 -0.23494612132672443
Ni 3.4771106350856225 1.078740754854377 11.271518526066128 0.44466432132459555 -0.5898455179813455 -0.6976120214350631
Ni 6.6164030559626505 5.841020082733729 4.4061107241592605 -2.534875546412428 -0.06805195847291506 -1.667938641194876
Ni 2.4901032357020885 8.040240826944316 8.104724690634486 -0.11749478648507505 0.48470539640688143 0.06203352019297703
Ni 1.6189524242019255 6.65337342024189 1.8956816897404116 0.6159990364482617 0.037951539543108835 -0.08163278248114328
Ni 6.0047141095361285 7.222681705177575 10.795006134352635 -0.12072563471754694 -1.063158356280569 0.13472400587916797
Ni 9.256748943784698 7.327243600428491 8.300714101531053 1.4286861791833136 -0.1887868491618426 -0.6583147664973372
Ni 1.6623463544145212 2.517656708099289 10.088911220001087 1.8294445431535784 -0.9169397194982402 1.7558544284712536
Ni 7.627487207542119 8.67342222552412 4.317877328997981 -0.16124364943625133 0.17866261624364715 -0.934158654479688
Ni 7.611135467344185 7.008259169983974 6.3526231787673835 -0.13653843338008745 -1.293289315606837 0.17432696498277073
Ni 1.9211482004125207 4.794257716896347 0.6600413861454152 -1.4966175529179646 -0.18206418572602837 -0.6347976572120034
Ni 9.008786284296528 9.05557327032052 1.2527961515400143 -1.072559852100127 0.13487261564189032 -1.2182982068119277
Ni 9.210519720359839 6.706862853498804 0.027313634479573357 0.6790504563827918 -0.2447191415530882 0.7685135335416313
Ni 8.411496908970973 8.556096862796364 12.344314461218072 0.4895573251825439 0.09286747485469812 -0.45659732531675556
Ni 6.725678045176244 1.9212225687590718 4.084852481518942 0.983609452911648 -2.4419592205976652 -0.19412214533182698
Ni 5.321873247546794 8.431873835925987 7.576973437751583 0.5691656210344908 1.6166047668075902 -0.3231925524696434
Ni 5.908007370889677 2.4417266262705652 11.33458102473284 0.971475131541959 -0.2551295382531348 -2.3742759583180786
Ni 1.1319327147250866 0.775015779517824 7.512223707222493 0.42201393091493133 -0.18129491166017164 -0.4236643220341607
Ni 2.4587755697174165 4.581322548633769 11.442760010439136 -0.3993247168475316 1.5849357178390833 0.10912018926813465
Ni 6.103884299662085 1.0336828328876995 6.29821436682623 1.8300950322533838 -1.698908350103513 0.0323979567147313
Ni 5.213379125971986 3.4390991139546663 3.091595352212116 0.5515553641518952 1.3864282989553673 0.24295793588760736
Ni 0.948754181126287 4.028040642379856 6.387984397948123 -1.1153509791237244 -1.26292330172047 -0.6367779208668259
Ni 6.917325274238556 3.2495713827690627 13.478798939834194 -0.054845744195286185 -0.29526728681428505 -1.2400283994001675
Ni 4.2768585378533635 6.376871907764716 12.280273089189883 -0.33562537891635746 -0.6848094703537562 -0.41733503738202316
Ni 5.701049558481147 5.059511016957658 7.147958249771644 -0.21017534213994768 1.278796778417617 -2.658755153377924
P 4.422852898176588 5.235522301157591 10.367297970063333 0.41675139696441127 1.0149159763344135 0.8406507178275135
Ni 1.442150976319887 2.671459744810385 1.450585276423119 -1.3190615394749348 -0.43958279303663 0.4399643447457649
P 7.957245752193233 4.722706071470822 7.577340631462679 -0.07495588468159993 0.28224773462616554 0.5964098014624245
Ni 3.3189105698846904 3.063669108477827 12.826364505936631 -1.5972567012982817 0.6320401490715244 -0.16244769704668152
P 4.18428853848382 5.165104773016972 4.782906318399645 0.6160627998066617 -1.0097408598913773 1.0019493888714162
P 8.656847380286532 1.6821190385538078 13.037797433598875 -0.9106590286958509 -0.04145338204878022 0.46876789924101847
P 2.114459421228914 3.0997191644684965 7.941224951137452 1.9169638663224855 -0.6631715803690063 -0.6008207860459265
Ni 5.6467606654988085 7.626362386300532 5.328494819202842 -1.0916328095711778 1.4564265825213756 -0.2824773341384684
