# total energy = -340872.472320167 ev
CRYSTAL
PRIMVEC
9.25952281152040 0.00000000000000 0.00000000000000

0.00000000000000 9.25952281152040 0.00000000000000

0.00000000000000 0.00000000000000 13.55224760156528

PRIMCOORD
 96 1
Ni 1.0941144597502581 4.198267584488681 4.18742746128365 -2.4801670991259543 -0.5359662514643867 0.8514537219802883
Ni 0.29545747953166535 1.4233830863590307 1.8297159424019098 -0.16835017857404552 -0.21877593932476516 -1.8076747555766544
Ni 8.135231438862077 0.44111532704943696 13.374590678361145 -0.6256121340579935 0.038383484874204864 0.31395869257620124
Ni 1.94128670906662 4.894342942663255 13.338189642789592 0.3996502185077504 0.5751097544330676 1.256641068256184
Ni 3.9381398137541406 6.325541066166769 10.56861177710959 -0.20719131981095928 -0.752491189971446 -0.693381014072851
Ni 1.5937397846815333 0.817263065097886 6.6631932646127625 0.02847342484934451 1.2603444852497003 -0.39145842672557746
Ni 7.431720683973023 7.529056786417102 12.679834802168902 0.9220248473306314 0.47163236527300717 -1.366490936601492
Ni 4.296390746360817 8.797592874947716 11.174342898418049 0.31052189898051036 -0.8185328028825517 -0.035639089359848296
Ni 0.8963699452358704 6.573149962233844 9.375715803424432 -0.21638995559109186 -1.5166343623595235 -0.3398859539649243
Ni 3.4790897172199307 9.034729250860277 13.437025787908322 0.39218167804484716 -0.20356863545670748 -0.019953046083159186
Ni 3.838896249637357 6.914974501600814 3.1136154309682174 -1.4969749362573832 -1.2393408864148399 -0.04250727723459131
Ni 6.941975269744548 0.31850720934654775 10.796221956085843 0.5076185535596289 0.9191858352199396 0.8802907008166387
Ni 6.185157442769254 7.978032522272168 6.481253829366049 0.8591017254438494 0.678322834188148 0.16486530534923863
Ni 3.165303012537195 4.541045854692004 3.4791869422081025 1.933596075562528 0.5636279790457132 -0.20828506709577033
Ni 5.783599722574018 6.531037653071394 8.45833692717302 -0.2983793500807055 -0.0002445119106382886 0.970493227244664
Ni 5.243954740606659 4.103468591259754 5.034795086528623 -0.6085824322692164 0.9893697524341928 -1.4488958213619694
Ni 5.486961653900265 9.142917513888873 8.942165506407035 0.2722327735923247 -3.9922423813598855 -0.034785740220617506
Ni 7.014792156123946 3.640455419017205 1.886581449055241 1.8118929074230603 -0.6968386336041482 0.04676708095220978
Ni 0.22110443833915178 4.012391926149409 1.7909157645031828 1.1505694360063863 -0.2389783824145691 -0.5711199165473841
Ni 4.513452477096555 1.6460468283180059 12.578776371606244 1.9845399136002468 -1.6006284459839917 0.6780222722285937
Ni 7.645680474609945 4.104811222048795 8.404426134207846 -0.37093253885808375 -0.3660232744819245 0.31607779580173306
Ni 5.056662375296883 4.116839342014059 9.523354262844105 0.3434947543621052 1.91498977331525 0.44970111241755456
Ni 1.4260498288917451 2.157857685100157 9.489012545117259 -0.99014828247143 -0.2953696167201042 0.11950693181909741
Ni 3.0584758993430046 0.3849590998336264 9.274168470064108 -0.307030083777168 -0.15273021264860148 -0.40823564618391633
P 0.24790427484066388 6.582270592076634 12.184418856249335 -1.818044785957069 -1.0808200352263901 0.23082232896633798
P 2.3885586927480076 7.912891780197008 1.729483461262578 0.22164014824643766 -0.20364782543407509 -0.34661453093800954
P 6.14311920978827 2.423763397988912 10.469992304821643 -0.10105978085750338 0.2666390815546311 1.36018119233338
P 5.534240776719849 0.11672924675142944 0.4399495531436427 1.43177793073476 0.6796860330842617 -0.18231358273267312
P 8.83072344710762 0.7799018170241026 9.704859426476983 -0.91987051999179 2.288172027439459 -0.8866348978671117
P 8.619245208549753 8.308227101149244 1.5650408200777306 0.20355320883773978 0.7762700375585986 -0.38605962430750934
P 2.941972584945041 2.6786410193621704 7.931832133845158 0.249913284159518 0.29263756250092177 0.0334366823918908
P 8.769740230717142 8.263309156613834 6.481023267251242 0.8163951877142585 -0.5706933705329268 -1.0411592263016585
Ni 2.675927979216041 4.031466542876464 5.958760261264479 0.731872742390146 -0.30299987957185237 0.1592189056967387
Ni 5.057347579975428 1.9146933599209395 8.662271432601017 -1.0134165089707516 2.978475688138567 -1.2002374926554749
Ni 0.11382268258122433 1.675686560426405 11.660421541664041 0.8458356044625627 -2.0267245173880966 -0.5429424256719037
Ni 4.665910518072749 4.543138506818369 7.252566513149367 -0.7535589691143281 -0.8304025577369442 0.9392941759340404
Ni 1.5357936917310921 1.7948288387890339 3.69808298438735 -0.6760152691008938 0.22638049114490044 2.388050900614984
Ni 8.372858569476838 2.485274407172322 3.7002515645997174 -0.27550064571031907 0.8378926954664021 -0.12075777350706299
Ni 7.80329606972059 8.198288788333553 8.434824221223986 -1.1767057280821218 0.1349132390718386 0.6335673843493281
Ni 6.890714552171258 4.448950642086524 11.178680058842781 0.8026973785121918 -0.8682353123140013 0.0055831505147323195
Ni 0.5565565741956561 3.925769091449604 11.81062118505784 -0.893717515745506 0.8231247931286082 -0.7628846173906281
Ni 0.2077577623438232 6.772470447508884 4.523929627012411 -1.8795792550264403 -0.2743801589526306 1.8542081232515033
Ni 3.979668772987559 4.012641933261851 1.0145446034781218 -1.5729217240973428 0.6069862914266901 -0.6553130035565359
Ni 7.962939500298819 5.249982689873316 13.336725712253404 -0.23067731874804143 -1.012324047237521 -0.051780989227033405
Ni 3.5082757327168617 6.7024591965024465 0.2709299298965704 0.43120151095147025 -0.8492723980582536 1.0144197534242851
Ni 7.811916685338496 0.7368718891637643 5.299348909105656 0.07560457400919238 -0.8115049495014927 0.9723940438118027
Ni 3.783015030245233 2.428522792647992 4.214193037551236 0.9590183938358451 -1.191521967159348 -1.0456306318094508
Ni 8.567808560045485 1.778041324164689 7.5943808670413855 -0.21673834006944606 -0.33486073283619106 0.011654039299160575
Ni 0.5799933520586893 6.381848223602313 0.834413553011406 -0.7905720560035675 2.185961677917281 -0.09381004127362554
Ni 7.619476025416951 8.388849765150443 3.541472973440083 0.628658377083485 0.2841045853292462 -0.27096264863064945
Ni 0.9340265720832427 8.693913999465757 3.2438385801256358 0.13173355579227636 -0.03863082499832056 -0.12295529537901406
Ni 7.96965265424402 6.12210935282046 10.004729994519383 -0.37270171494336457 0.13930391194036654 -0.18687471974079428
Ni 6.065033655002224 7.118072872130534 0.971842462720763 -0.3109209341911419 0.055570538176452675 1.2251139441821806
Ni 2.4010868269381556 2.5202198457781013 12.919384209692664 -0.6924448754118268 -0.7736099742279322 0.3801432588230743
Ni 7.234446553210934 1.1695332720035891 1.9205842682518872 -0.5851272865700697 -0.9729218912908149 0.6627704882758457
Ni 6.875269668335953 6.07594137272284 4.745360000550005 2.138227347955795 -1.2940333928617134 0.5134125345335868
P 2.4106056162563174 3.0755134210797914 2.1315106392578453 -0.9061837665333169 -0.6128833736374154 -0.2872909534770278
P 2.876442942917193 4.239194674747702 11.585437001024545 0.7514964301583446 0.647943193455026 -0.6496360077764166
P 6.550195605502596 5.329142349290594 6.838504733522957 0.7486139664042268 0.2665382943107087 -0.9485743156843859
P 2.9282962699421966 0.3386605604661763 4.7709468395800405 0.35545295516524583 0.28574623469772725 0.11334245487959836
P 9.054387217516362 2.68290965931905 -0.010168807810510518 -0.6653415914371316 0.16055407956839446 0.7333824941664532
P 2.304158143492131 0.7289642567924514 11.384212757885871 0.3501711379410163 0.1898165759779376 0.8434269950210701
P 5.877343130217078 4.83577646169305 0.6053940746827947 0.1827874370452981 1.4856014043131187 -1.888694587064147
P 9.455917159143551 4.370050249304371 9.71570140158655 -0.9737657273483488 -0.013089229083790361 -0.7437643516214094
Ni 1.5119967184356886 6.097580877233097 2.8818310591664518 0.6293708297694774 0.5705511885281077 -1.2311678636857442
Ni 0.7384534156380269 8.799379962825542 8.483869135019225 1.9949261419305773 -0.18651810773232394 -1.281142138721342
Ni 8.654403616177241 6.0737283468015955 7.249571057561406 0.02079199704468677 1.058219524218055 0.1607998770306134
Ni 6.321568730935747 2.58657358532474 6.13228371634458 1.5445434300649656 0.6823856914036118 -0.09424095816345705
Ni 9.132139429485818 8.237836209712802 10.678100077122885 -0.1564634544387886 -0.7274764130946632 2.2393460070756914
Ni 4.620085140314401 6.4534613720329155 5.390569096817588 -0.35412035239675144 0.17558886241432986 0.7692954060129783
Ni 1.252489335720912 9.070285817963136 0.08260142399856236 -1.561681375296833 -0.43674043849182853 -0.016038284409785282
Ni 4.914324992613248 3.808052779580163 12.265895248241907 -0.16625267261506851 1.7386519485500378 -0.06145785019516512
Ni 4.096986925381629 1.4875700975978385 6.361113374458189 -0.5374608337320421 0.2539180344435369 1.3208386859800156
Ni 6.825657145800245 2.6491124015259677 13.144866550356353 0.6260386800724509 -0.017450591376279623 -0.18988368177044718
Ni 5.37027314904864 4.933964440223968 2.8143272869025804 0.426060333070163 1.5860888576069199 -0.0036334829875292267
Ni 3.7587643403383604 2.469885080473116 10.53714328927129 -1.176494126291948 -0.6221141482070641 0.11929507291860744
Ni 3.4790063815157835 8.449240372089205 7.207803202642765 2.679043214202999 1.3628109166467435 1.263218978584018
Ni 8.255253371879594 4.243713321817023 5.772742006275888 0.29292835426846325 -0.6579458131936927 -0.472012117209929
Ni 5.09956174388739 2.0795036041563035 1.6459477514252974 -0.9376108746943466 -0.7611771477812181 0.37411659301302025
Ni 2.139709020641406 7.302179961637345 12.009093498055114 0.7434185382462164 0.8411693093351449 -0.7707226253778082
Ni 2.3610116127659744 4.469895682395553 9.469862926256472 1.3245886399407512 0.44680785003015955 0.05577674064998781
Ni 5.380282693069002 6.318994583629863 12.317555977195106 0.7381434058902061 -0.3307084012307143 0.21493702519464916
Ni 2.9037585348321504 6.261622581085769 7.483985133805153 -0.30966443607622157 -2.199745104854618 -0.7063481157564804
Ni 0.9853706253606792 3.8185901163934584 7.660773496583293 -1.2822731670019916 0.100047280432589 -0.9568586671803649
Ni 2.737124164628228 0.836633986550798 1.9943215511859789 0.3058216652913636 0.5588752948520761 -0.5441531581505531
Ni 2.0151684405545667 7.826213388361104 5.817559947966322 -2.5548458188867675 1.050212080532546 -0.9140009485848903
Ni 4.692624241013309 8.854131520450336 2.370816521335042 0.9758344369519195 0.9119450944971261 -0.6434828436908272
Ni 5.271298111089665 9.411471450264976 4.700610579327428 -0.20403606201142924 -0.02704671970514697 -0.47141896371062036
P 6.354310403142963 7.496935502229648 10.538200726761692 -1.4165354027533927 -0.20178223298024606 0.175151260656279
P 2.538303693578072 6.065728119203452 4.994734687592736 -0.6712425303025988 -1.9373259749186056 -0.8019083069519932
P 0.18828591209366605 2.3025469865452832 5.5390205423288315 0.8017843797796191 0.6230891105258236 0.9122346007130872
P 2.7273368491522585 7.410794162709362 9.192001317679381 1.4347627243946968 2.1891891837156425 0.328794214927137
P 5.8597500371193085 7.2825127354585755 3.4928345526906295 -1.7333066250777245 1.1060027051396049 -0.9648352576279384
P 6.184055559569973 2.554480079705336 3.6407841320724526 -1.288336342476936 -0.4604449811976199 0.33726882805705144
P 8.200585149958947 5.0961542395400325 3.15905561258295 0.954941395552994 -0.19664311198146778 1.6632543483453293
P 6.24174238588529 0.9059646626400326 7.189806394356015 0.47939683970977437 -2.8247969955337675 -0.1500197556959739
