# total energy = -340873.3336049569 ev
CRYSTAL
PRIMVEC
9.19759907043963 0.00000000000000 0.00000000000000

0.00000000000000 9.19759907043963 0.00000000000000

0.00000000000000 0.00000000000000 13.46161594714753

PRIMCOORD
 96 1
Ni 5.233590130602382 1.5719800223921505 4.614749923650228 0.37128143755707027 -0.3058337494762217 0.2528055181056485
Ni 1.517125542580629 3.477244238354103 4.74087107874203 -0.9270984051987969 -1.519234518986532 -0.8802647326747098
Ni 5.158270993248836 1.8844684448596971 1.7558391045491486 0.20701751323725637 2.4572757963500775 0.9986398648822091
Ni 2.0703151281379677 7.3697048812372685 5.261257427839309 1.1143042830267649 -0.2203229720969109 -1.7999331639580227
Ni 0.7370008402000814 0.6620339708842247 0.7996088958803342 1.020273383991585 -0.35621682991446396 -1.4319905609661983
Ni 5.39431817129761 3.8657600132901333 13.155229125147782 -2.046659822859443 1.104177479005408 -0.7303740463574325
Ni 6.694748283905159 3.814869698602483 1.4358969479368573 -0.09534241875775191 0.8482935790847519 1.9113691458435278
Ni 8.253925248635063 1.773287869413407 4.040611886848972 -0.795379761804856 0.7756938533401544 0.9680802469277972
Ni 8.369465485957722 2.0260010966604507 1.6531672278408933 -1.1103594394464038 1.262374628305852 0.12476843732835287
Ni 2.0995726902238916 3.604364252685934 9.591643346924016 -0.4629008989372802 -2.0027505230710023 -0.27133648703030044
Ni 6.27950428657941 0.27492082977972626 0.5964946404360423 1.0783479195368137 -0.8506955036580253 0.1203566814139024
Ni 4.782705437557376 7.404195877094614 4.599511341800508 -0.23846390467199577 -1.69690288963771 2.4844027344738566
Ni 7.942788873205124 6.551532471506566 8.23009518965725 0.34585219885068824 0.807126617928139 -0.4237800216764186
Ni 6.755066137460484 7.150066219617695 6.1137276838505565 2.0546775509575967 -1.3444177588515362 -0.6162646314048226
Ni 7.754891125373203 6.1546928695702965 2.0294593938450807 0.5290312149074502 -0.5949203614010916 -1.6550031640801306
Ni 6.91228069537771 0.2035272276346905 11.65952295087451 -0.36690053488055524 -0.49544438009094033 -0.2822942715933848
Ni 9.095763080323351 1.0811225645482057 12.086135180434841 0.3348859296471717 1.261395295111718 0.08270776071287692
Ni 8.579538644726192 4.248334139339804 3.349330471237608 1.2582644627922202 0.2661847676260319 0.07416861289361419
Ni 0.7939864036756421 0.25967672937066927 5.040756031443358 -0.36304336591799413 0.653661583996042 -0.8529315920773956
Ni 7.965782870443354 2.4271267796819265 8.246047505181245 0.09092346375444986 -0.8628473085292108 0.7024714064098934
Ni 0.7508340289386006 6.544992978692013 1.939185880447679 1.2051035624985245 0.6427009712194802 -2.6467103063982482
Ni 8.898290632041432 3.1603777588123974 6.285093667428079 0.37909887671896 0.3939397983865345 -1.5073760769860491
Ni 2.41574934984845 3.8689699753045903 6.97436908672038 0.19457620215011007 0.3933774981251612 -0.45821017832983024
Ni 3.0930237421021736 2.645505370252845 0.5951058030028532 0.3372066073605483 -0.009375784787945143 -0.5047108929945308
P 8.034415353400023 4.76236034880099 9.807864180794098 0.423578961409206 0.34246528465632636 -0.7125213344467277
P 8.14169614691471 8.146865197493863 0.5083917603779295 0.825235668824024 0.037200777420013355 -0.5961601473454635
P 5.160119710626789 5.850620250091943 12.007922478468835 1.1234674375832716 0.7861129917909494 0.28899019555632166
P 6.357214799645732 8.175331766074793 9.047444414286824 0.11217337427216165 -0.5857361237986622 0.07741437352442151
P 1.9913813344185716 4.472047337269993 11.69013439951782 -0.4245510955144882 0.16627375566099106 1.2335445914480367
P 3.7604567035379346 2.723951691230791 5.720096204408963 0.2580883637711426 0.20761683738415213 -0.6042565512003528
P 7.367644619084723 1.6612335220720644 6.107629675782977 -1.0096763252020289 0.06957919375071887 -0.6678705285065724
P 4.691042166966896 3.2140273531686354 9.315814714133323 1.0421588712107663 0.372264627405946 -0.14942223132129107
Ni 1.5421246163780327 6.866320293697937 7.400872784613745 0.16660902751322273 -0.12356207572507752 3.1981818525870853
Ni 3.212371785367483 4.8664679706968 4.245887578033657 1.410537790409061 0.5348740468414724 -0.775185289134852
Ni 8.676334175500244 8.961689681226678 2.6702864609564303 -1.6185009553890384 -0.02401847440178444 -1.1767826040666443
Ni 9.063001233058321 7.252177962553228 4.0137291447978125 -1.0954740376941392 -0.5976899537264286 1.9896345545143344
Ni 7.63541431572336 9.22491576401104 7.432790292300187 -0.24861693394559764 -1.238181833109732 0.2465140286699819
Ni 7.633758747922207 2.8283628338901456 12.968489355016779 0.3813120823201949 -0.4152048784128978 0.4250663445880099
Ni 3.2946167146891847 8.313102599927372 8.523814072059174 -0.4295920003725053 -0.11670982868993447 -0.7881721883128233
Ni 6.922756760519448 4.442237919250352 7.441069970825729 1.1413263201415633 0.044286737732517276 0.8397534028242248
Ni 0.03438798274971782 3.6124121517193144 11.289530220353708 -0.4239456007200054 -0.8500077335623812 -1.4632438625535251
Ni 2.5916442311220154 0.8302626534785634 6.406639017069474 1.8171207314809026 0.5531363354857699 -0.6020968245448727
Ni 2.9302262416555047 5.53730404372382 8.837349181281006 -0.3346195633596624 2.7986766442976316 -1.3799118379930881
Ni 5.0387573932034115 6.997192928379047 7.443182659291978 -1.034616025866502 -0.8244527679114124 1.4182102193526542
Ni 7.581341631817938 5.193148288259783 12.091385169884273 -0.6038418322604375 -0.49312987302515077 1.683645253296855
Ni 0.38664498332072805 5.529265342289335 5.842502449306958 -0.9906216225634231 -0.24013460750619933 -1.2511761884868708
Ni 3.124746260692036 4.9579380917104805 0.3457561376718178 0.47123127317984653 1.8409813401485844 -1.4333103082188863
Ni 0.8568400352463992 5.7198395913997855 10.223423655761957 -0.9362039670444908 1.1411401722726864 -0.2634635120401269
Ni 5.98894293987824 5.280203561803722 9.425244066749949 -0.7619880737182877 0.06450769276508245 0.7133564287535133
Ni 3.8217954905706373 4.722645116771119 10.647424686995912 2.201020372022616 1.0363705466637636 2.3485929517296777
Ni 6.847189287995729 8.852330230361657 4.69437537680655 0.5891965715434369 1.2596310041224437 0.21630690895898233
Ni 0.4284710642970685 4.575345570463018 8.040299977173232 -1.1380579338029368 -0.014285049164104429 1.444830393043344
Ni 3.6201289371924643 0.464328823350254 0.8115722127634405 -0.4106799939593508 -0.7215453923222089 0.3013731426017068
Ni 5.639415786659352 1.0748681972994072 9.60396077136459 0.9511099376220459 -0.030546762438605456 -0.2988485764076401
Ni 2.1253811527240813 8.08048612626654 -0.04326090640400604 0.43433851391855527 -0.8037152782537448 0.658526368287511
Ni 5.1765098318581995 5.087035589804799 5.4953004490888 0.856587443662428 0.1567755863625687 -0.9575032427428994
P 1.3703870498051398 5.736137736642243 3.6734860479038325 -0.19053725619404605 -1.1583740196524694 1.7701412774075709
P 4.141375261786454 7.436801365178424 1.2034819016918337 -0.20034550053371947 -0.29946152740129073 -1.1778424127897265
P 6.795517177401979 7.0465012560567075 3.4935313464778863 -1.00736310368782 1.2072481196453533 2.94750932166404
P 3.2891441433464856 5.863579666935409 6.430357785100653 -0.2342840622626933 1.4892639407663708 -0.24780317979505068
P 9.272559326288656 7.8644253306172365 6.326340299674016 -1.8446127662535845 0.11818358502198356 -0.24014669169105737
P 4.104115788661626 4.016729401557456 2.168141709748183 -0.04464514951320053 -0.9023021720907236 -0.006084772741499198
P 3.2642186503402444 9.08088136531077 4.5342083896439345 -0.7290185607708025 0.4150179592130724 0.5377251431370224
P 7.3217761933939025 5.063811652594186 5.556658551079183 1.6353887322833125 -0.5851383423136632 -2.18112620420185
Ni 6.43243276341143 3.316644964043409 11.043748303634157 -0.34612422156515227 -0.5883031131948901 -2.213707480571981
Ni 3.5948723306259924 1.6239740489472363 8.420052279881828 -1.3206965039751963 -0.25935926006376625 0.1964680198561842
Ni 0.9332987551030724 3.1462962349037054 13.425834441525838 -0.11758374665445556 0.18252235630936955 0.0002758793692059765
Ni 6.369079702220659 3.683583171971084 3.7540947243820613 -1.004651875404244 -0.1150722930865115 0.9684402013703772
Ni 6.375214500683819 6.801118515129211 0.3148604832226423 -1.4370425215678089 0.3117863675152308 -1.4578897973304634
Ni 0.807054352186073 5.894189276058941 12.984441670540773 -0.2478270910544506 -0.8341972488926859 0.17896857751984016
Ni 8.690351316216669 8.726534670270748 9.929947589970869 -2.149806825263278 2.059569588942576 -1.1862411783763829
Ni 1.7888226139475552 4.1884485729325585 2.1272721790569533 -0.5326310164435665 -0.5060962033778316 1.03599156605779
Ni 5.414470110477194 5.786319836214957 2.4811911857483424 -1.4949357943401675 -0.27023399799474107 -0.17509855304147262
Ni 0.20354378331270204 8.033707138285086 11.986814908764028 -0.28539167957178596 -1.373567126721983 1.2704700037194765
Ni 7.657911642621245 6.820010383260141 10.593053081126394 -0.983609195801332 0.9029398056747224 -0.05885255136183412
Ni 1.8164154106334314 8.713354511053796 2.5129872851293675 1.7976148002374912 -0.04765771108727922 1.461528422524315
Ni 5.580109668982509 2.441502626755268 7.23806884584785 0.06499183149035258 -0.8429387425307417 -0.7446729794786078
Ni 1.3586325184169565 1.3528012407173415 10.289763177314029 0.3875999722114357 -0.36480534291442335 -0.9492494873745392
Ni 4.544266883795825 8.409327879569917 12.598160912136297 0.5902435247507125 -1.5467846606906586 -0.7728340152938561
Ni 4.608135010524734 4.541047724182474 7.567326330621293 -0.0915973498930229 -0.5992313300716197 1.2718594278678355
Ni 4.520895785002889 8.695474378801347 2.896563029698736 0.7447118031363433 1.9474558642637558 -2.1819271028365907
Ni 4.701030759367183 7.2391817553141795 10.26690530453945 0.945121838359411 -0.3072882225345611 -0.10048822462474952
Ni 2.5600136885211056 6.9817869502294325 11.375765068076186 0.12876238897909437 -0.19317726492005438 -0.4428208403579535
Ni 3.146894078831899 2.0366151257856178 3.2084416513595246 -0.6202783805499059 -0.09967369914325414 0.11784394229437768
Ni 0.8266498366324927 0.3068521338645116 7.812664003314201 -0.46230645988639096 -1.8208071791935545 0.9272495860646806
Ni 3.981907292139881 2.450157567315738 11.224268657392164 -0.5059645628959738 -1.1294136278643776 0.8179689599592814
Ni 3.569348993691557 0.10190019816094034 10.560933226264254 -1.0316142629257008 0.5959472600037091 1.0740189531441569
Ni 5.174192036936587 0.10954432260281755 6.815051037935799 -0.33221686745544077 -0.14175854412844618 0.02888017336945994
P 5.645348237946815 1.8282067324171958 12.601849149293312 -0.01305117675700333 -1.0857884349752591 0.24078946748137883
P 1.2946632181002007 2.299326143031844 7.81075274226376 -0.660977658041481 0.7972268423159238 1.0757323362908378
P 6.532309489815407 0.6899716775286742 2.900574102576973 0.6125699561620548 1.1503663188566446 -1.3913450195306942
P 0.9416225821033116 1.5777101265039173 2.8676742913285134 0.5871150064240599 0.49246601418890673 0.6209638366527048
P 8.010014123530814 1.7210639028859391 10.231446721278319 -0.032568677964640684 -0.5201238851154913 1.5495817638198215
P 2.3614651211684365 1.0265991982969147 12.419511349993595 -0.4473858340208166 -0.15500692449792014 0.30296388412759434
P 1.3773036441743995 8.104409080993197 9.711855964485482 2.780891809510385 -1.0489316711582257 -0.227163392057512
P 8.632535209560864 4.393012369962748 0.9202280473129728 1.2352533466090274 0.18528552087680347 -0.26268318223067666
