# total energy = -381163.8112364154 ev
CRYSTAL
PRIMVEC
9.28831706449814 0.00000000000000 0.00000000000000
0.00000000000000 9.28831706449814 0.00000000000000
0.00000000000000 0.00000000000000 13.59439090136670
PRIMCOORD
 96 1
Ni 6.650945687995871 7.037850524402946 13.17666164470238 -2.5733281939616712 -0.23904625953802705 -0.4657872193461397
Ni 0.7389933461117544 1.1102696606669857 1.5060949965311572 -0.7801431473607596 1.4780637011751772 1.227614342006531
Ni 6.638666533183 9.385193946724298 12.430316595841466 1.8380415407939699 -0.912716425445512 -1.3104491152155753
Ni 5.442582113577953 2.73181471972618 9.60440936924286 1.2552375030404381 -0.3045425414686239 1.2961766644569612
Ni 7.624129080975136 2.6274140388663665 8.381634971305903 0.07020114360543393 0.16009333788189203 0.5889482029780566
Ni 1.6408554696915387 5.417810172665752 5.592148163721478 2.0505275333449653 0.6267215650720883 -0.6499831067031903
Ni 4.7955486768007765 8.666891255121737 4.734314519448784 0.3984178887625461 1.5083065592201186 -1.8912502636064654
Ni 8.668674611947813 7.411556662633704 12.455044881664696 2.632473593973576 -0.8688212667244585 -2.7080707117836007
Ni 7.631624752634733 1.7283607022876506 2.9761931212943247 1.2444411837558826 -0.03572265021259009 -1.1172088582680695
Ni 1.059378972906228 2.232939224265275 8.894115993219073 -0.9554088221077159 1.1236075627055617 -0.1072042031923444
Ni 2.2971772232711887 0.7303236312083247 13.128742289486734 0.14762477310123606 0.6074652879456377 -1.6197443408778363
Ni 1.680739502041364 3.0215266091121613 12.503494599769763 2.1148218245476613 -0.46577796337475913 1.6210455761877631
Ni 8.824467549675717 8.607715388773173 10.099150634894984 0.7655102279389332 -1.2387127659125376 0.553524314952808
Ni 3.494013996537236 2.4659923811561626 2.1670952752842134 0.8341486550429377 -2.633719036344903 0.43943983970086253
Ni 6.120935754613073 2.9174045777564226 1.4770708641867847 -0.49324557266740854 -0.3589550547812334 -0.7498815202627409
Ni 3.161863787680749 5.010861148598938 13.309628543888204 0.2830818004916867 0.4963357815569581 0.2681670881633833
Ni 9.06310298496489 0.9468603031610521 12.987374107753071 0.34563468352324345 0.10955033482701779 -1.3167118082958356
Ni 8.467647571391858 3.1861620244360216 0.7368226664750162 1.1188443369889636 0.4872988681656705 -0.011177099662742041
Ni 3.904641194057831 2.386995246751117 5.4215245705550625 -0.12787561549876686 -0.44840476220363423 -0.5399925990149603
Ni 5.137293716914221 8.077872645092818 11.009308154211059 -1.4046049698643939 -1.732543778769771 0.8497897040143042
Ni 6.220850178457289 7.939095903747046 6.342653449678219 -0.21072504399583064 -0.3754430251339276 0.6714045098017599
Ni 4.876384897932712 9.205938720753345 0.2596483943914127 -0.9438332014549745 -0.3270710615884432 0.37863247860550275
Ni 4.924591262137555 1.4070313825060459 11.709351872643316 -1.4332290613589898 0.47095307981779533 -0.10947088773933406
Ni 1.1895733095265129 1.675064340475052 6.263166820977683 1.1130886654521088 -1.1592178557100037 1.1557813192246287
P 7.273885230987427 0.9456713986103353 0.6710855331371831 -0.2835168311465762 2.2248562980999487 1.6182096494008644
Ni 8.382046443740252 6.221063809743747 7.402961254264695 -0.24897740260880993 -1.2882347839020651 1.0745961658038654
P 2.4177953052681223 3.1589286795711664 7.640550825081911 1.0178274935542537 0.43652420871596437 -1.0595762953562653
Ni 1.8647224812647787 7.726922883028121 3.7008685270550643 0.2977342602975388 -1.1334456318419062 0.3047873104895783
P 4.124830032177291 3.198747693703375 0.23321756009829125 0.557069351991589 -0.8267143102520795 -0.19779548041835612
P 1.861127902662221 5.600594959021648 3.232745719695472 -0.13064829314789755 -0.4915021076137406 0.18194360098776405
P 0.40003387220737263 5.045618030073798 13.587702172320686 -0.08844749141013154 -0.872543452771052 -0.4492316289803038
Ni 8.960606409049586 6.21266717135431 5.1301965140454495 -1.6486515108304896 -0.2907148915569122 -1.5117734347227965
Ni 8.036223832550522 8.31935030532355 0.6778028438487328 -1.5353939023552137 1.1308261919411882 -0.012070043790656633
Ni 7.890304375583647 4.965849965374147 12.252420250618714 0.17747990878945566 0.17588171106440031 1.0674276730798842
Ni 1.8315260370127349 8.184688288321274 6.292164017203329 -3.29909482345408 -2.306289048755144 -0.25365038260444706
Ni 6.082835079089321 7.903215135939087 2.200130102823894 1.122912079300434 0.3186195883869803 0.50214210382609
Ni 4.157283411085137 6.884546855578105 3.322006444167252 -0.5857453797700428 -0.5315295558492718 -1.3243672679585643
Ni 7.485538105965414 4.21018037527523 3.926318267811446 0.8182188711865587 1.2240667338645885 0.22183683763827602
Ni 8.056128695458225 1.5750756100964143 10.698200627070577 -0.5087248992499304 -0.9705922147163735 -0.6338170384662891
Ni 6.672271663374352 4.707272513910059 8.782560521926312 0.46360126743841445 1.1807415887143922 -0.27048005256727614
Ni 7.061767940169318 6.401498651948616 10.61012230532775 -0.7548843727939709 -0.19812946671900716 1.9824092404104892
Ni 2.200522998624639 8.78438846267304 1.3380581995942307 1.959741623609644 -1.4485088703361957 1.5824507466337003
Ni 5.108797160964229 2.1477932241369913 7.411526011188256 -0.11895157353625965 -0.003145230497201035 -0.7026272152614674
Ni 3.471489828291236 3.1890321143279863 10.76848346265154 -0.13740618069702143 -1.5337157433218425 -0.6747330599543605
Ni 9.125836276648805 5.498135536373553 10.035079825591515 -0.18622808729573087 0.5828737146492027 -0.8915079096886969
Ni 6.990071422771017 7.516263857947999 8.79103053801849 0.3297745765625353 1.1378800134641758 -1.3950306959123975
Ni 5.3419617776567465 1.4267040374936866 3.3797695575301607 -0.7929631819435634 -2.4216125386205136 0.0686970482560817
Ni 1.773306867294825 3.5476726027051315 1.217710407616249 -1.764025137207504 0.2719412104938349 -0.7203457155871529
Ni 5.394998066598876 3.569620895309379 3.570185624970969 -2.163971803909751 1.2569943378305448 1.7168129982980755
Ni 0.9795273133553548 4.820227734544951 7.746708855480752 -0.1142593102669129 -0.7873640905892311 0.8155076429029827
Ni 0.07863303238638855 3.414533869658462 2.828530247263626 0.9531624492757004 0.38145606409722693 1.20275948774638
Ni 5.756202130413503 6.035288185377455 5.030944347189248 2.4674357676022147 -0.3389559859514872 -3.9418886114976823
Ni 1.5970796326014762 6.497038278578869 1.0201636993661807 0.2773238149619869 -0.30885428147010036 0.6156925609514364
Ni 4.438124957924757 6.73791219821744 0.8912771577516841 -0.5545545559895353 0.4175512671578874 -0.31140712979894114
Ni 2.4336040204659337 7.572588211038205 10.07650200320383 0.03830712311031467 0.21033449342563132 -1.0670255525454593
Ni 3.650410674857302 6.975934604597652 5.521960068971899 -0.9963886069541873 -0.6342343285093658 1.3497247728867463
P 0.7029658228983163 7.473593330557431 8.274430147603422 0.41140941592620756 0.26255462707261235 0.038416652104985446
Ni 0.12008214611743095 3.444767340850517 11.224724655157408 -0.6622020173668853 -0.03837859977819842 -1.532906874267302
P 0.4858820690859233 1.7029385791992782 4.167755059448247 -0.15208589419638324 1.2349535559804214 -0.7024333540831064
Ni 4.946855357513086 4.155351441190223 11.988702644636136 1.2350535718933955 -0.3060026709539182 -1.201281617649273
P 3.7518762476075334 5.9329587991645925 11.049425323312626 0.7767464629743849 -0.12521375239588756 0.2386461958861309
P 6.080587306423123 2.4275015963267084 5.319362374044645 0.30353184081592244 -1.0358946354686096 -0.07289977348351961
P 6.17535600275877 0.25257534114632835 10.133027912768648 1.159526645199674 1.902142999259569 -0.7113849068494393
Ni 6.434063490658092 0.3151665215831632 7.968719132525178 0.23548271055648476 1.0731977427944421 0.6958808976765692
Ni 2.0678579697348956 4.688528690602666 10.272805005834046 -0.4733416346546299 0.009488913327041723 -2.9718448130856108
Ni 2.25833348240324 3.4178126454897355 4.203453776246877 -0.5389924398852202 0.400239258242001 -1.003726535376497
Ni 8.815104926338822 0.7028878010371756 8.177977479431487 1.4496049316138517 -2.283812722029499 1.1733926045484888
Ni 7.1133738283238666 3.9568322461709355 6.346826690417571 0.13318931440219642 0.7314071156076372 0.4004878839176974
Ni 4.3590442286684885 4.3259499559012715 8.217699895068948 -1.2377010368185717 -0.43942107064778513 -0.45141115313012575
Ni 8.521046104689283 5.713169358667639 1.8594002757369608 -0.06468407044194666 -0.7486910994990655 -0.6351393568221385
Ni 3.2005310505294498 7.692407497790126 12.625953626156948 1.8210444920153412 -0.14887047258287908 0.7851804526743509
Ni 0.21220552982773344 3.5566636933699267 5.516685233859774 -1.4832408745007424 1.0448808981276199 -0.2621702471500001
Ni 6.926530047525289 2.575622384375769 12.819876962022368 -0.8099661442594632 0.39775480125725043 -1.9971545170404634
Ni 2.2116875554212134 0.10463288877987514 8.225109185382282 -1.9113251799794697 -0.44791959503709955 0.23710584798220458
Ni 8.444148129881597 8.131178295222218 6.290532059941134 0.13710793273031224 1.3892958503111494 2.235253582173873
Ni 9.283106056748302 8.993347725778309 4.562848475948384 1.6528503794031857 0.4767457752401725 -1.709082205312721
Ni 3.9989268979197496 4.63343968364719 5.579232759207637 -0.46149167729457946 0.03792917094560565 0.46360846652726606
Ni 3.319198585997864 0.3554062964665234 6.14592875746517 1.9459674526436874 1.0728200477400491 0.9439946667335033
Ni 5.771546429771191 5.264320737504862 2.1905324850718975 1.7111825394851754 1.7959140154963007 2.185922340038913
Ni 2.437579420057393 0.6757222608849784 3.9335910198677837 0.5432663846702257 0.8497277404281172 -0.5937631078681969
Ni 3.8968390079437527 0.8615433980036028 9.361070330324914 2.3917949410384485 0.21012623406956715 0.4168285300592498
Ni 4.4082444427711955 8.260480953429466 7.872389070135035 -0.7367048736714668 1.1180439525748551 -0.7644434772373158
Ni 5.98883731304828 5.007610237718072 0.09796945030577994 0.6977128086789856 -0.913844368402368 -0.45090567424861705
Ni 3.534622517597655 4.711145742016691 2.163588006859599 0.317935160725446 1.5354036725472267 0.5951067663802848
Ni 2.115934297504504 1.3973529563978673 10.618442779519407 -1.0775873872217054 -1.618450047546445 1.8115758904032737
Ni 7.065613303325542 0.19372828121257094 4.596576211921529 -1.237093999362192 -0.785804459411595 0.23741489458219112
Ni -0.017814062795465824 8.067729803144516 2.220317330562392 1.85761663471242 -0.5151608846832612 3.147694128250179
Ni 7.918884526384861 1.4060096676577736 6.389920765054332 -0.6508549677851824 1.429538756991596 -2.458974267098423
P 5.326283098894169 5.945804541302415 6.958465138355558 -0.5912349421297043 -0.30793588342088896 2.82939258532425
Ni 1.662004967050773 6.0126897105970345 11.919792622278578 -2.854892015146935 0.8624711561367145 1.0294247114735495
P 1.3986347441166087 8.238003226767477 11.860697564286195 -2.290703278501745 2.185572927119294 -0.20194164137624576
Ni 4.939248226051859 6.518930841282301 9.10288577466157 -0.4823417812707112 -1.4928233759828549 1.6339070055314633
P 7.576721512015306 6.751853961737954 3.4659447031601585 -0.4249928110375971 -0.004355705865534434 0.4784702141304469
P 4.204718844995375 9.104909698892829 2.3336543010178663 -0.8822118290987517 -0.23057576017317066 0.9037838988425724
P 7.37032582434752 3.6399613184545183 10.57033208497763 -0.9451133537189789 0.5663554052792054 -0.37304521432571236
Ni 2.8984749881129797 6.268248459100318 7.7066195513295925 -0.6697178661279563 0.3244277104283251 0.27175686239717073
