# total energy = -381165.86191841296 ev
CRYSTAL
PRIMVEC
9.24997536543016 0.00000000000000 0.00000000000000

0.00000000000000 9.24997536543016 0.00000000000000

0.00000000000000 0.00000000000000 13.53827394915621

PRIMCOORD
 96 1
Ni 4.593824467244254 1.57438279048799 6.179518127489763 1.9806459778624794 -0.24002919227658662 0.11457452751448656
Ni 9.088146950532318 3.2162349005796287 9.481774098070225 -0.3214506300778722 -0.27902254282064853 0.9962492531628455
Ni 5.485762582421305 0.5652780135857483 0.2603137289851711 0.4738586835003645 -0.9278273129450214 0.5690170112717684
Ni 4.84807853743146 2.8246279476402174 2.755323432943429 -2.1001544523434736 0.8371578741829065 1.024988272968751
Ni 0.9013268400739126 7.7991813969088986 9.939855073274465 2.250782016826775 0.37687615803602836 0.33169364796211903
Ni 6.987718066562082 2.081309185091603 10.007681441923452 -1.0102859337615697 -0.6278021997307769 0.6253725072433617
Ni 1.7635170347895803 8.043861742693887 0.7890543402629386 0.913172282036008 0.10343625150947992 1.499854057577391
Ni 5.634289435297065 8.936382606312813 10.95755400219806 -0.810285989492727 -0.21444157361546937 -0.17340368183755298
Ni 0.5081538663216556 5.70897373560963 5.993407700103229 -3.407767897882467 -1.3864432113537026 -0.24262780624169825
Ni 2.4045403208511167 1.0148147866350814 5.7669664555513735 -1.7163008345483475 -0.4365170096271127 1.5481540302343595
Ni 6.606054837035603 3.486334178400651 4.2128531358678085 0.9486853873409533 1.5530283276075254 0.32429144196077697
Ni 8.982900731934796 4.355064105630684 12.178435112862518 0.14748670486147503 0.9235487401743255 -0.3801388879477002
Ni 1.1470246831383646 0.20229695910773154 3.7567488803783067 0.4773872654789133 -0.2913116446006467 -1.0014302831431527
Ni 0.9500742097354464 3.1486545812727655 0.4617014155240737 0.8271737663870014 0.8081964539535499 -0.12002346644419976
Ni 5.532530457375521 7.014080496075436 8.275946397156654 -0.6841252998025379 0.09450063958274693 2.446589520280825
Ni 4.420627930329157 3.783952132643507 10.441962230763531 1.854996937701386 2.1643867799599823 0.7072279472582723
Ni 0.43344736606844647 9.184106193960922 11.97647115286443 0.016741738234713102 -0.9725624510688669 -0.30935718924844785
Ni 5.994002473512952 1.3887912867139833 4.121916629009641 -2.307484354614826 -0.9948919678040028 -0.7201719090134501
Ni 7.629490600620314 6.413775601142945 0.946254894947354 1.8806048680774774 2.9507597102805376 2.722351904292963
Ni 8.378350098354366 6.727895511263634 10.926903284150534 0.6016620510002992 -3.408630502993078 0.7214160658331963
Ni 6.02467539150112 0.33119443946760024 8.080075395867494 0.7287485949388675 -0.04861081902916789 0.10231627897242378
Ni 7.140592407813728 5.171318923166242 7.537407096828935 -0.501232190417311 -0.0951963800981909 0.8267019689569054
Ni 1.9158641274509587 6.499652371529603 7.729555908070316 -1.84577130533806 1.3052367177767004 4.734004614949602
Ni 8.864982047220332 7.556073546919443 2.596898181533551 0.4435160666527652 0.10528487468244448 0.13679734346842892
P 0.1768262272101984 0.1446085633523004 5.618126028514035 -0.1899523302248535 -2.2549312631084586 2.546371719977486
Ni 3.566744213404012 9.157031516351946 1.8145889232359234 0.9013817171589831 -0.44815253698351204 0.5566258366962672
P 3.190390469681274 2.0020091471203827 1.8595225280945253 -0.418450381933389 0.7686405460377987 0.3211780931427759
Ni 6.892582070932315 5.247760718779699 13.045602719269812 -2.224994623450026 -1.5182783257208496 -3.686722306469341
P 7.972470433576673 5.346975953502586 3.893661464307762 -0.7938113888764716 1.1417356397648402 -0.7560272281491623
P 7.122601205917772 3.146175587900984 12.502067697548657 -0.0813389053898083 -0.019911394211946355 -0.6215063394197361
P 2.5898728253176238 1.8790122259838713 8.318714582805056 1.4954749546730892 -0.5832084722808021 0.6200747491795321
Ni 8.5319181877511 7.378289022271495 5.114299300622676 -0.10069108466417499 0.8764777548284517 -1.0837860598332496
Ni 2.385170872640253 4.354250107807114 2.4083096857727626 0.09673312845769147 -1.6139369901674396 -0.08779803075159072
Ni 2.8240821990994145 8.817575923972635 11.403274235451882 -0.13421672722544628 0.1698463035035978 -1.3127312263815325
Ni 0.6192053693972743 2.003581642915916 7.376747976391872 -0.6273162612332938 -1.2271739120350027 -0.47959610020477406
Ni 5.48085084555408 3.8914368452558454 0.8665885579555274 2.0232815531448187 0.7678458180506454 -0.5782333876637138
Ni 2.5865335842459323 3.9806066068378545 9.177906860536414 0.44284038074197923 -1.0879211650475458 0.5048080806940274
Ni 4.515819425810531 6.061157293957494 12.077561357574108 2.1091481712016518 0.08985337061872267 -1.1673196588815316
Ni 5.246345472563719 6.927149228508245 0.9276911195823194 1.7956340223620366 0.5229700963150348 -0.6318267475091376
Ni 0.9530064518953527 4.266338342861531 7.756008987341294 -0.9654412666430534 -0.1720245421018392 -2.2978902831684875
Ni 9.020733130780275 8.312360774793573 8.0391895801861 0.06458739696308231 0.7950020667504631 -2.4792358455609365
Ni 5.070595942474698 2.2286057912567383 12.254114710513905 0.8943178683336662 -0.03507293244373314 -1.2137033883523936
Ni 2.244265999385197 6.387570421209146 12.38738557918041 -1.8390064758104003 1.8178565812056628 -1.2793580502377258
Ni 2.732350194368213 1.1789370978124238 13.202646024374676 0.1099462847138558 -1.2607700028228932 -0.9116972401523782
Ni 0.9120623613697715 5.89828372944131 3.630085269045622 -0.17039292003568718 -1.8317857896922454 0.1321590733654692
Ni 7.308303709394994 7.931067544277807 12.444909325376074 -0.9404843395873995 -0.2823189541837331 1.1023070014555727
Ni 6.032621120256198 2.967540065528395 7.931492118142601 0.1842812479820052 -0.27616064789182115 0.5109761571779522
Ni 3.0753207773493045 3.16695103235256 6.723688622511818 -0.4155108396890908 1.1582719468569664 -0.48236440697853056
Ni 1.7516770664467414 7.532911608848763 5.536151822692881 -0.45929235565041543 2.612380679878443 -0.8446541825599517
Ni 6.999373035399565 4.406521718045696 10.369423924713105 0.022973578077037853 1.007791192364174 0.2488187655437586
Ni 2.647842420321197 5.476910356089979 6.083044585436264 3.4381876478249045 -2.3468271180785067 -2.3773350568593763
Ni 0.9281332684001223 5.631375693087693 1.0062067596508264 -0.5663212096071601 0.5336088069758037 -0.37256107560044227
Ni 3.578306682488816 3.186588729846191 0.15555313408921256 -1.7804192622948112 -0.972256232682358 -0.8448747832111901
Ni 7.8417867829925845 8.583403550091916 9.976854974345839 -1.5993809467301359 2.06945548059772 0.45162892556788664
Ni 4.207952498970905 6.7265172649487255 4.655704026793544 -0.4319013652319723 0.9128586074503312 -0.38814504608162825
Ni 3.9487034421390628 8.114910802726191 13.228436805416477 -0.8604222440274858 0.37007173351968525 -1.054922598634338
P 1.4682023243884175 3.9101402952474245 5.1429732989554635 -0.8628424234332044 -0.15372882911644492 -0.16678540519008694
Ni 1.3839165497478298 1.0199392729334664 1.5312732807522067 -0.29432729149851894 -1.2865774508043002 0.1131982159922502
P 0.3873547393087836 7.348087853021988 13.084173266141667 -3.0811840603430873 -1.484797163244269 -0.9615524731116085
Ni 0.4540775859083172 2.1929101366981314 11.921059176022414 0.36554119263918333 0.28562564995946294 -0.5903116589844866
P 2.081891933533477 7.5653975219894285 3.4115092784640133 1.285064870814516 1.266010425286226 -1.1360419318141726
P 6.117508143289195 6.679425640860136 10.436898794301916 -0.3971778457078579 0.056537272965096176 0.4115485126072332
P 6.406070371744832 8.760947575382898 2.095805746331367 -0.07926351091801834 0.01684355391990002 -1.4669801896675059
Ni 8.056719208316188 3.2177056466472154 6.396116473359106 -1.0003540193598386 0.8120312543186079 0.6224134246150377
Ni 3.4464205351199073 6.428335062214531 2.2534456748410046 -0.11800000825626775 0.45839864019155246 0.880413085327116
Ni 7.100762014310395 0.5303760069051222 5.7728013399503295 1.5210458611636577 -0.18320369864711028 1.8548524417037218
Ni 1.170001621703687 1.1225492485796515 9.728657787964014 -0.5629708050776885 -1.044104939193544 0.5816565544126499
Ni 2.279767404463179 4.255515871798155 11.601569655258745 -0.42797091982931457 0.19235759723223647 0.3988164097525454
Ni 3.410179132020498 5.259526687320395 0.3144492092402236 0.2612161107668469 1.163853297599486 0.9830744063437844
Ni 9.137902567498045 3.665820698497881 3.2384496411828807 1.9773554800366657 -0.5100274201114378 1.7498547592443927
Ni 4.20527000614323 5.1423387506520895 7.982694431240221 0.8230234916640536 -0.7590966111031056 -1.0913553875400752
Ni 8.110785313756733 4.132343201131555 1.4149529917640242 -1.4323008931177654 -0.006980287972575075 -2.1008581632787173
Ni 2.0056813873017165 9.100366167861138 7.644616160178292 -0.28570483993683055 -0.7066047118519766 0.9780730964744511
Ni 6.986376820148245 7.532819109096084 6.787725276293571 0.2955943311364006 0.6669942965492061 -0.5654861153003744
Ni 6.310795626486047 5.768210577224899 5.279791533137186 0.4316013174930502 0.3625746538116917 -0.6733372080480985
Ni 3.6108110955800172 -0.11452301879364031 4.2922419736016 0.633734763165128 -0.25550517642499865 -1.0807418736902872
Ni 2.5080012942219434 2.4242520181468903 4.141588551411764 0.7811715886252739 0.3288736620148207 -2.4120518915152713
Ni 6.647975724949468 2.0322473162709622 1.8761743335716967 2.1786062659934737 -1.053878987861172 -0.8174660521809342
Ni 5.80341598309431 5.593173295231501 2.5762522367357246 0.975489909128307 -0.9352359467042668 2.064461626927554
Ni 7.473286268272245 0.9998113267506396 12.079525127323471 -0.05455855197217055 0.9056152956243564 0.6182482374937546
Ni 6.331016072421552 7.936525029685835 4.107471867631378 -0.46607209757641016 -0.3889955670073817 -0.4682248822533549
Ni 8.318900507307939 9.092901437819988 0.7564130275377734 -0.1349777737611869 0.7485733429742786 0.46914148053035337
Ni 4.014702015675124 4.4488033549950075 4.299999002861213 0.6639889340639791 -0.4858168843035052 0.652180114354509
Ni 2.8946502604177904 2.1877116505976035 10.949687823230287 -0.3874937856508746 -1.3779482865088142 0.7936049292926204
Ni 4.603712690805578 1.8288311101558217 9.38114361713136 -0.553180558460144 -1.5609121012309761 -0.45336364887080627
Ni 0.9064217264514407 5.427062239371572 9.697370671618062 -0.9606546438876874 0.9569100892435908 1.9052560909672542
Ni 3.503132133487054 6.279521460105468 9.909136830407485 -0.41370386838733914 0.4404070887101383 0.3840171399561838
Ni 9.07754647887537 1.9525587793384926 4.878909629996708 0.4971158542560923 2.016149827196044 -0.8544097192848188
P 5.131377529959695 8.72684291657036 5.749285127826892 0.45020787685064395 -0.3832404096911593 1.3675903403132577
Ni 3.9255970039199903 8.754361592992195 8.968781569685962 -0.40122424786308963 -0.11100120834093141 0.9608289646820228
P 8.91002017679946 6.203930662216654 7.970401214109257 0.24438155570801137 -0.3649177001225716 0.7455558963041934
Ni 3.613234589100192 7.503487437521754 6.879189956739531 3.1826418479699576 1.2297002780012822 -0.22430149712868466
P 8.89788420924805 2.0140156150180433 1.7628325366197601 -2.2467024474407626 0.3003832678846117 0.5665299831838566
P 5.66162311221354 3.997774560934971 6.180925973725528 -1.221566336040238 -0.8440484306551528 -0.4250691728014873
P 8.396193300646036 1.0819788570548912 8.806200304388241 -0.4034631644959374 0.7888391324728609 -0.7276219375335921
Ni 7.907184108136235 0.3991077578841053 3.4840337095515386 1.3978668798096119 -0.08311862299805041 -1.4124617469046514
