# total energy = -340898.1735937268 ev
CRYSTAL
PRIMVEC
8.98310586342856 0.00000000000000 0.00000000000000

0.00000000000000 8.98310586342856 0.00000000000000

0.00000000000000 0.00000000000000 13.14768345738803

PRIMCOORD
 96 1
Ni 6.283233428678478 1.9818438427358882 11.3222986040407 0.8416796733126602 -0.00944031947729342 0.6661450611750334
Ni 4.679425631948845 0.13231396356807637 5.973728599348244 -0.3479147378066718 0.8265914115209698 -0.31020976705673026
Ni 2.7167786865424106 1.5607877025271277 4.873978146503063 0.5559702053901392 0.18829268313424344 0.24851563248104291
Ni 3.4439970423723305 4.321026655461627 4.82208364197217 -0.018108793785568813 -0.06438685091650201 0.27583823155539594
Ni 4.961917363497423 4.554569442907167 2.5200037515860854 0.06746523273150963 0.102492656649288 0.1584051515461917
Ni 7.277672236010146 6.122911937504519 2.60475306767184 0.19284199306782274 -0.34919848961510186 -0.25112247397627074
Ni 5.010102743598118 4.385049251281473 11.457127837263547 0.7372324640401626 0.5263582960609774 -0.12213537058087999
Ni 5.519651460125289 7.79577286936354 12.395491402573857 -0.8816194469303913 0.4402710773529063 -0.294977266377692
Ni 1.97106411564401 6.166111693825221 0.2776839732655992 -0.085247239305279 1.3672478693721741 -0.01576471903342446
Ni 2.670264164140957 1.6825357369239813 0.3582516535502965 0.2859961459250042 -1.1794737777455622 0.16887236962610272
Ni 0.7284220920218462 0.12639769001581727 4.668663871068787 -1.2915054842335372 -0.6235801912296293 0.18736888576839345
Ni 8.290113187585252 2.420911110293995 1.4124424881522464 1.1611055596510198 0.04873757441501929 -0.14565119431463303
Ni 6.819390104910767 0.6916560361538138 4.682126851895952 0.522716585543332 -0.037159382659116655 0.7492626557318193
Ni 0.7929163009019622 7.2238903809275845 2.3483473773750174 0.30113248734581044 0.3972907171366384 -0.09368328588777414
Ni 7.6351190032709155 3.827575664724995 3.776737573449106 0.022100945664097423 -0.7522469351711238 -0.5536217597626207
Ni 7.529720221630077 3.9611813989229145 12.681506308260296 -0.16757164853680817 -0.6174900191714914 -1.149515283710259
Ni 8.059004821841294 8.981174542127832 6.874989242318901 -0.5317532418243036 -0.5998679352143539 -0.5978411345923124
Ni 6.726118516248291 0.6363973584596644 0.2304040902406216 0.09928032035957741 -0.10294079993030014 0.9505522653463628
Ni 2.022222903800882 6.46435081003385 8.974884571369719 -0.7296040009606274 0.2342223557868224 1.310448086774311
Ni 0.16993431280814014 4.895289666963706 1.254194297822293 -0.43668104600880275 -0.4121264965978902 1.1389480497173738
Ni 6.439485572875252 1.891078540622274 6.96493259024176 -0.12449821438610169 0.6155061559722432 0.2110142931014753
Ni 3.2484887253493007 4.103042607452031 0.22021275658584183 0.5579278433371424 0.11228238904620017 0.6928441677327746
Ni 6.023450988870123 5.621340219025339 4.607855430543503 0.11617426790143864 -0.741164452104717 1.4433355536653723
Ni 5.131940609054071 2.780361110172672 9.398476642376844 0.2160605972761311 0.3144436026324197 -0.9363173526939036
P 0.05842791745916156 5.653661434089154 12.34950059524695 0.38732049329780394 -0.12410277871989593 -0.12882615233749425
P 3.9915263306865514 6.048729448900578 12.474416971098224 0.24476362163777848 0.12807050511839232 1.0759439380810114
P 2.4180454995087373 8.451961806763892 1.3576688981772314 -0.6083618316179781 -0.36846248005103643 -0.059291952892097884
P 6.438093191459217 7.749644620516212 5.806543116948533 0.10365890904324727 -0.3300964786783283 0.09034239443999925
P 4.617208640416889 1.044905896333479 12.512427187134778 0.17703613638381768 -0.6499370839566032 0.12411717689759914
P 4.050239910913648 6.155538578169271 8.186010668127212 -0.34406913880833645 -0.2576168234513627 -0.5631242999364172
P 4.664154351902018 1.0297334304516603 3.805320918143812 -0.2794102651773704 -0.8626153950240628 0.15281608749418843
P 0.27766960029614335 5.466588253515518 3.507854349043435 0.1979857420522913 -0.2614333689839756 0.4869337715167679
Ni 1.3426509417170633 1.0673995935318645 2.5171111914830977 0.49106399163505754 0.8850768093513723 -0.5570356705401761
Ni 1.7806941352014416 6.59440821739736 4.752098958759925 0.341590852471173 -0.6101464343222266 -0.14983489337867745
Ni 5.994938610712105 5.526164211909965 9.049932133072785 -0.5218411249169141 0.6363331200199235 1.4601875922257046
Ni 8.51228336294886 2.389074982949315 10.188035058289687 0.6900545208027793 0.06871324620599778 0.45996778445088526
Ni 2.2179917308952986 5.349421603132712 6.825277632524114 -0.08397737145391988 -1.1792588335212788 0.5436505074825217
Ni 0.6316695498192849 9.057665688950616 9.00989712496414 -0.11350212038591419 -0.5405998935816562 1.519312423412319
Ni 1.4193127675521366 1.050646101009904 11.279739343171372 -0.5320391484958386 0.5046540716146664 0.4967412445254929
Ni 4.157839553502412 6.867027515550958 1.5958523581358253 -0.8030853579792299 -0.23446121127050587 -0.041671411596857263
Ni 5.6912108167925295 7.820665055839868 8.00757025233299 -0.6367578662621679 0.1962808435460426 -0.4446692064206019
Ni 5.351191274996962 2.8049029555185148 4.740410141349964 -0.14025624855130683 0.7740457762137701 0.3654774292807835
Ni 0.8666199899609061 7.474815478308778 7.068877905346377 -0.30707533519280666 -0.42077594474277213 -0.6496411499827393
Ni 4.893079822909871 4.394256934839119 7.143741313378288 0.8427304831746777 0.4430028744617725 -0.9056353502290145
Ni 8.010531982351482 7.391083948122614 8.907305563920145 -0.056082444815864704 -1.03828678984987 0.7485275773380077
Ni 4.6264881888218135 0.36209372794796 10.310820641419134 -0.07632036912929437 -0.7785788881974334 0.6350254569520934
Ni 8.261600809427234 7.047848454411304 4.71669204681606 -0.3054187734259901 0.9489011028961851 0.2612834736696726
Ni 7.149276703239967 6.007209533385026 6.9765288816608475 -0.004722088066017673 -0.03735427227874212 -0.6193340143587657
Ni 2.515853556655712 5.165016405014317 2.4684910290563633 -0.7734893894896678 -0.2545842072726261 0.49206955008143644
Ni 2.4269387743595368 5.143394069089192 11.206967202195285 -0.5705527311900045 0.1520182741832414 -0.022534433657090222
Ni 1.2780354609071638 3.4146851677883316 3.864511501294724 -0.6400010557898139 -0.06976482739896371 -0.35264556762343785
Ni 3.6001144399804557 2.633765804829039 2.747984199852216 -0.4973786209991757 -0.021706024218523908 -0.6451455761052309
Ni 1.0626115980818887 3.250743484932685 8.252525177526463 0.09095868786775949 0.7026151310766092 -0.6205234066811764
Ni 3.601973942903805 2.486388969271245 7.179831839681896 -0.4785105804500791 0.42061165125076594 -0.9204891274123953
Ni 4.0888582832203015 6.723926638406275 6.010056279647874 0.39197804667447333 0.2318877941163748 -0.1985624404913677
Ni 0.8625991517556356 7.29412928603708 11.162331047239592 -0.06265032784136952 0.04598032338485629 0.0326254993445051
P 0.09844316273480425 5.620980894788943 8.083800889084387 0.6326088770908008 -0.04160533424561222 -0.7574619037131599
P 8.504450094595429 1.7077423321071563 8.06831221787454 -0.9664864200781161 0.1612631898202771 -0.37935701547635314
P 1.7547329591218355 3.2887240567197358 10.33439500625848 -0.2932188889256886 -1.1121481559157105 0.10988637801019785
P 4.05542316302366 6.169857648989649 3.8232538924717425 -1.1332970220791836 -0.36398361834407633 -0.7406551165684664
P 6.891111222495396 3.8764617270866624 10.331015561815178 -0.8735338417087795 1.0020236937527776 0.6636215234222312
P 6.165976947236572 7.718149851196107 10.243294634294427 1.1189582368590083 -0.442649861997728 -0.12520552486577147
P 2.4219262012618135 8.429611839260065 5.792474674783041 0.6827168494907855 0.22200704466755314 0.4427766173835794
P 6.813847528564359 4.053222302075734 1.611630285355971 0.1078498071961433 -0.2868376679896931 0.3296365083227742
Ni 5.285138497241479 2.8050197358953435 0.4170442851093999 -0.029804227845626093 0.4624504416634229 0.6022058393189114
Ni 1.461120142456804 1.0113360295481884 7.0955155093009985 0.3776680578097044 0.9713933704614302 -1.3505845497838804
Ni 6.9048284252198115 0.5703885979231396 9.287220875682753 -0.36418416439065665 1.3425688785682557 -0.9750975587858949
Ni 2.788957942528445 1.436371685675034 9.273271908825862 -0.6537909104850547 1.2022763774623746 -0.6371216773594899
Ni 6.2873656573970305 1.6624225627917186 2.5063557187771766 0.05688154367839236 1.4198917208201354 0.16325553765995757
Ni 4.080809420325032 6.791389763789613 10.39029867095696 0.5012008229587432 0.5583783006109997 -0.32928606696189094
Ni 7.999330049281839 7.196078685030539 0.394211924818211 0.49667928093930597 0.34814845108403264 -0.2591479153839085
Ni 7.559077011743626 3.9199489427964807 8.252880010209905 0.6472626224482337 -0.9400868470386649 -0.8440651428257012
Ni 3.005414862533358 8.281022284404434 12.40004044740663 0.3657548513118862 0.09816086204315351 -0.3046199316737786
Ni 0.04211998699033189 4.940501639008225 10.218326989728455 -0.06073228488305025 -0.291140409130105 0.0020193444228739418
Ni 8.674320627351609 2.3302985209808496 5.736479382404281 -0.07988211833862371 0.22942107774343715 0.063051162824214
Ni 3.5583070650757884 2.598507114132688 11.351262832425984 -0.2185285992006495 -0.2828439734492677 -0.04229259012062394
Ni 1.000744947680418 3.360247545974347 12.499095359653898 -0.5687874117594656 0.09759599067861902 -0.45274606989146543
Ni 3.2166076824750705 8.37091622524479 7.910028095120947 0.1911941730517546 -0.3962818162561498 0.19287670296050008
Ni 5.545046700532572 7.7877060402564515 3.720268871388894 -0.36603175912235675 0.9030783881351157 -0.4373811573996209
Ni 2.894913676735697 8.397281641090341 3.5279576417591962 1.3044728430274823 -0.28786070993756874 -0.10712089944991873
Ni 3.2610471074113385 4.246969930340424 9.039650070048316 0.35421496899308674 0.0017511783631518228 -0.08831919336238338
Ni 7.015203847534733 6.081445920624428 11.419814710245602 0.5142021203144177 -0.39099228572243633 -0.8536512438522396
Ni 0.5571250420471745 9.018140022947064 0.2702378767768843 0.1608317587098133 -0.10365119573376343 0.05051266403757108
Ni 4.516669719073306 0.28369367111932126 1.6571342083425615 -0.5131163434494066 0.5077393954082093 -0.6037474727744182
Ni 6.019300793939751 5.771654530215669 0.47010569509798816 -0.8079380580858407 -1.0339431681691935 -0.26604001451805154
Ni 7.98421148203548 8.770457826799342 11.27662310373123 -0.22410069397178825 -0.1793465296845492 0.32170671195273626
Ni -0.016757984074915574 4.87806006982852 5.710723021139419 0.2447649071893591 -0.561964218190045 0.5237846217965302
Ni 7.951701621747557 8.80604889241436 2.4796794874671417 -0.26705817136992066 -0.929983954276708 -0.38641957875008937
P 8.490023226504132 1.592507049494979 3.5022273315014743 -0.7736518832094611 1.272564167244344 1.2510000679203228
P 1.6189263639759903 3.1664011035446484 1.5516761382027173 0.7774861693538868 0.09978014281413138 0.4244557075872045
P 4.760120872337463 1.0395609483170891 8.149262578471 0.9545904399714786 -1.1199247145373359 0.024280212703603348
P 8.36998198223016 1.663743079360474 12.390179692049333 0.3616469997910997 0.20328170034390794 -0.2965350977831151
P 6.173944962178653 7.771177125382238 1.5093540313294127 0.793908319465652 0.12933677342532562 -0.029402878642149365
P 1.8242532157585396 3.2403140989712926 6.103746481045751 -0.22442388163916188 0.12988801794310534 -0.6714276497302114
P 6.80137897756142 3.9449399434378183 6.001628329683207 0.45822920449322374 0.045947156154075706 -0.294689302823628
P 2.4521094371190726 8.44159530254387 10.13152593225288 0.12862406362901718 -0.4267732999767876 0.2705381594987212
