# total energy = -381170.4967660786 ev
CRYSTAL
PRIMVEC
9.26684010933020 0.00000000000000 0.00000000000000
0.00000000000000 9.26684010933020 0.00000000000000
0.00000000000000 0.00000000000000 13.56295720655256
PRIMCOORD
 96 1
Ni 0.8279541729534575 7.776685915880603 8.80933068738735 -0.3213930373670594 -1.0817448610335048 -0.32732868612520405
Ni 6.115975493410303 7.700901697170921 1.4033452511621085 0.6197284215837068 0.5908703597014341 0.11535408599298842
Ni 1.5214205482436876 9.158983393020298 10.494216442429162 0.13394393318003384 -0.6241201228934993 -0.1549783852528299
Ni 3.4932836622785497 2.235161843088199 0.5737147068263349 -1.9424291004731258 0.11704407210090165 -0.3547602999735955
Ni 2.413872855293655 5.247172162411585 12.737176331499777 -1.151934691785029 -0.31324032635293797 0.27516331697555835
Ni 7.0148311870007936 8.376491411136518 6.970193744704062 -0.4708101264820279 -0.6750817015430308 -0.6381609172572815
Ni 4.488783231746181 6.645464205642366 6.194772361851279 0.49471033013839316 -0.42459429004759774 -0.5339600196676352
Ni 5.3887231456336915 8.419350546809332 12.959948388544914 -0.43859677497427685 0.1669846656850866 -1.5690779248712203
Ni 0.1608843918176084 3.9057507171535732 7.823506625715607 1.027617997282114 -1.9338287603986246 0.5783552579535588
Ni 3.4889375142503227 5.5446191974009915 3.7388864333900904 0.3860431692472771 -0.44091899534955037 0.22315092846400922
Ni 6.880044997084881 5.137119168843942 6.497457014890908 -0.8490780226592602 -0.4676648959848268 -1.0786525952614263
Ni 1.291158104308963 1.941727349881782 9.41456377091647 0.8545179627279089 0.6812351227389365 0.7408980858172078
Ni 3.776969439651929 1.7673532188644079 4.72728760330629 0.8633946963922485 0.657686388884719 1.3866226743543602
Ni 0.10031539794277933 3.3164445517824794 11.149550697204782 -0.1579222983725022 0.5533049998531503 0.26661671295712797
Ni 7.2552222872145204 7.34957725357573 10.979837786780582 -0.981675983334361 1.8652769794711554 -1.2506995059607686
Ni 3.761280679285642 6.823480204836912 0.7866490863730385 -0.4543460673887336 -0.120535887304244 -0.949748538498145
Ni 4.015256967152633 4.1006323654128805 5.689592424688822 1.2059527978726972 1.290597113486655 -0.214788672542243
Ni 1.3270763767128182 1.532151549132146 12.215802591183104 2.2640054574955846 -0.4422395139331868 -0.19949626515954674
Ni 6.982109974447126 2.53501825651543 11.585220066436042 1.2272101645895768 1.8724040774342396 0.27222840271695053
Ni 3.0814560193735634 7.494019490923225 9.623989724784096 0.06614368570660867 1.2430350474369753 -1.4206933907858241
Ni 6.792491891390448 1.250328406628007 5.785333710335796 0.9973707683617986 -0.7668271469781438 -0.7576948456595725
Ni 1.7811052096402906 8.509489100904354 2.243692896126122 -0.23031273631977112 0.346629443336345 0.047893224136853
Ni 7.154760473197443 4.188880484118224 8.878840328634533 -0.47739215057491974 0.29874984604624677 -0.38634398831714756
Ni 4.600467189179428 8.434705700930381 7.736215771597291 2.0943859252908124 -0.45337444750408373 2.0395944313722296
P 3.8004238120601217 0.8674401788133199 6.655818046136904 -1.4187817755854082 0.010690132723994493 1.0505524945911004
Ni 5.944659419640936 2.930415791842491 4.058185604126539 1.8377075544933188 -1.4051942667089605 2.275314711860817
P 5.317405543874128 8.152150478054752 10.060716440475955 -0.707957112114813 -0.5240489312015103 -0.07988520366241726
Ni 3.1534686341440374 1.365024087108532 2.6826853542335494 -2.214637448585418 -0.3674263254770382 -0.7763741672366307
P 4.966572242806648 5.121245071674745 7.604003909873792 -0.3261603768487157 0.19267255736949399 0.7570741813564381
P 5.639502373650494 2.2433722634570885 0.917459801866542 1.2715143858235909 1.0371436773843623 -0.32737393754084265
P 8.9602930734612 5.4695021911817845 9.574118371173205 0.36212445364815055 -0.1892668741220547 -0.19481300075126448
Ni 3.6260311473624567 0.19496412313660164 11.243908443618038 1.10754048194037 0.034713235111469246 -0.45282243165535563
Ni 3.6784443952252546 6.964104504044471 11.73267680688286 0.5327955670458889 0.3328339322141494 0.957582689830583
Ni 0.7838597674892511 1.8343432062760356 1.3687873508916089 2.7507556522466365 -1.237981544173468 1.9537794924889382
Ni 1.7006227029768537 4.342293022726537 9.65255290616449 -0.07441389613520089 0.7061709667486676 0.28897219783419265
Ni 6.274243856254845 1.0028389068628472 8.472141881750066 -0.7240154511292562 -0.2443010801790631 -1.560879448220828
Ni 7.9573614981968985 8.861860697435981 9.066280704257025 1.4437610712385651 -1.0937511414657615 -0.4552973755584094
Ni 2.311780077410974 6.674163609572897 5.39244192858407 -1.0660904423256994 -0.006265778404053724 0.9454828212432556
Ni 7.334518638339336 0.328045214465746 0.205119653252026 -1.505642382124394 0.5312349074269883 -0.024035443682648927
Ni 7.9840592646560085 7.363496047474231 13.036944709945624 1.3105419320396978 0.9627454649784453 1.3390179279922036
Ni 8.90106869809148 5.935123841131243 7.325570577494867 0.3342123006189147 2.011517213520039 0.5003976103311576
Ni 5.190375699159977 2.517568796521503 6.829111663593316 -0.505291190978033 0.47420938197156404 0.4342693512435167
Ni 6.591290258151929 0.5530635535621472 10.666886401543783 -2.5509606248997487 -1.097737122696703 0.9810213804694976
Ni 0.3029543180878621 9.096385887837624 0.08622887423764512 1.151804336854752 -1.0796542970530632 -0.15045092969612153
Ni 4.152573004428259 7.695693733009165 2.897196949973013 0.09181435099983541 0.9087903509182284 1.1889791461328363
Ni 2.440135080265927 8.92778499823088 4.556976981692706 0.3815684213053751 -0.2939657943940421 0.14108131555576348
Ni 3.904249489050007 5.357521694863882 9.794231771780604 0.9409553656865471 -0.0056636260436805684 0.7008125306502317
Ni 1.0098446380128252 6.355458443289774 1.3010513828482706 0.36424792774905657 0.15059568280410193 -0.6266182067250047
Ni 6.956765166649257 3.99513865719681 13.704418525311816 -0.669897072018298 -1.4982136937604906 0.6332169429884449
Ni 3.701759765031266 3.6000376607544036 8.365171039214808 -0.049949849555565584 -0.18597946162003454 0.5137089827280831
Ni 9.283983799742588 8.33494816676436 4.287426842277232 0.7421070185236446 -0.8202302451896325 -0.9993924267775176
Ni 3.0624589970753426 9.065740447476543 0.14164643167560553 -0.5448481273350487 0.23047394448798372 -0.5338414918119
Ni 7.2374206872950655 5.170192521323136 11.009269271082607 -0.06887214038136526 -1.755371061076932 0.7364161387864543
Ni 4.71596908475261 3.6111393352486805 2.4923833783741354 -1.4449579197601436 -1.1567326273943046 -0.6195726127321329
Ni 7.7243097353783865 2.2745273800261705 1.976231502479438 -1.6661445254089307 -0.3052429099697582 0.10009664561328567
Ni 2.5132411821735667 4.38042606992516 1.8985160742834393 -1.721986572079215 0.4294549605740087 -1.9148452773175861
P 5.102841127145836 4.137783127556083 11.2693802071259 0.5105071879613337 0.5108563437706363 0.8691166864776904
Ni 6.72939397683992 7.304957418275277 3.9429960010662604 -0.627364597972726 0.2908480747006668 -0.3056036357432866
P 1.4913681856519172 6.60326301561988 3.481909542683995 0.0441826080544852 0.21892660597001654 -1.5197523391632148
Ni 0.49230366278032134 6.880174732846918 11.134062100585638 -0.11015402984928772 0.02252029258970315 0.013407274544841424
P 6.077759044650371 5.130308041337019 4.236769660622002 -0.9710272453712632 0.05401862030830052 0.27899888867156464
P 1.4426060728064358 3.3621949415806816 13.498248012387295 0.8361610574872761 1.1165054044431417 -0.8938229309751187
P 7.253053846620479 2.6278349274124917 7.393602157738846 1.9006103646651267 0.21409833134343773 -0.26734742047556537
Ni 1.7801877924658887 4.060330877620216 5.601162675916627 -1.2391488250086917 0.6984394024323649 -1.3511638193261182
Ni 0.148526133799605 1.2607443349515193 7.492679505838191 -0.6565152513947531 -0.630367646465108 -0.6821170111232575
Ni 5.383061106304807 5.715369993921486 2.192737322218207 1.0511908995060477 0.15197507965013182 0.25407332907447855
Ni 0.12965236047531922 8.204174518631438 6.567875733156361 1.2285337684970068 1.5692679293948393 1.638310791026114
Ni 4.859188099200901 0.3858434231370786 1.662113422068324 1.5321196024793162 -0.44183302252338746 -0.2827856094075065
Ni 0.07772562172015868 5.298223184772998 4.729864711550746 -0.5447563389521908 1.249830987312886 -0.29690507952802414
Ni 7.797703109330536 4.377015872751626 3.148843554227432 -1.4673249746014343 0.7512663164254094 0.6646147405734361
Ni 2.2756394008436276 2.5111746768211263 7.032352928347854 0.22486405450037403 -0.7881883862627393 1.3559314159180906
Ni 7.926678990475236 9.217577623260127 2.5394737532573735 -1.0070424871236077 -0.6877071036165252 -0.36870724907199076
Ni 7.950216764444739 6.345635592735572 1.7657482021512116 0.09505265543147501 -0.5357063129347805 -0.19377170397094368
Ni 5.21528496547101 2.4982011006174636 9.878484955699234 -0.41296364778720496 0.0321002229686544 0.013336826318222191
Ni 9.095894745309915 4.0750651534515185 1.3494900829726748 1.1751378693743697 0.5761705915974141 0.03919518214222281
Ni 4.328485430909781 4.461825993762999 0.4159578735578237 1.2043288891160289 0.46821794027481944 -2.3172792292180606
Ni 8.770017044754194 2.1185757272179977 13.304922266588413 -3.1910899787373106 1.5358160774942968 -2.337577831566097
Ni 0.2791663394344317 2.95613127324618 3.522774454357504 1.3451410101708061 0.6725293674348225 0.4549739307807197
Ni 2.3461971217112625 5.57854509917357 7.5247149722210915 0.24459521438071422 0.21792336151648276 0.41198919968907755
Ni 4.97336483663328 8.93151026796936 5.4150381915947925 0.13017855260033062 -1.5245657013914582 -0.3979620321720501
Ni 3.320586829327506 1.2118246858235646 8.751403669637996 1.1274405632984068 -0.9984966544361256 0.9170703315388335
Ni 3.2070309701848743 2.87626964487249 11.355436718136838 -0.6520916684057607 0.8183713376040229 -0.6548710309231108
Ni 8.857097541601208 5.108614368556465 12.934382103267568 0.7246875374956164 0.579433321509086 -0.6914778835128672
Ni 8.35998716883743 2.1570887148625855 9.312543274386924 -2.319796596323276 -0.341474895718599 1.0932636603063817
Ni 8.660492261074843 3.197272987511691 5.736073041490488 -0.8146769194715712 -0.28391072415088525 0.05110813152972489
Ni 2.471809139883155 8.37603733596939 7.111981032349878 -1.0650504310969595 0.001378368404765368 -0.2429926457802847
Ni 4.952171573220582 1.7764810564076994 12.416562196146684 1.0263748689036323 -0.7292746426456667 0.31362702026839534
Ni 6.397983972717351 6.529359965459729 8.725091403728939 -0.5276718726660783 0.5422150605875758 -0.05963185273001989
P 0.5175780425930857 0.8931473200608777 3.2619861122995752 0.37803161179671024 -0.8819619178714745 0.4683881473040966
Ni 6.194938238289883 6.035131579981193 13.102332460696099 -1.5724599539695756 0.1733041801452112 -0.06981393546934428
P 2.6190499629545827 3.304749799518892 3.643010778561008 -0.06541117841595831 0.14310194553021807 1.5359986258187484
Ni 1.1804193645705552 1.5015709766520833 5.394598322285922 -0.6734472512634014 -0.8594675934237005 -1.5753367612967386
P 1.7132441392549882 7.523932850912813 12.836633620045085 0.4545934075128494 -0.41166421224949107 0.7052451125002885
P 8.131392756128891 6.9909134725853255 5.511511557613258 -1.3948772010536687 -0.9818541607834381 0.5766079362451488
P 5.8326974570033245 0.5130613847061819 3.7429694031581864 1.0608219948379085 0.5715076389041059 -1.4714346258944337
Ni 8.71014399057429 0.5213904206289335 11.100277054783271 0.8963392696390692 0.22998466355639102 1.4340299599937303
