# total energy = -340887.99378958007 ev
CRYSTAL
PRIMVEC
9.16831482141102 0.00000000000000 0.00000000000000

0.00000000000000 9.16831482141102 0.00000000000000

0.00000000000000 0.00000000000000 13.41875548860361

PRIMCOORD
 96 1
Ni 6.892913232863575 2.0920352297401945 11.53488325411105 -2.802540498128412 -0.5244536228390968 -1.898334938367389
Ni 5.171901364740369 0.6211065664329041 5.689015404201917 -1.7613789578339083 -0.5196883402399696 0.6568417814962365
Ni 2.774891312898081 1.7023268426468927 4.356063460178568 1.0231869580939539 -0.04675216855387432 1.3415484077235411
Ni 3.578888338950236 4.524948402173866 4.939966838987438 -0.08411029748735838 0.19566197901512108 -0.3595996303437678
Ni 4.068733059827782 3.1514156633697255 2.6044734286752846 -0.8260005720145064 -1.2165994789532661 0.7715253237847615
Ni 5.581064915749635 4.740825541460059 2.392550583544114 0.4903386834332587 1.5003909039174674 0.3675571946279476
Ni 5.694064395139015 3.1839998540188006 0.2726610967383722 -0.39908071915752563 -0.42287139381922006 -0.6985425036691324
Ni 5.789836611098564 8.08900240784605 12.50683005405321 0.8001113629525703 0.07173583508240548 1.1632611725414417
Ni 2.3447323210935465 6.943274785827944 0.06632267212615245 -1.3104797113431947 -0.7984756271213604 0.516220179185711
Ni 0.9026407581938355 0.10102474348427007 0.1375714797716488 0.20020768940427455 0.720473756524585 0.41900342622338166
Ni 8.334227322671827 -0.13744495702799173 6.871623489164582 -0.7992377020983654 0.4780722073610799 0.9912854813996669
Ni 8.919440853659582 2.4135038500914963 1.4052257692587624 0.4425274774872508 1.4221023553182088 -0.98554523648178
Ni 7.343865962538706 1.0451420408107313 5.151916272231406 -0.006601821587233792 -0.4913337003566764 -2.0380533121373543
Ni 1.0083129204288137 7.540865541738673 2.2441256527622304 0.3108882811809936 0.09104224872050126 -0.08556219944253651
Ni 7.991203994325034 4.167512483027877 3.670955638916176 0.37044582902965234 -0.716654639888811 -0.6557068965608449
Ni 7.893836491597634 3.8464839417849466 12.516129475712006 0.12769203873305104 2.347081657291474 1.5093866796581747
Ni 8.4600991159811 7.405055295231989 9.045663793424076 0.02329445175156633 0.8867729661068728 -0.112504018138703
Ni 7.172931902195048 0.9967975170930683 0.3861189918656392 -0.24978472900145368 -0.4415676846771427 -0.3973362256625931
Ni 2.1694799844989845 7.102262532042243 9.235941164243654 0.6245402411500535 0.7069410121454728 0.3695004343972475
Ni 0.44394813720020376 5.121356445480844 0.6056726253696927 -0.39622319510407245 0.5222915821907714 0.8658863524658507
Ni 6.0596234411603795 2.657050963316605 6.883821931949781 0.11497253428385361 -1.1176207489945076 1.4498417302150064
Ni 3.74259776726478 4.635582456355744 0.5494736063990577 0.12202609869652532 0.08224239104068416 -0.9991607703826857
Ni 6.54551661837733 5.7647062603475465 4.464875770218078 -1.9410214214923218 1.8134736216466185 0.855006215218237
Ni 5.203715416949792 2.928616446441425 9.677995127614905 -0.2019390702730845 -0.8109369928131647 -1.338814810842462
P 0.619834921176003 6.311687918795446 12.027646249575989 -0.04452482188525235 -0.6603060858957531 0.21925467873339657
P 4.224832786893385 6.501490370910572 12.55846600276891 0.5891999139775465 -0.7379312898794002 0.5756864528721439
P 2.778237747784663 8.644528935648179 1.5191109078537408 0.03503050924157193 0.7711671691143945 -0.8974579566245448
P 6.621769492217611 8.100352781516154 5.808778349388094 0.5051893752928461 -0.049955505982520416 -1.5497882234036728
P 4.89227693294348 1.4006067722838036 12.445157551172194 1.0333816392387687 0.327154879551501 0.9286888896143684
P 4.034984493204471 6.697444762228153 8.07508490604377 0.8030771304491137 0.042449941634094636 0.29229894821458047
P 5.049284323170101 1.3142320789509563 3.597555027797034 -0.2807297553197423 0.004445951586495568 -0.9605883094261263
P 0.4073638108223182 5.925124263664055 3.5798418436850437 -0.08591161236215526 -1.689991250119541 -0.8708300696243713
Ni 0.696943198783183 -0.024225438084426468 4.609262058349169 -0.2789700923161583 0.5013933985855236 -0.7939435435789617
Ni 1.9506964894345826 6.721575766670575 4.664801875488722 1.9705371715632511 0.9222277073700568 0.9212699714424779
Ni 6.089906384805257 5.797033738183405 9.341345611687705 0.08491736676968602 1.0659626584985835 -1.1645847764488717
Ni 0.012933741628770546 3.125139273273988 10.59353020368405 0.14076095610186723 -0.09297391852557536 -1.518428735255785
Ni 2.4432733681099394 5.604499128270467 7.089195849849484 -0.8646686780086658 0.06362606149107752 -0.9003057104859848
Ni 0.8290631985998683 0.3078307521491356 8.977281917803332 0.5560751063991197 -0.16383917807756945 0.3266504291112568
Ni 1.7597571662894946 1.3531332384681276 11.616361150531777 0.17279330194706372 1.0894342592579624 -0.6360184169929821
Ni 4.513937256149798 6.816357804636287 1.5516914311769132 -0.18986285583484075 0.9179432210620901 0.23252285659721245
Ni 5.764266181239175 8.14320548469392 7.809500831466913 -0.10518820120358012 0.45400565333017934 1.1471686378549535
Ni 5.800306826551925 3.112771216665771 4.568831623930404 -1.09554371458981 0.17299641909680527 -0.8272035911836723
Ni 1.0369822406763258 7.872080080677472 7.049489712296582 0.9764211626933249 -1.6852845886724912 -0.32036793853665474
Ni 5.206190861934387 4.9698408757941195 7.0492614212591125 -0.5259165805378685 0.19366577452069872 -0.21616421273353095
Ni 0.9768931057539737 8.33119261048701 11.24545422651221 -0.28103108861024506 -1.228356362378878 -0.22053148856329113
Ni 5.091953660052711 0.5006239085382422 10.440610048176438 -0.011084539948935749 0.62876430653373 -0.6129008571389122
Ni 8.624817058918998 7.226850761285428 5.044204159962827 -0.8140583120509658 0.7666088603197507 -0.2736743911348577
Ni 7.357471741639221 6.395678850291276 6.931995008181473 -0.7490186580418132 -1.0319469636747711 0.37640024684087436
Ni 2.3250387809938804 5.356285342833659 2.412933580913564 0.4745459393753762 0.6781901652650255 0.538796007603698
Ni 2.6816220468673992 5.49562539052208 11.309850635707758 -0.3275677987192036 -0.06044354999803784 0.46788703929796194
Ni 1.1408042369931881 3.4903407550198002 3.546737809589203 0.10132126204900614 -0.07980678501599804 0.5167557399742069
Ni 1.5440542249837 1.1892404438584285 2.428418864539419 0.4903875343933232 -0.4166866051647469 -0.5148875764172164
Ni 1.3134619405113046 3.6381339889148747 8.020283138242219 -1.15679536231144 -0.31017994226005935 -0.07802989562123336
Ni 3.5323683098693675 2.9814992859641785 6.994620098965822 0.42915542705571896 0.015050723685535368 -0.14326803879443714
Ni 4.184400518811668 7.160903073232868 5.892229267144692 0.28193354581985636 0.4990398107516825 -0.4238530410061991
Ni 8.674032572538648 7.370683283205151 0.2546261047783846 -0.5713986241300675 -0.13818265385172976 -0.420649703577553
P 0.07478502664756397 5.78711362161551 7.722560453113513 1.7190341743191107 0.41578337662418713 0.42739447850055423
P 8.849807503074402 1.8910199286763294 7.9908821864770365 0.31048358954340727 0.3471269517980538 -0.34078712562295504
P 2.1585971948815246 3.6299283472066803 10.0615836646074 -0.38495610683068543 -0.08065036396321594 0.7869282886033931
P 4.335549355908083 6.334553695801297 3.819514427093523 -0.07401923179994348 -0.724998640978132 -0.9172101995508075
P 6.872687930507958 4.042887580525659 10.222515093550346 1.9040489580330304 -0.08644177383401241 1.8847916524653152
P 6.688945734447711 8.044499408011887 10.13256934161935 0.1640327821456143 -0.44114910908248545 0.8122384852334077
P 2.6460031440335054 8.841821900920394 5.521240745123783 -0.17844844335031204 -0.015691699703643945 0.4727209703514956
P 7.4778333777790795 4.562098413572306 1.3940340074339659 1.1386307755872713 -1.5825422779062424 -0.275142491039952
Ni 3.330958771270919 1.9349911662545414 0.5596816080503465 -0.1578413086229217 -0.888466808869528 -0.8210583975178827
Ni 1.3917226752835348 1.2160119229510848 6.5764917697864185 0.5004739720950477 0.8841206160856903 0.9423129081557061
Ni 7.475843853476646 0.7845363611473363 9.15687820193012 -1.183440475702794 -0.3532549190726626 0.5534101579724469
Ni 3.008298270001108 1.7808717951766135 9.062530742083924 -0.16585955094170787 -0.6876253425359964 0.717134664849023
Ni 6.662751859184794 2.4761876180902944 2.3124671877980414 0.059812858392574414 -0.7693265163612298 0.9155286980833265
Ni 4.624452122239825 7.337677350077218 10.555555043957416 -1.098172924682541 -0.7889003247280995 -1.1786047448770476
Ni 7.640470113266965 6.138498453021379 11.246862479659002 0.21137681864721658 0.34584397132057215 0.3808168878513312
Ni 7.831675317540029 4.002143589742178 8.386131903009927 0.7174370265807902 -0.3346995246679784 -1.5221267529326625
Ni 3.5044874646910222 8.890459810710304 12.74475790716329 -0.30062623713335324 0.2763637650415628 -0.31866124025819315
Ni 0.6006676423434321 5.552872347869526 9.863147410484896 -0.22456580653366484 -1.5189275292690745 0.5057133661171161
Ni 8.636167432589103 2.742187934157155 5.9159807033561425 0.4228603380756266 0.40851358243565133 0.5209777484753544
Ni 3.6718917238529434 3.084367777546234 11.532105254739449 -0.4014476767278054 -0.5917527623063874 0.566406827342431
Ni 1.4888884750862643 3.525455400542017 12.768831151222738 -0.017088065830538315 -0.7988900889509596 -0.16307915998309336
Ni 3.1955060890397884 8.749029387257115 7.799691651507587 0.5818704701956688 0.7174367694704742 -0.5268020684666154
Ni 5.957213365316212 8.31564314865785 3.623185051702349 1.7839329318750243 -0.4595564079450795 0.09107387328938508
Ni 3.7028439544751373 8.606993855029915 3.5260330043717563 -1.5966324374507213 -0.26984550430707077 0.34260952354367447
Ni 3.753902299361097 4.899033980919947 9.11868850363815 -0.23226343228823867 -1.1058466391777149 0.7014794748102693
Ni 5.363950053971146 4.647033681488185 11.60207049831886 -0.5995113232058836 0.5348848454747498 -0.5172126250059673
Ni 8.431283102697464 9.147236802130859 2.317821483616573 0.037015143771768504 0.5070292567150623 0.6258551033067351
Ni 5.032689673458557 0.33256411487114185 1.4751103316683043 -0.06747294604099348 -0.13803352986837517 0.0716972685349862
Ni 6.267964225715693 5.6383118730970825 0.024456479616321993 0.12371197103938049 1.5823119070629912 0.643968267967678
Ni 7.90281227174548 8.97589933593786 11.83143697910814 0.689082129587181 -0.2740019496776055 -0.9159678425032741
Ni 0.1990193589411008 4.994897880027074 5.647913849142883 0.3170152200143379 -0.05914360023969168 0.5594026281104559
Ni 7.7990819585761955 6.510677022297846 2.527677790601344 -0.40304561734254457 -0.5248050926412445 -0.3338225213796638
P 8.703994625167004 1.8320584964691817 3.570274707235322 -0.02281725500483167 -0.031133745290327024 0.10512443784518025
P 2.1274982712232062 3.3289417420242122 1.5730132639775571 -1.2401119602529094 0.5812125248966958 -0.6301143928037212
P 4.919956075197153 1.0882147835426828 7.968754458809186 -0.17898374702849174 1.3695232956699124 0.6228602823444692
P 8.765550690450597 1.9057534104920482 12.342866663419878 2.690852033912469 -1.8315273938245362 1.7922548214771583
P 6.874338227164355 8.019827472998758 1.341046649122974 -1.8984128427931755 1.0195429335834636 -1.0513749904923957
P 1.7538986131592866 3.3503772619278522 5.739859210522545 0.8445701074865777 -0.24550949866486746 -0.20889184744183378
P 6.96665398846023 4.295025404678787 5.912062165628677 1.4138059196373713 0.778294267077479 0.6949108204538161
P 2.887349861716752 8.961165854122141 10.431686527422713 -0.3386186572167265 0.3351618090163776 -0.9243624943248726
