# total energy = -340861.87427310453 ev
CRYSTAL
PRIMVEC
9.33225997112921 0.00000000000000 0.00000000000000
0.00000000000000 9.33225997112921 0.00000000000000
0.00000000000000 0.00000000000000 13.65870578703816
PRIMCOORD
 96 1
Ni 1.8353195172859051 2.723815964435557 2.1617498288797328 -0.008285637047559923 0.2292590982442761 -0.9008279015380422
Ni 1.602069018897568 5.987577809312516 2.535328582818025 -2.531739057665975 -2.268621101890725 3.6418946086316892
Ni 8.448541347661576 9.169971682058247 5.350360853022852 1.371568094014083 0.6645052115787652 0.1774518837649976
Ni 2.898823830174394 3.43618467468503 13.312334045922459 -1.6180998632958778 -0.24577715050395735 1.1568588685595238
Ni 3.823641431990262 8.514371107429174 0.5454845765602098 -0.48335556724720624 -0.1553601940722808 -0.21997844427329857
Ni 8.195581116833607 7.120019524441329 2.1764332062568714 -2.290185715435378 -0.29178909845769746 0.9600794881105078
Ni 2.425808916142576 7.798726774032774 12.150565704755985 -0.19047400705627843 0.6214173792503556 0.08225498944617447
Ni 6.461955233257301 1.6028062674121188 5.416223275699322 0.801896222767135 0.07986232084428181 -0.4522025386831696
Ni 1.404943697722212 1.0848005294733565 5.498517007990593 -2.771702943922265 -2.1217452911403716 0.3728680653178998
Ni 6.3034561348885925 8.400657523254496 4.921368074343418 -0.4523184954357436 0.09133149782614594 -1.2582534070486266
Ni 0.9136711508566367 4.646970709809445 0.635099466568759 0.09650532871760155 -2.338723515134766 2.0236487066762505
Ni 8.822484992953273 3.7296655770342504 2.424720774664138 1.3205993162757 -1.7030323995742154 1.2309832584787639
Ni 6.40206079064482 4.369849258675505 9.255876065618882 0.4040732872761105 0.014386093518342967 0.06429172009953443
Ni 7.895810271461511 9.32371132799125 2.970167088959669 -2.369086443697339 -0.494608000232574 0.7245065318330619
Ni 9.477096348056493 1.0472195197506298 1.9457780092849462 0.2533781027796668 3.20943120024866 -0.9598681434306501
Ni 2.6609818600245516 2.3111527737404356 10.57791570126689 -0.42025195391850206 1.625916274016503 0.33412822554554067
Ni 2.082932363318463 6.681468645399834 8.6350474905495 0.8099864559744372 0.21807479949268246 -1.7249340847433132
Ni 0.6791673299935638 8.386593807919967 9.211758741217784 -1.782174297312705 -0.16552556464105686 0.4550950297396163
Ni 6.394809624875125 -0.16983779387730438 11.825652818585777 1.4318087839726954 2.5763970626949826 -0.5510966793479218
Ni 1.191244283358984 7.43243558167692 4.845589192533257 0.28966742412900437 -0.09354496053769695 1.3033875803831039
Ni 3.6238564168067176 7.126962725641653 2.744703428046535 0.8389514757482197 0.36444230314804976 0.5416458183476671
Ni 5.377145371524266 5.672147432200978 4.473526930792617 -0.6116780404754046 1.0612832507450431 -0.0954041252336228
Ni 3.4068627147772057 0.7444259554688762 8.928818626174701 0.6165968179332607 0.03633380143402774 1.9183630606628574
Ni 0.30867195465283503 4.119474063778303 10.12424189541743 -0.9494212370657132 2.0825997312891618 1.375384896657012
P 1.3667934201591363 0.4884140757262481 10.637782147100337 1.573678142647393 -0.22084336337675514 1.2449505192921333
P 2.1336251978885774 6.857167098354832 0.8892374285680738 1.4265385367126917 0.6448059333776249 -3.970768784867142
P 8.342872171329212 3.7569624365919796 8.435029168874008 -0.7908589911163669 -2.5620657336739745 0.42233917546483396
P 4.691830882080899 4.662219622123062 0.26020766369379233 -1.800501377756667 -4.760462294920498 -0.7389391623186242
P 6.48394203705833 5.69203447757449 6.772463776614738 -1.616336857858184 0.2844462849393811 0.08061899650464825
P 8.317264450773173 5.251299849768376 12.023362339216968 1.5648232633599246 0.17374563855800398 0.3210616221695697
P 0.6365534326265692 7.30793390531464 7.090342938665746 -0.9952519222465829 0.7758362924552896 -0.6435442930563819
P 8.786294489922547 2.168555845862793 4.512768149512034 -0.19106998876906447 0.09665908068664644 0.1690693161282572
Ni 0.9262361052869025 0.241948164408099 13.389068551123632 2.1935898838865 -0.2567405914939966 -0.10840439414803267
Ni 6.178422519724675 0.8415057199937428 9.010033549247213 -0.3392082111716093 0.24960526600079594 0.03740055213564526
Ni 8.92975931795023 1.0743483986341575 7.461491572183925 -1.4212297229052684 -0.6952869728463124 -0.45223390614173725
Ni 4.6964036893230485 3.018902015449369 12.1364833249021 -0.08711797396543061 -0.718144594170776 0.40974951172528146
Ni 6.629590613850631 2.7562922281144964 7.566527088084164 1.1338585510096086 -0.7474479711205837 -0.7611599213900376
Ni 3.3962892645621943 4.397528740880027 2.5643948388106756 0.8906105946854082 0.8170297359744638 0.6513097959344138
Ni 4.609016409699604 7.515632676705008 6.029170757470754 -1.3592723073658657 -1.5546823182711804 1.5805874681727166
Ni 2.4433628965966236 2.531599411850754 4.425993999349424 1.8988571294194458 2.4490608646394527 -1.2232864040551383
Ni 2.058575165559258 4.340695279441883 8.709240821440392 1.5199019773672016 -1.92593855901727 1.7570101393422517
Ni 9.102975389830918 6.53522280398815 0.17231830849967855 0.47455622378802137 -2.246145803606345 -1.5085104477008084
Ni 0.49227389832900936 5.058000755060942 5.092798884947731 1.738829868888799 -0.28365207117285984 -0.33182066045828656
Ni 3.9047107718117986 0.6602396409149358 11.566259861161862 0.15371905892443202 -0.9305043455565523 0.3640034158384183
Ni 6.8650435255229425 6.972336515039254 12.336829208892285 0.3731866249995831 -0.5933363047434234 0.3787188676717219
Ni 0.8150011692826635 3.1406506752066803 6.7663315487804185 -1.0996590223097642 0.7499751084178116 -0.8708393255957518
Ni 2.7335121822408497 0.2235570802609478 2.53670882402438 -0.1938688916704403 -0.17331754988164988 1.406260760300262
Ni 5.30512832359025 0.3416185642195384 2.8652136969445947 -0.3191656906984375 -0.08877839238698904 0.22010365699725318
Ni 0.10691503299935917 5.287453023760391 7.770191523615793 0.5843657258136967 2.0299957319402004 -1.168734022730555
Ni 6.302690889595008 8.365698878501247 0.9220608523070296 1.0027276617983374 1.8939740902955318 0.0130419207856227
Ni 4.340032689004755 0.4795717596814794 6.775878450430866 1.9991471219904604 0.8413109771193318 0.48946399413778935
Ni 9.220524532733194 8.04939126897999 11.60816450679334 -0.3346892402553333 0.07834922663386507 0.21810848094409535
Ni 3.3626744652025566 -0.08969514744177896 4.828379572461322 -0.01207210067318566 -0.23574239197577468 -1.069318462344694
Ni 8.07238595682623 6.699171942008727 5.5931442546721195 0.49819854579730977 1.437376250758144 -0.09534961784660352
Ni 4.6795962896432295 2.556441887113207 1.5835220860137966 0.5760608054924273 1.03693130426324 -0.5641607116207317
Ni 6.378832796306637 4.552593567687285 11.696222775887621 -0.9557415228567863 1.9990676749027767 0.3497618183177396
P 6.8132028230124515 0.019955170869159843 6.947186075207432 0.06295654622787866 0.5188871844949128 0.24201228414488643
P 4.107295464898701 7.988367622946488 8.300012835532689 -1.740171727628674 1.464019307266969 -2.380764137145584
P 5.82889206575025 7.236952738204866 2.9128147538834357 0.5818031072928432 0.9742763484361802 -0.08594015160724554
P 0.6563191586242685 2.489734894935891 0.04488070324274587 -0.2955004858710137 0.42130276378051956 1.297527779168217
P 0.6551358280971163 -0.352894733588292 3.631562996848691 -0.33872150134317797 3.1015538822486906 3.451612920091875
P 4.527564447231275 1.8749629563974382 4.438997569984549 -0.7097046909335389 -0.6840913612408089 -0.13425992175855586
P 8.427590424684789 8.365269594556066 0.16175885667418427 -1.2824181772202883 3.354975950892415 -0.4103717186903126
P 2.359241907860428 1.8389031050022018 7.285007342964051 1.176370199119574 -0.07827595019376841 0.5748377317186035
Ni 5.774774291878362 6.835357607487682 8.726068752091503 2.2044540802945134 0.8144935998161715 1.6243067634375383
Ni 7.238305915858156 4.874248562003953 1.3606621255507847 -0.13262187193450062 0.008592112544385203 0.013134737609745121
Ni 5.745508325528605 3.450276386798593 3.7212460123528888 -0.0048645271811529125 0.14536143098835608 -0.591810097906884
Ni 1.3835168295018545 5.543670213215933 12.400260577922673 -0.4768591608895852 0.4383736032198773 -1.72028475889676
Ni 6.947512704296157 2.2784432035695494 2.0852607621080876 0.886769366562447 -0.7700559383280867 -0.5988088978222202
Ni 7.771168611204065 3.2235118088863657 13.266386665398535 0.5732991835868901 1.3984165816654948 1.2772898548547875
Ni 5.553058466451855 6.263392744091555 0.7545206607624133 0.2055339867131944 3.456711417660705 0.8875160149204844
Ni 3.7716514133249253 5.729811464750452 12.137398819576498 1.0877167623462236 0.17372198440892017 1.4970368998435701
Ni 8.674484686722153 0.8178139123495695 10.182715034880973 -2.708714773125503 -0.5051716346810332 -0.17622135379200618
Ni 8.314838063256932 1.1358666544305855 12.67353060548756 -1.6823144503005736 -2.0129763145640687 0.541161679622397
Ni 6.743602830335 2.42361583511828 11.342311759220411 0.6296618786473349 -2.3423495419231273 -1.95402708972337
Ni 2.056111449004304 8.95478843840624 7.454129352524064 0.08956000774801996 -0.7967247058685246 -1.7271028102598576
Ni 4.279820949563227 4.54578101812245 10.234986887788581 -0.8366385113443269 -0.26850364556719564 -0.31859156336252226
Ni 7.757534179814717 7.396525046436529 7.919317300364063 1.8780975282745913 0.9756174358451067 -1.3358487862356025
Ni 4.294183297207447 2.9344170685857374 7.932634434924364 -1.6153870923504052 -0.2577664616553496 0.34772987548937534
Ni 0.4821969243288603 2.420760163656856 11.566000424342818 0.9118360797230877 -0.07476613726829705 0.35873805367442085
Ni 5.1011997851097375 3.844853658238029 6.030250499915481 0.208798259286763 0.3876573078119324 -0.7824723097145686
Ni 0.8659394422823058 8.276183843671252 1.867637132550321 0.4384432801155481 -2.289874869063179 -4.0875302927306185
Ni 0.8598118805778255 2.1738752338791714 9.008544120602627 0.6052320277397448 -0.11568035898415562 -0.08513925297250498
Ni 8.147781282763628 6.217832652344262 10.000467202084057 -0.5139077290024504 0.22806842037028463 0.5365162104305857
Ni 2.467150826515479 4.9558591728868056 6.702846052643898 0.736815431107402 0.4319214198366303 -2.8288840211189474
Ni 7.589777479845575 4.531670641489532 5.283582935671984 -1.4190982783845625 -3.266295774646188 0.21802543431198582
Ni 3.8869981429432277 7.01144801534915 10.096555880631135 0.1973807614784407 0.46076662620309683 2.20806313780201
Ni 4.459261638649045 5.356250442105546 7.974526015392294 -1.222706106071636 -0.9026050480431229 -1.5368301205811081
P 4.730503766185935 2.450408752653405 9.946215043672806 1.5991300070615944 -1.1252371278891846 1.1808626876732888
P 6.211626699658487 1.2962042079558322 0.16966981320310295 0.3108787680992969 0.8327098657138821 -0.059285782244510796
P 4.754767641348361 8.057239699369068 12.21526719432853 -2.0466127716715916 -2.201902517517253 0.3529900954470502
P 3.125065801544661 1.3874550430859098 0.9250985028321717 -0.547751931245405 -0.1267651560434075 -2.2395362687096267
P 8.356515934978237 5.500965792930062 3.5037856973394845 0.36599550656778257 -0.05790509984690028 -0.02603987570718741
P 2.1817609933069595 5.670943570702534 10.474888487649325 0.214992561022933 -0.6128545772820091 0.1950873374585737
P 7.102726847258261 8.386481820803834 9.866515679571979 1.3833028659525082 -0.9059726789637752 0.5338350640539967
P 2.6506043872627756 5.849236391847977 4.702310076473164 1.3821008752246067 -0.753245037418335 -1.0653034276480298
