# total energy = -340868.53218076413 ev
CRYSTAL
PRIMVEC
9.24333215856400 0.00000000000000 0.00000000000000
0.00000000000000 9.24333215856400 0.00000000000000
0.00000000000000 0.00000000000000 13.52855094439108
PRIMCOORD
 96 1
Ni 0.7581796837613448 3.2119746720786284 6.867999012340483 -0.15005343714738673 0.2581845230293747 -1.079213867081535
Ni 7.608648717007126 7.647914391246141 6.745470327984321 -3.3601248420832066 -4.148092370584392 0.5876965899591428
Ni 6.01233452788192 2.751739929603379 12.156877357366492 -0.9100746169472907 0.2582547141456778 -1.6139225919897364
Ni 8.696117480789148 8.845757782167546 0.9965513504545821 -1.8509050270201994 0.2432896081954133 -0.9647982337424158
Ni 7.3005314888801545 1.7371086218014529 7.934779350491204 -4.280597257325053 0.12188443091233846 0.36403144086287625
Ni 3.557619828032907 2.4198026349712425 7.583239721735084 -0.8227918352692216 0.18121572168280403 0.8964747667756691
Ni 0.1713667531907351 5.835019690563876 7.302048319657608 1.3990220764599777 1.0867392289243027 1.8378505078290863
Ni 7.8701887953011385 1.7285030797307082 10.974035894244036 -0.22855384464713543 0.17591359274360027 -0.5464406686331492
Ni 5.3957950416727325 8.762253521085794 5.004954614016083 0.6626897556365813 1.0351623852882752 0.009747309194750954
Ni 5.889851135852445 7.053327818482733 10.840170263217875 1.1694349054523214 2.06735951730064 1.2441308516043155
Ni 4.549577242494836 5.612680583185039 1.4588778589562652 1.0759200268216116 -0.10264949394212644 0.9959327503636912
Ni 9.338445863214636 6.119760532120584 3.6203755818255043 -2.116461931254245 0.5865323944477124 -1.9102712847936587
Ni -0.0023727633185394266 1.6067499109274308 8.445846872841699 3.079604374560793 0.572411381665298 0.018950315850257686
Ni 2.6840602528665434 6.250257892974264 11.208972738774555 -0.6745065457658512 1.0883975904633318 -1.3279328738226357
Ni 2.6590385532043452 8.259360801535909 2.0480469148478555 1.1859583570286412 0.5114888351483127 -0.8226375690795444
Ni 2.7091189258566497 8.36607506921233 4.919495388221162 0.30335212070494855 -1.3406706331042781 -0.3789384398816958
Ni 3.5975972388341653 5.500041339711251 4.419655741223334 0.7048951853600376 -1.7365045631897316 0.5466589552915424
Ni 8.946149610771583 1.6516817476684518 2.7801169587732892 -0.42582122047616344 0.6090267188954865 0.1542160531655086
Ni 5.4646671082346225 3.2388542814682375 4.14535062146885 -0.17898888923481432 -0.08925327514087854 -1.0923709732887832
Ni 4.606229624182908 7.008636308373118 6.2274490469874 -1.0071489307944848 -0.2688330038821564 0.30405146076481826
Ni 3.423027671113341 5.163565569078323 7.704590805597355 -0.7718927344265093 0.21676199421852987 0.15346914769715506
Ni 3.8426379695489303 1.121382548806257 1.3090536152715215 2.5750150947457913 -0.9864253250938883 -2.280445091108847
Ni 1.2460750971782746 0.9217654000936986 4.942196087223892 -1.6029185275697493 0.8940502164945764 0.27738783543070294
Ni 0.2569784939632796 7.910397289401826 5.55134645385053 1.1796907788523747 -0.5759561615937628 -0.866858743681449
P 2.1970753076493645 8.626607624320831 11.168265104747102 0.5983718102848017 -1.3089159664005006 -0.10419626960395603
P 8.22078837719518 2.967007888019681 0.9476421079637847 -0.2912607367580532 -0.9877653840615506 0.2672211793103462
P 4.203414459949836 3.594325099314247 5.824663461416655 -1.5990068512201687 1.588680529593496 0.7228404569845487
P 0.3669519604948522 3.1910477684823166 10.733160208918182 -0.20014906825219725 0.03919492503190669 -1.1139193888835202
P 4.584600227356331 8.065842403261886 0.8224439493326162 -1.2880123834786141 1.4273643750480967 2.3302923536482774
P 1.1787281803926168 5.471544147225638 13.050722348889954 -0.5558830449929717 1.0123335603192178 -0.6002206905680824
P 1.8324905644738658 0.787347942148501 7.567478916380812 -0.46079079457281286 0.8386468000236073 0.03292863240722071
P 1.3450064793299201 0.35773266118082325 1.2171776684180493 0.03167110585103578 2.5558956003075206 -0.6819216072829997
Ni 8.47113478046484 6.722610643671582 13.1593296509553 0.5993714551939097 -1.5150927289040164 -0.4138262528978163
Ni 2.104087387959039 4.009424651744978 11.795029564789433 0.3104393665690331 -1.3614009236730942 -0.09602401820580882
Ni 5.358812470432077 1.8704344422401469 6.16195726692956 3.32130581233348 -1.9023466306299428 1.6409551706274965
Ni 2.850680555087002 0.9678138313375619 9.79538813083962 -0.06892433377553936 0.6792633437245463 -0.6877780660637768
Ni 1.9340285662430734 7.551977848655099 8.757288003147659 0.022979748724624938 0.2660227881268709 1.194867486592813
Ni 1.5309083720547545 7.792664970008617 13.24197520649637 -0.13058941488550416 0.043953522762814626 -0.6503895981129896
Ni 0.8525485572490596 3.9119167427178163 2.856472426903896 -0.16899938212227023 -0.17434959069059006 0.8493569873522597
Ni 6.240783477697665 8.881113526980219 2.4323255011339118 -0.6951165087067189 0.10465983950393587 -0.8844708003362574
Ni 8.7880424173021 5.089720589912717 1.095378282954886 0.13559046764452132 -0.9666507135701223 1.8124855467017367
Ni 2.1842917795249392 5.453122186595138 1.3588751746284653 0.1878242281382572 0.18100617677515923 0.8497868758008269
Ni 0.5524037029523983 0.5385636619829823 10.23064184431337 0.406217587312623 -1.420775151866353 1.626942144177856
Ni 7.4549228628948185 8.869300548713397 9.483676170906728 -0.11348772220821099 -0.8270027880267757 0.19975980323357856
Ni 8.500685712795852 3.9497866738282803 8.604172208945846 -0.6129144839856671 -0.4578689929403276 0.45042873461219846
Ni 5.935494709155709 5.08562579384683 5.743194582036278 -1.431898001252392 0.6375379389613021 -0.8081925972988081
Ni 0.4888983149364525 8.538795970537722 3.114244923084015 0.13641630597992635 -0.4480291240317703 0.768374693970922
Ni 6.385497083132232 7.649282404378763 0.005437852202168854 0.8005736473009696 0.814686432553268 -0.5026424405012763
Ni 5.697220097448231 4.831156864515353 10.742683613854261 -1.4284478379202623 -1.8338894662988094 -0.8891496938691655
Ni 5.755998445491053 6.954414922995041 8.365514923294514 1.4770059493346241 -0.3057771852066734 -0.9080185057492105
Ni 1.3947356053670925 5.473614653588522 5.27045268706272 0.8485869419554546 -0.060446892432147514 1.0123824112792823
Ni 1.8421221163940764 3.3021341321839404 8.945456360873296 0.05676918647024417 -1.3983142517596756 1.082859177143606
Ni 7.375097447939982 7.645908588207097 4.097513605487404 0.4222183336162535 -1.043017619666636 0.8183965344150034
Ni 8.243314377223543 5.122026035172924 5.601753116121629 0.5800403589654656 0.09782199064649605 -2.389912893524387
Ni 1.1739401344284432 5.32095178265359 9.463572848189582 -0.7048620181292571 0.8165733651633357 0.9656616101839757
Ni 7.270241089990971 2.9775267998096995 5.952981244590118 1.5877117379223238 0.4641049465477104 -0.406689641853035
P 3.8712368386862934 3.581125621250849 1.6312595299980934 -0.18607330688542145 -0.7811672177498998 0.07434704745300744
P 4.143656318717435 0.3720598257454361 3.407301066087385 -0.533147551068669 -0.03926743014105495 0.13001940131464704
P 6.549547739063037 5.714227828286223 12.556849272683388 0.3086727615869136 -1.0027438597482536 0.026158660673238823
P 7.843725135850502 7.2583726517322855 1.9781451411037083 0.5598520569430487 -1.2202357901542726 0.7140125742802735
P 9.118639428797545 7.072489245671405 9.979862853107178 -0.5697166084419543 1.0879985552527003 -0.15806576592890198
P 6.238158371416149 2.718288311178002 9.859323333792503 0.37147092786005703 2.2344295436106805 -0.28903724674417314
P 3.7453241704932894 2.382986443706176 12.492953816058005 0.23044283413973216 0.3522138794026579 -0.6866259547372046
P 6.902291773975781 1.3209553295253251 4.2547158767563245 -0.6782518717408964 0.29011890984412614 -1.0192408289620125
Ni 2.082504207792348 1.0066173389777198 12.579454765366753 0.24504310055141024 0.41193572074332285 0.5566178662764673
Ni 4.388392019476953 7.2199850940311 3.1157469645303046 1.7178751210140029 1.1714789324655437 0.771966267976922
Ni 4.040879710463286 3.1583078866191823 10.303195530001766 -0.2701612357752767 -0.5077069995083772 0.03903140287084891
Ni 6.653165490527107 1.1172877527403708 -0.07319702159400804 0.6264251168775922 -1.5501096112988335 0.4553400558708868
Ni 5.560465000846008 3.968088471143076 7.813143572004036 0.44264446268108926 -0.45873802580884226 1.2773217365339873
Ni 5.203413573231902 1.022774683273812 9.309807247749772 -0.07430025337547204 -0.813343031151496 -0.3993511992100929
Ni 4.093317132769769 8.137163952797726 9.637753271634168 -1.0753500132507545 2.933686299738018 1.1480788083740485
Ni 8.475432929834223 8.569003179439111 12.003111756926684 -0.5843698395787549 0.3591805405284782 -2.2768157218863756
Ni 3.5185482637654113 1.3779959311564383 5.3599031836053825 -2.362873115797776 -1.046226870632553 -2.533914468050739
Ni 7.620378505286154 4.0723255258496165 3.4244280359078823 -0.07413313166998846 0.08948493153571041 -0.7775087950617061
Ni 3.7906719571732834 9.160567182645986 7.256903886281112 -0.11261997489127701 -0.7780209588114343 0.3162207491375006
Ni 2.370378538889317 1.9659365482282627 2.608426688963353 -1.5498810402277952 -0.12335381636901335 2.9742138275384193
Ni 4.476638109862991 0.1272159780017847 12.43097912381748 -1.2397808021657357 0.14638858670128985 0.26210931200507764
Ni 8.2535744757182 3.959538389064194 12.358520644448445 0.39875418905604226 -0.615721871527475 1.420624999441734
Ni 4.56755552319043 4.386201349798364 12.944022870544693 -3.2217632394514513 0.22924907094194713 -1.5800346809930401
Ni 6.346582655508348 2.0264896160107004 2.0711127254636845 0.5346367340196857 0.49113958206799935 0.9238300188601702
Ni 6.233166972148477 4.11662881601619 0.6559345670958836 3.1731848163221157 -0.30112965913233297 1.679140423447966
Ni 9.04436001302901 1.2609753483254718 12.996594321164846 0.28834947664852917 2.498236812143472 0.9306652966144487
Ni 1.7270611199422699 3.089565226704972 0.7651232747425945 -0.16274568790307453 0.14176548610698167 -1.6453805533887018
Ni 7.866630112489928 5.264428807613198 10.549009003269825 1.5494892041060153 1.7442464119186798 -0.9980842494890554
Ni 7.763446797628784 0.35354820479475857 5.976548043799109 0.07082874988710382 2.7014262098838895 -1.1754150342951564
Ni -0.004571751995908066 8.574641611945184 7.837035736498624 1.3927102753093368 0.5247081620520642 0.8729422308713675
Ni 2.1537333240084164 3.195308944523792 4.8778809833267465 0.5290119316337405 0.6704267192695228 -0.21629816720823394
Ni 3.7312465758920603 6.671984914432625 13.115808346673994 0.07375543661559555 0.19130601603927055 -0.1606479248337814
P -0.13059256717304474 3.1201883855453345 4.81946497389743 1.45573161333688 -0.2799730796593759 -0.612188661563236
P 7.276554285731377 5.403263653910285 7.456341714353314 -0.911499008098643 0.5979141539220928 1.1787289291597378
P 5.824676402081423 5.454998582986503 3.5178429975355536 -0.12853381790805607 0.3162621438983973 -0.2560854744085009
P 2.0334128716616005 7.024978519308754 6.751247410470051 1.0380119389219284 -0.1375843581460985 -1.3757443368789597
P 6.238565078023145 0.05523815189556531 11.349723727790511 1.689350531211749 -0.4189049529723044 -0.6173326676580208
P 4.2339821587983355 6.17189292447182 9.625415272111042 -0.7222915264596141 -3.8003421833800424 -0.0663390895468664
P 5.940957518354216 9.073504238753026 7.5132972773302376 1.0641374323643868 -0.419166177053491 -0.27401017720772164
P 2.0883644802658736 6.688280908708375 3.2534134536654773 -0.030380412064070262 -1.1042515267764532 1.3717961508644891
