# total energy = -340892.54201307055 ev
CRYSTAL
PRIMVEC
9.01069574052653 0.00000000000000 0.00000000000000

0.00000000000000 9.01069574052653 0.00000000000000

0.00000000000000 0.00000000000000 13.18806403134699

PRIMCOORD
 96 1
Ni 5.951393255121043 1.8149072800984665 11.237680935364194 1.5010701893726792 0.527243526879408 0.19085298766225198
Ni 4.664053192995663 0.2249943664729128 5.801494927031527 0.005052474822242911 0.0835233146356368 0.7890183383632025
Ni 2.7737083691497255 1.4131654157911333 4.75452147811021 -0.4558288225818472 1.224327443725143 1.2577013911998987
Ni 3.761983443580581 4.420485079637101 5.0953402271780055 -0.6718354266915914 0.5025586225382184 -0.858148874612277
Ni 5.150144179020636 4.474026633023086 2.557851749107094 -0.8226457966096608 0.939845163341504 0.6616453735324669
Ni 7.312837278041837 6.1095399739829475 2.626020364696289 -0.6601201951371921 0.4852854372800674 -1.1912502015552
Ni 5.130068349174796 4.515376715232492 11.706621864411796 -0.14631068227550287 -1.0487488657234583 -1.5195628488602282
Ni 5.572394386563664 7.884349658563467 12.337183135483585 -0.7242815603064494 0.7545275036751844 -0.01744544916995705
Ni 1.7162041202549645 6.56021892621342 0.3684428386361938 0.5123810079452789 0.45949650124142155 -0.3362049055689113
Ni 2.8038581567009726 1.6309629396707463 0.4556078027357112 -0.7404368299100732 -0.25368457827649216 0.17509418216609843
Ni 0.7164602324364144 8.919561446489375 4.691917868137168 -0.4512363181151584 0.21524247225020993 0.05502700696815684
Ni 8.558881322131542 2.5662010596704485 1.410792899633858 0.49285142255278347 -1.1617172250930896 0.030206091269735075
Ni 7.094688337032966 0.5479539168178847 5.059271313672661 -0.360701862269011 0.8415650021116667 -0.8867056032040472
Ni 0.647864509874736 7.510784239466161 2.576288533419289 0.16402429750518202 0.846470152722768 -0.7163679618863276
Ni 7.732591522897568 3.8220847833793905 3.5066005061224383 1.2166704414005176 0.8278000871170904 1.9806734886663049
Ni 7.497033917946973 3.9909632407271087 12.5061093495181 1.1911846384245872 -0.7472394546542035 -0.4290158161540611
Ni 7.719282725463859 -0.370057555291658 7.124627274306657 0.8692555260483996 0.11691551694283736 0.925855019709999
Ni 6.968133117021829 0.8759693684763667 0.4449021952672007 -1.8468429411356837 0.20042314784919033 -0.32147531266822055
Ni 1.650651309604839 6.2018996041085535 9.267622091628581 1.2374117877129271 1.4994444808437983 0.17280178658749595
Ni 0.136335429039266 4.835202345640128 1.24844449340341 0.004541082403463147 0.901025362260829 -0.008827111373326733
Ni 6.408082341331396 2.0232525842705904 7.14120425104247 0.16049622974726555 -1.0182152159109754 0.4262549655794723
Ni 3.531417764004579 4.307364806798382 0.41000377112315445 -0.43786195369078135 -0.42571734790844745 0.6539775725745639
Ni 5.950005607995253 5.573133263604669 4.790867921040713 0.2662701282509866 0.049204743859424936 -0.5688352342782655
Ni 5.05106256996101 2.577716728675378 9.220131220352775 1.8870933040152982 1.5345302688033378 -0.31427262427219427
P 0.1140636926703429 5.617988506411037 12.149345273477595 1.5153986901802095 -0.22130230529104467 1.0139145316530924
P 4.066878351342546 6.1372478630206295 12.542600864648117 -1.244567682031418 1.1824164053136539 0.4548857419422876
P 2.247672969432381 8.69287937672646 1.3223276921560843 -0.5270882322484663 -0.8900439235486608 -0.9278298840481827
P 6.268110195539086 7.696044141454695 5.917247224061435 0.33253054204111765 -0.9910201435534222 -1.4479545404946224
P 4.57659538128843 1.1040535024780669 12.543009049159794 -0.6705768716941419 -1.724601898214875 0.44377960472679695
P 4.13560292685162 5.952708816681857 8.147374566978637 -0.2686985351868211 -0.4910123124615156 0.14500481897988576
P 4.727335308349042 1.0809230468163662 3.7468607931181612 0.5571148605175438 0.05611201250221949 0.42010437259704425
P 0.3256303205273358 5.587685537034216 3.3154791466317866 -0.6060452676696595 -0.8823635241852674 0.8905882260879049
Ni 1.4235367264520673 1.3324385937135421 2.6650438852960914 -0.6301683859701083 -0.35143072137973025 -0.7832333562503091
Ni 1.786064043412411 6.407730924202137 4.596382868874365 1.862451337096902 0.649730624372752 1.0162889454225401
Ni 6.489521008363126 5.6028235056791935 9.025001002379891 -1.7500015692349022 -0.16512138722410274 1.906341867832265
Ni 8.318647166153125 2.4105593141914627 10.234570651661262 1.0775236238633057 -0.3892817307892328 0.22660983354688716
Ni 2.1340571083344524 5.267039933324977 7.022617189169877 0.7820619616500273 0.415153199239356 -0.23297125698854074
Ni 0.5948969377998723 0.041121210540606606 8.976033278091638 0.2266262886071194 0.1570039003232909 0.32588424036919356
Ni 1.202071849454296 1.0051160645483928 11.191325411736763 0.6877112173815834 1.1038602048753052 0.6637734756190633
Ni 4.083710330764462 7.148590318243831 1.3630127850285854 0.13858631704805163 -0.06866902323162367 0.3447119145986579
Ni 5.549363048553805 7.7068389548098635 8.023868566365989 0.08558765336383324 0.4068858170242412 0.34241566236531346
Ni 5.35835432275843 2.6563801014555284 5.258990678925834 -0.035052363618442856 0.10601763908341096 -2.357617009605159
Ni 0.5928758387718553 7.287219870388461 6.683394234296739 0.6176244878668267 0.17159671053580125 0.26090320751211843
Ni 5.284331458223614 4.350931520130802 7.078588026095557 0.1253657045927196 0.5025987317475344 0.4694304725256818
Ni 8.267196094151446 7.194148395308717 9.160969696107342 -0.4683580653971095 0.5641144317638285 0.4096857483668815
Ni 4.43657818201801 -0.0051766446348449685 10.142280403891947 0.512253481228479 -0.2591713124226762 0.8053867524188968
Ni 8.102651781397913 7.126451039100552 4.657153703357889 -0.19206320592026924 0.03184259843189355 0.41864141489827256
Ni 7.198860989119027 5.926298467813743 6.856790654429333 0.7699101567788418 0.5149595673057326 -0.32222890300479345
Ni 2.549522262074107 5.440874273264801 2.3856681686052212 -0.7878777970008559 -0.755244584346867 0.34858836683492866
Ni 2.3822477085471063 5.18369099882138 11.505557202302256 -1.4837324694251801 -0.7279417827668561 -0.2768049663440394
Ni 1.2753378155568622 3.492311345005054 3.7310614394145283 -0.09931065937688058 0.4058113530131398 0.3673635905599028
Ni 3.6051612969751123 2.622139458091889 2.758613651843734 0.17499982268007924 0.9698301397393684 -0.41587645055862565
Ni 1.3625523384823008 3.1290992151774373 8.007027576248452 -1.3680634232949342 0.07946611384712765 0.4552896622489256
Ni 3.698575178488494 2.6009643233801647 7.078152809497014 -0.44307486535028856 -0.5647523224581436 0.0456332244580827
Ni 4.20346247558098 6.792640809087555 6.05818801963311 -0.7450151933093749 -0.1385634342299162 -0.5508112868970191
Ni 0.6478699162921091 7.657721652974285 11.338134873367054 -0.3827562709658892 -1.3474457470445824 0.531900051814813
P 0.05316310416986129 5.586342943386536 7.981548032238093 0.5181973575167398 -0.7456443422529416 -0.5334691960741458
P 8.410799550279425 1.5625717598996876 7.957783223604603 0.859009165730043 0.5710666947119455 0.0260874411156712
P 1.7520486674393219 3.1264590813601885 10.258981527170851 -1.9364780250960136 1.0001259625094323 1.3742973200197879
P 4.00589396337278 6.344214530762587 3.6883714667661294 0.3102244223447496 -0.8137258684122115 0.13257353519506845
P 6.689828772040416 3.796278151117953 10.437363565191104 -0.16524428595521218 0.8720210046086787 -1.6508842568157507
P 6.306549823062582 7.740367753219363 10.13908881550263 -0.27531501206207426 -0.7041449374575743 -0.2949119603573953
P 2.4983775537235764 8.373774601968584 5.9271247486022824 -0.44203048324617417 -0.46083270355434186 -1.2239844585634276
P 6.960969614002331 4.080926025817261 1.46089416943136 0.1684684493194647 0.6636755165886183 0.25133253310454784
Ni 5.492929061873154 2.774654492190037 0.3929357114759424 -1.210864890462334 0.9169358628434983 -0.38342295801561066
Ni 1.5457668125646382 0.9409599117196789 6.9908076314850565 0.24022896699221852 0.009008374146197389 0.18212023577494443
Ni 6.864609235020552 0.6599316334517322 9.272369827151818 -0.7413158900809168 -0.036818454379930136 -1.0810702035639832
Ni 3.027440547169916 1.711392408792811 9.441770003776051 -1.9078850439496688 -1.975096765909476 -1.4685051109524645
Ni 6.335041642619379 2.32471441700057 2.5514289252677247 -0.8950909990542648 -2.431265488329245 1.1865908484063177
Ni 3.918967782707246 6.621734945224883 10.375670035475887 0.7816937796773312 0.3322268947577698 -0.7356522640372363
Ni 8.31844893084944 7.110700343153277 0.3304825801197884 -1.547871208886618 -1.3534667564276819 0.2710647214261525
Ni 7.699702483877231 3.751891464483929 8.184340945767936 0.8076521514143057 -0.2194840211353833 -0.3712307868247929
Ni 3.109527984286431 8.31329481295365 12.407106133510386 -0.12512093557176515 0.22440742657892962 -0.2570840908763443
Ni -0.06586548178820933 4.86945199969939 10.107662212381744 -0.5055842967384196 -1.3113266327245223 0.6373517910924249
Ni 8.876742620893582 2.1547456654825883 5.792923052286309 -0.07496051266729026 1.1297239600159448 -0.3701447528494658
Ni 3.5023312385367293 2.7107686602299834 11.571656061107076 -0.1853701101708098 0.6617826704412796 -0.21035557647155384
Ni 1.0342746755812184 3.2591055316118034 12.663350493469993 0.24623095021192432 0.35302249134688235 -1.3299262501035805
Ni 3.1072212462071964 8.049831083661688 8.023301793611365 -0.6154087111624305 -0.06525356979217149 0.6305761629314882
Ni 5.608698479224745 7.974699903565366 3.7177418291460724 -0.8325813105558177 -0.3794477754179465 -0.4124941643499541
Ni 2.8504614744580103 8.550600492854915 3.3474995545941635 1.610892546914161 -1.667359114542322 0.48108168361136505
Ni 3.280352751888504 4.277097880204049 9.2567155456477 0.7894857649179241 0.2973804765025459 -0.3247760949066794
Ni 7.162187457937445 6.293114875890166 11.461838208213825 0.04638141547801689 -0.8740179804340495 -0.4630942458950089
Ni 0.07379489393557848 0.0863990549716466 0.6041229890472486 2.873643584722825 1.2569334026856225 0.2364139641215025
Ni 4.797177210115245 0.5100711502838287 1.632866899655677 -0.16066643677654266 -0.1610652148768581 -0.30655700079549136
Ni 5.954510955806259 5.6373885340852254 0.3964994415944475 0.26199129836997465 1.5075069461369588 0.8845952417292636
Ni 7.617750207195047 8.94221433528311 11.3980875366881 1.1951459370651805 -0.12704232096419413 0.6982200873327071
Ni 0.14861430396337955 4.867559753618767 5.588152291067436 -0.16470949649766473 -0.41715403171946863 -0.0760552883933658
Ni 7.581527210794564 8.949648159171268 2.679366385987277 0.2675029722168232 -1.2373225704332302 -0.42401502050536005
P 8.423333427889641 1.5758174824640427 3.5775921726500095 0.7553695399605056 1.7197797942358835 0.7707169689508533
P 1.7915785891330815 3.3129714700401816 1.5561912863297418 0.6505142966163119 0.128189804305076 -0.03198298066449976
P 4.591336879326039 0.7730248742035846 8.07193882537029 0.7198523208905022 0.7700713649470544 -0.40446358073599376
P 8.504402656400869 1.7194389599832662 12.411154639053356 -0.19090158151200026 0.11009515158689426 -0.12620696954709235
P 6.348107151271295 7.890747252455094 1.217953200488089 0.122217388771725 -1.4803974915146763 0.6900627483328955
P 2.028794162078127 3.3436438779375046 5.860709614381131 -0.6853681710707036 -0.4375945589620076 -0.1700339940343717
P 7.230803905099054 3.895197567656383 5.901526263409714 -1.5707658540966043 -0.446616817065276 -0.6323880193292464
P 2.2704339865735794 8.301815186731208 10.185286651956675 1.055334746471092 0.11758554642666846 -0.3131706494572671
