# total energy = -381166.5730879303 ev
CRYSTAL
PRIMVEC
9.26846426262153 0.00000000000000 0.00000000000000
0.00000000000000 9.26846426262153 0.00000000000000
0.00000000000000 0.00000000000000 13.56533431906812
PRIMCOORD
 96 1
Ni 8.85980833571024 1.3697955911524549 11.022932558155127 -0.8552954643238819 -0.688696207002672 -0.8088238031249038
Ni 3.307432909389416 8.634973931381314 13.152500305998936 -0.24722673846629034 0.3965492109849235 0.4853376306742415
Ni 7.062569713028335 8.461718530271552 5.6793988012028205 -0.17979158764176778 0.452235191693318 -1.694917740886881
Ni 1.8107705803997804 7.301353155963701 5.628704936313833 0.4692391824504822 -0.9678665882550945 1.9428584747010602
Ni 7.8463851926758155 3.8353924350629502 5.031680522879666 1.612193782224088 1.0526618276246191 1.4226543711669368
Ni 0.3575578846879735 7.414066948982254 7.524880706841791 1.1946682260978134 -0.2051038411543113 -1.1370752581746932
Ni 8.535124766658933 9.261327472899348 7.946735781310893 0.17858291204564727 0.08986905434800652 0.8459587603039882
Ni 0.24048142557503382 4.591763992242877 12.8586751616229 0.5057948700873289 -0.6831215411283719 -0.35310296687583065
Ni 7.412546920855041 1.9026674028468618 9.006459537208091 0.9392864626245565 1.4174347746392104 0.33183711551851885
Ni 2.6540617947565823 8.391361618602788 7.37292238274856 0.13881231701592867 1.2988945776087566 1.0741945594900726
Ni 0.42705839026555126 1.6571179810525578 1.705108234937227 -1.9232836378929263 -0.6961940580416139 3.305506126297062
Ni 4.37003452341771 0.35332590393867064 8.756450130445401 0.6044889789261332 -0.316251602375436 0.33438353608945637
Ni 5.549381712387348 5.294962370362902 4.718986639104966 0.8222891846011902 0.4681755170726582 -1.0969308247453236
Ni 6.407993698050759 7.025125117699418 11.558166901371646 0.42128965115439704 -0.05807479265554514 0.240421799729315
Ni 5.308800187399059 2.6753143831449995 8.29760276169987 1.0620008456373582 -0.827473299905291 -0.9515341696436581
Ni 3.9674402443825234 2.615124976693023 13.29557388031932 0.4188530166884464 -0.4407138213172797 0.6601009118634825
Ni 8.493435214730846 9.270688621731578 0.5534468753505114 -0.6108300906528125 -0.7650152905803856 0.158361699902766
Ni 8.29098415142156 1.2657848860086176 4.7506347369292525 -1.761961826920572 1.462064240423127 -2.341114641074762
Ni 8.506596433881109 5.051637379974276 1.2476909902162636 -0.5643610005569959 -0.8267060827219633 -0.2975856505348165
Ni 5.922826671543959 8.837035719194608 0.2701154861307628 -0.024874651754492643 -2.2299974759812558 1.4929082223871775
Ni 4.437555285044234 2.1055170101163347 3.8026747564711 -1.335995339115796 -0.5020145771092902 0.5657861630392966
Ni 5.440523600471971 4.723904486204352 12.342528293559939 0.1546757664107465 -1.5326379368766314 -0.8826589439384993
Ni 0.9622612207038251 3.1039715834833825 8.343670736111466 -0.03911650638548747 -0.8747947106990741 0.48883895895928076
Ni 1.8446190116228507 4.765807212808816 1.5352701165744385 0.7075040837377944 0.32956888830963244 0.6664795616963167
P 1.6988075329806438 1.495012542363758 6.880567662262162 -0.7652914270599078 -1.195371422812425 -0.5965211302293082
Ni 4.381684982904949 1.0877098835198862 6.497862580532997 -0.6626617306121233 -1.274178048698683 -0.8854087387694946
P 7.488362957931907 2.8867002459337625 1.5715441048761167 0.9210956506481428 0.8801971126615681 -0.5366095414753403
Ni 3.889093916581699 8.081553934576954 10.787058486129103 -0.7474718823799836 -0.8624940389548501 -1.155281496770075
P 7.923767600200847 6.0255212547727695 12.996241414521394 -0.7402339698706477 1.165706805868457 -1.8220644486394233
P 0.85316120187308 0.4085891216734889 3.6607680817922774 -1.0138086022028476 0.8011094651997817 -0.832579767893921
P 0.28175667715381214 5.400076022745388 6.344615013070891 -1.6393016941844738 0.6773918377334464 -0.3001001894265541
Ni 7.56438290122096 4.158398412095808 11.431371530708732 -0.6695378889066663 -0.13708376436059616 0.9926538225021033
Ni 8.193396491961618 6.700043004687928 4.851831536344907 0.8996315672370958 -0.09483128344928829 0.44328955246425594
Ni 0.48740443376234416 5.487959600198058 10.670017247180086 0.14180559531629772 -0.39004946219319275 0.632997113668155
Ni 5.4972744067093355 1.9258663687152475 10.526292099827122 -0.29700046745530784 1.2585231157702454 0.5087341552213109
Ni 2.0349561922353834 7.000359781382867 9.503520783810334 -0.46259493766108717 -0.6090082069527254 -0.9387426743059446
Ni 7.608556401552053 4.481432194521236 7.574842363059743 0.4873621173034381 -2.1147421203496615 -0.35179478958736826
Ni 2.485255256458177 4.725860132148511 12.885073601329788 1.8981068815169826 -1.2000806553626366 -0.4949995792440378
Ni 7.463189809190982 5.710096881447599 9.698331852087538 -0.04743042556782154 0.9090898844365183 -0.7773768974695322
Ni 7.381275122676882 6.74447602201635 7.16773248827103 -0.27873175105310705 0.08034748801081647 0.8205143520889546
Ni 3.2291978031588755 5.9916728235497 3.9210738254239996 1.9135221876307884 -0.3044913765157143 0.3771543513980795
Ni 4.248450810169015 6.570924030052498 8.860442298660857 -0.7371339907890854 -1.0802628771713394 0.15046661342540538
Ni 2.7140102211396107 0.4864989048109493 4.6983939653669 -1.1656021619697925 1.2779917660178184 0.9743115725494899
Ni 1.864824263557761 7.7067094373276035 3.5786439279874758 1.0272827254298824 2.6565825712066378 -1.7377698030554007
Ni 5.906977597778502 7.845615910148019 3.520394411090535 1.6130813270353637 -1.8001313960117578 -0.9386881669189253
Ni 7.463551279294403 5.411448428306918 3.2471341350599943 -0.5093828445489035 -0.5974336147412485 -0.46705348765307303
Ni 2.7057890934027915 4.737594007813464 8.178892272350177 0.13084343987783917 2.365053668388862 -0.301501440649455
Ni 1.3289309325373082 2.8752536926587102 11.221420426176632 1.0445096308311301 0.8476590308245466 0.7635533613228785
Ni 8.666106702596618 2.3589724318649865 13.341384191426426 -0.35331945376201085 0.2790801355314613 -1.1697251829992306
Ni 6.320897940054266 1.0945407416281565 1.8222857203098413 -0.07363485187733126 0.16555230411393423 1.428359391971514
Ni 3.102896441637305 1.3886013049946262 10.333190136346616 0.44524513352872996 0.24855574169035904 1.29846134672608
Ni 4.771099505861492 4.510461024365338 1.1267069466006825 -0.4712083903617111 0.7165955045161014 0.7737858376841642
Ni 6.078314426800866 2.4369016787772466 5.795382508387721 0.503007794260495 0.5438369124617151 0.1685638372467484
Ni 2.0223603494007305 6.773532657253022 12.053912026058864 -0.995724233897311 1.241552806464494 -1.5527645324231774
Ni 6.529002766519653 2.960727469421895 3.4361394373683773 0.19800451110536868 0.6395331150144599 -0.2438079425927285
Ni 3.8337611853654527 3.9776170180635013 5.518120109519797 -0.7111568499990333 -0.2833517663236217 -0.2887767939939349
P 3.6774299998672264 3.317656025391346 11.349341915238671 0.41128034654751106 -1.12338053429642 -0.42915028484939644
Ni 0.7056322768164055 6.984612660723504 0.2547511530424596 -1.0098424184662478 0.025125591423034145 -0.14821946926244153
P 3.7115286796234352 4.065954750261498 3.2124339319778334 -0.0450549833571095 -0.14235426873091614 -0.7446781216849304
Ni 4.958804442643972 7.851176988662214 7.1855983798443015 1.4935525408393957 0.8184392147274808 -1.3519019830437233
P 7.311353828825063 0.6018866497484117 12.361153272350398 -0.5094337523914969 0.5570035317506601 -0.23594730889772914
P 1.757347152806742 8.670861424726256 10.751992178711424 -0.4249012797650553 0.3690769737065837 1.3473387891530733
P 3.575124692134409 0.9170190664515874 1.1049408852961211 -0.8180597199008749 1.0278982475266945 -1.564676710479731
Ni 4.199439171530571 9.106052892318818 2.718669478088087 -0.7381665458186578 -0.25556148358423086 0.1312404182059417
Ni 2.9165817744833733 7.070540592232015 1.3979615269804362 0.45980786183425326 -1.1967932428606163 0.28418094709313635
Ni 6.459192694238118 0.386467151344019 7.356697936183394 -1.0389372789496751 1.7737585624451837 1.561938485612962
Ni 5.421050557208095 4.505502396023513 9.55715738607975 0.6676645831433533 0.17410302189742274 0.47861830967253705
Ni 8.205797697048274 8.613693537600327 2.938807551611775 0.03891518900795879 1.2665349303311284 0.9512976281528196
Ni 1.2991142832370297 0.6481557498329376 9.137270006558255 -0.7493708991749094 0.2107129598109726 -1.5860142956152425
Ni 0.2860553908452853 6.825139465864757 2.486172834413019 -0.9592672766218575 -1.598255317766125 -0.3325300278204854
Ni 1.6782130055497395 2.473373085366179 0.2628434491270331 1.8464495623520072 1.4334370636047378 -1.1737944679725978
Ni 1.6543281733312698 2.542571439011152 4.124715886381745 0.6537392313115128 -0.753822764298676 -2.3737707365468856
Ni 7.380802431003175 6.996142630176269 1.4075794122707375 -1.4821599827317375 0.9204598168363568 -0.48278401101445234
Ni 1.374995199563228 3.6347209168782046 5.896417109680044 -0.3341804189397148 0.026297757354264387 2.3312156367934946
Ni 0.1606502898109188 3.7340695845343075 2.701359694366235 -0.640183089893633 -0.5467052351484455 1.846159541915414
Ni 3.2745020561211886 2.7785187319042786 7.50671637072159 -0.8626920138982691 -0.6243080705345893 -0.0817677653971108
Ni 5.493882148815676 4.939535305592284 6.985170622267762 -1.3722694909564819 0.28755937664706605 1.0252248144595892
Ni 0.18146818722880978 8.999391406416548 5.727704182869961 1.3285987895414086 -0.4128366352910374 0.8448390448772483
Ni 1.196771901647451 0.4817719880738831 12.596755778375643 0.5127067667158137 -0.020600706969487105 -0.03820402187354711
Ni 4.188344819894751 6.4718348793937235 12.48352573190169 0.7146764331165175 1.1643142963963045 1.7374507291530852
Ni 1.5617732899266752 8.988120953961111 1.5103101425098906 0.7413799105496328 -0.2118419312090932 -0.1709117686536347
Ni 6.309525534492736 2.681375958725473 13.250428118094662 0.06564900545837725 -0.8195805274207757 0.08369480721649458
Ni 5.157650073383224 0.1229758365700821 11.92946343052894 0.6896896812641929 1.6526398060542762 -1.3340569844425025
Ni 8.714932971951255 8.211062184708378 11.931525663811287 -0.04515757037324481 -0.9709223443622826 0.6087426119961645
Ni 8.990623439292499 7.753635671523225 9.706118288853832 0.027889784431732616 -0.3586866316111952 0.1394445512832889
Ni 8.478031027246526 2.005389791468244 6.901391120758568 0.48963960048370514 1.0632208340873883 -0.289426768873108
Ni 6.926999887316438 9.16128367042897 10.027413307397154 -0.43598736237588787 -0.9041744494127719 0.35376836837397135
Ni 0.34927465824107923 5.343158384152597 8.400781158759417 0.34755992557041426 -0.2873719432266083 1.1914060104067739
P 5.879746849987324 0.5501862296483547 4.416913488445959 0.12075031730789526 0.7446758076920853 -0.09894787672082314
Ni 4.171596705102832 8.213648086217479 5.037093305966817 0.6810461466565818 -1.4309988864768903 0.2566570306412547
P 8.877242316852243 3.3919705712693786 10.010714315465442 0.03672435200422708 0.18285171462433022 -1.165304942444348
Ni 1.0382348216719266 5.59180347298647 4.422339247382976 -1.0658454161944289 -2.1826552392518668 -1.9125857918594482
P 3.677087066692184 6.378723888137709 6.344574231828454 -0.08402879351714561 -1.6267727084795274 -0.09667090776118835
P 6.148958660859531 7.385195683029389 8.891018035178323 1.9017498775862085 0.4199256809273349 1.5304851521996867
P 5.082575513441584 6.860118649719046 1.1586562695111549 0.38311905362194665 0.0028266708155177123 -0.27180159959217703
Ni 3.4338825663380326 5.131818863684786 10.450787483147051 -1.5662628240199283 1.1831190878076334 0.7862806277170652
