# total energy = -381161.79977282486 ev
CRYSTAL
PRIMVEC
9.31474742653216 0.00000000000000 0.00000000000000

0.00000000000000 9.31474742653216 0.00000000000000

0.00000000000000 0.00000000000000 13.63307440783720

PRIMCOORD
 96 1
Ni -0.2283370656970758 8.239173709222856 7.861403873413315 0.71266994420945 0.10820976163872331 0.7461279667575794
Ni 4.589078078725883 0.43597955661457327 11.981986474544946 -0.7811739026181191 0.29358681378806856 -1.8375144646459063
Ni 0.12924864350227078 7.623440947529348 12.248949935658123 0.19061078974445883 -0.6519726263293932 -1.7692668452224174
Ni 7.899865397796606 2.524510843266713 10.669476126571046 0.01126837382496769 2.6491749658886565 0.21939866051042858
Ni 4.0531261303676995 1.0803616875521505 9.489520226028517 -0.7206707030267395 0.17688495551793407 0.5728597820566264
Ni 7.824564978064817 6.106543612929919 12.87703871006492 -0.7443605904445116 -1.0007484265847797 0.5038981672852484
Ni 1.0593941906674087 4.420825792529041 7.089635117022005 -0.03660479570722728 0.11892740516654358 0.3307261418425272
Ni 0.01574099199712356 2.036446012404956 0.24762418211180096 -0.20784592267582266 -1.6830842385870628 -1.589851667083462
Ni 5.047345031962456 3.3977591175659834 9.824934041476308 -0.5136485618037928 -0.06526154021197147 0.42720293131503845
Ni 3.054771480831216 3.134673385885554 8.232781929408413 1.7703292250486606 0.660929578412365 -1.1468734752120378
Ni 8.287107400457366 6.118894968269398 7.934149257873895 0.004335651260876404 -0.4057473325444238 -0.43616605404559716
Ni 5.622363031824242 5.150654897777059 0.5199231306597107 0.9392980325887822 -1.6874664268151582 -2.0298643485686587
Ni 6.149000232565926 7.2268376235140055 1.331119350762142 0.9404419163852384 0.6553266304032908 0.12310699046552992
Ni 8.234488391171755 2.410973384569193 5.217555278108286 -0.2194421121538543 -0.825335684736998 -0.7620119849776876
Ni 2.9587923213907983 8.513809727947745 1.697726393028069 -1.19645694256712 0.24018757223132187 1.9484051155509023
Ni 6.611701005667954 5.843532399230421 6.17720063097488 1.26273535407938 0.6023071407834658 1.9120707998962425
Ni 1.6779772651315654 3.4541692291315083 13.588371520970854 2.3557812419480006 0.7766742149755527 -1.999228368850357
Ni 3.5438329896879384 6.072256026953581 0.9242558322472247 -0.7030468192973892 0.4253131704914933 0.13690764379404807
Ni 4.865390752021743 0.6756461498375982 4.727009929956255 -1.7215255732823964 -0.14655313730361214 0.7204027940773334
Ni 4.6587523908973045 8.725431479047012 0.263132305418512 0.9703065651551549 -1.2332193468981343 1.2942151698552162
Ni 1.6381567190710273 8.692373439756052 6.236995721824241 1.108920650117348 2.976633492723506 -0.9055813570626274
Ni 5.3782793852814725 8.226095803569288 10.207900574981094 -0.531060329522337 -1.1100717330026557 -1.094129607851103
Ni 9.065773727458692 4.336620474075881 0.5951099104705765 -0.15742710390363857 2.425734788319003 1.3446435017090972
Ni 7.446786758982422 3.1126160635296816 13.299650672375053 -1.1793719620603753 1.8802986496909682 -0.07641549994626196
P 3.0842806012802884 5.320975057944764 6.9410481259931185 1.4427827664856958 -0.38085211196464086 -0.3887441131182079
Ni 0.939029021966994 1.4383833269399493 6.951913779087765 -0.2825814638165004 1.0237374312807852 -2.185870146644739
P 9.084710609363038 2.262757120495443 3.2771322044575455 0.11014117433348128 -0.3231352168691467 -1.057647453764669
Ni 1.083873347403571 7.820634154570655 3.8819909297835506 0.4151483141433496 -0.24393238398573475 -0.3230056332698179
P 7.563696156317115 5.503441649004385 2.0175454580163157 -1.0668496890892272 3.253370324833771 -2.389322568238556
P 3.02915592488584 8.691907702375227 4.198591749470297 0.8213201358197015 1.1609019282806459 0.3704365730582717
P 6.592102776682837 2.562887603446694 8.539280905305064 -1.336827605209104 -0.4119169516902454 0.0837804249517654
Ni 8.057871461615296 8.296459407064331 0.15548269868938175 -0.804239526188331 1.285255389558767 1.2184535014428692
Ni 1.1708172016559832 2.241836197348784 8.829897305040822 -0.3501533973292034 0.14305515145268266 3.999594707959899
Ni 3.3765494372432125 3.63974694589504 3.9177772586513826 0.3484320437627225 -0.2523044100995139 0.45300035199411665
Ni 2.737669527722702 7.94941054036877 13.143333372299232 -1.0863023984972002 -0.8385056464600527 -1.362543007697337
Ni 5.332348364784512 5.83440394656625 10.931380748253705 0.6917843590096925 -0.3837471741242488 0.0912124557497784
Ni 3.8745717333070084 4.872143944043706 12.517112204789546 -0.5703632408870177 -0.5375641920791259 -0.5030849273553336
Ni -0.09919554179239477 5.413405298543295 3.159260593694068 1.4282776308909853 0.30277593648650436 1.7805197924284173
Ni 9.157179345819408 0.7416448625995481 11.0871522041192 0.2555722822175082 -0.9040710910656882 0.9451778884083271
Ni 7.029942488396426 1.0946691398910946 12.673756452506707 0.4749496025716981 -2.929209494913587 -0.3953191952325643
Ni 0.8276451329184088 8.06848095915049 10.103716985840062 -0.3172648741312988 -2.4527941064296406 -1.8183628314181202
Ni 5.911846758249833 7.809773158849816 12.333842682485383 1.4676160234792919 -1.0842092634135974 0.5039146223454805
Ni 3.899935791066738 6.893900599457441 3.1785374638864146 0.10724585506355723 0.714693402397382 0.9946955355224804
Ni 2.954013855863534 1.945776259105944 5.876414389791429 1.7574657388224315 0.20979199065859996 0.4181886436315701
Ni 6.611784838396502 1.3121126082506733 3.4976877299957967 -0.33067317711740474 1.8940494236181575 0.633882858707218
Ni 1.1500825734616538 3.4419017065205773 5.044387599594217 -0.2215031084479411 0.29285199250457306 -1.316906697915461
Ni 1.0965041451715452 6.752567933872285 6.195100781469509 2.171519020129389 -4.393429605337452 2.6689989425931198
Ni 1.4973829383428612 3.4931607626541776 2.3911590534393743 -0.3221114035903227 0.11961646081376817 0.16818202842729746
Ni 0.970838885077342 0.9164184036027017 1.9183368755772578 -0.07053898656082691 -1.1583796760794243 0.8783266351117325
Ni 0.8545638220553325 7.171042285291169 1.3200357325732686 0.07625249200583642 -0.19020866921003374 -0.8469301230783219
Ni 7.109071269398594 4.595160608919458 9.342432909365886 -1.628461923256492 -0.04163773014544442 -0.11959666331942627
Ni 5.431000856790863 -0.09607416986610559 8.017965219876688 0.8123367013741687 0.6691267695111766 -0.223868266246008
Ni 6.434022194883213 3.7744288816820157 4.553692284005561 -0.5095875043605417 0.6026683807776266 0.15543038518858393
Ni 6.960901579062927 6.91671241637025 4.250301639388535 -2.1727976297314964 -0.40038169735713625 -3.74734840479183
Ni 8.637062468409274 6.0547256719393285 10.397414704087359 0.19147519462728313 1.0236654403922694 1.3271797977066948
Ni 1.4078495842530618 1.1436367681110358 4.333995578197551 0.37113257068403177 -0.6468975257993311 -0.5229631543364993
P 8.341244713604462 4.7545359406377745 5.543876036932851 0.9525291865670756 -0.10737055356687959 -0.29580130494088414
Ni 5.191695675775359 9.105715365238245 2.5409327433146025 0.002276968959634788 -0.24899308633809372 0.010380314793059542
P 2.0626390827025545 5.828833727491584 2.5475033662832822 -0.23315123420983072 -0.6186313318647862 -0.28902799077279256
Ni 2.3545260140132025 5.672793075419974 4.681338790917794 -0.04630531082444283 -0.5816719810316177 0.0667383818678141
P 7.192596611275751 4.467092143940198 11.546996144127245 -0.5602212673570093 0.660325626279779 0.08353694148239162
P 8.581192612205506 0.3414385942061436 6.4438362129719575 -1.4079939409412847 -0.27477122374346225 -0.08941731152256858
P 3.785373710131403 3.2296651820786217 0.4881169934484094 0.7226249985396329 0.10880265802771585 0.060409868546625
Ni 3.997405310125795 8.07798200171932 6.6561304888491355 0.2857166670113725 -0.32631464303839286 -2.9008713100905266
Ni 7.750931898156384 8.358588773666387 10.071106985909458 0.3664806737343172 -1.2125687605273183 -0.2697421459599871
Ni 8.396881701117819 0.22022112609881922 4.385964418099528 0.23637565468439936 -1.278347092474708 -0.553688351334498
Ni 8.114700736823565 3.2351236241818913 7.2057481034354876 0.32499283890317576 1.490780120300581 1.6854535101501877
Ni 9.35060939482365 4.241954694049389 9.224465356701959 0.9538085675001315 -1.0320960876581258 0.7176324304210479
Ni 7.428921073053975 3.5282494169255334 2.323662529260691 1.0145763336068074 -2.3998813175910088 0.1838621581667156
Ni 2.118685919111036 0.264904901889932 10.82166233607895 1.4980871954849557 2.9603465826380244 1.2949070537159182
Ni 5.218177503249069 1.496358316105046 0.6393465783760971 0.5583340776366256 0.6856947011721869 1.9708241066760512
Ni 8.253602253280814 1.1498962785093239 8.593486216109763 0.09713910564685851 -0.6510686264578852 -0.20304310197054065
Ni 3.3007087621496685 7.679366692218815 10.876821477039579 -0.1349734028858127 -1.592297300410477 0.23988598183050297
Ni 3.349909259060022 1.5855656540282679 2.4013978240194307 0.24664052694551716 0.10239495472915912 1.2809058543408198
Ni 2.877502518941602 7.847190500025296 8.474305883306169 -4.219232738174643 1.887906801055529 1.732761808317848
Ni 5.292416041752575 4.428240331631776 7.476950706188935 -0.7752583084646325 -0.32386001085031324 0.1671042219820864
Ni 7.713384150514273 1.0199089755210646 1.5967461455923528 0.005104153995784758 -0.35185983849734886 -0.6236069307025067
Ni 8.411897074275617 8.077227507162384 2.600863829479165 -1.2413851705383783 -0.4474069170667392 -0.8216068138221849
Ni 5.554495780690422 5.410452523548865 2.7077058475899447 -0.21883790291095215 0.5028602129390373 2.54323008902471
Ni 5.140567026108389 3.309427365918713 2.40060700194679 -1.1597678146762025 -2.0365399608166213 -0.9461428234247576
Ni 4.732813949196096 5.535698620000325 5.159777761592659 -1.4572441933266644 -0.21041316918236666 -0.5135932830858252
Ni 1.6683085571056384 5.905596562599162 12.058726954258244 0.36542600721755775 -0.42647248090691714 0.13463658837168424
Ni 5.76153467596237 2.305195110636218 6.386918447661333 0.1325614510102104 -0.6856759321191094 0.3087054145970619
Ni 2.295535717357907 4.365077028044288 10.196394998725193 0.20908005219323994 0.5061396550212574 0.3614521101714743
Ni 5.332115496094098 2.589155191725224 12.346003085498724 1.8744460475649332 2.403986083788002 -0.7002561439261296
Ni 8.579348292177439 7.295301018495281 5.506181116278397 -1.3411480869613288 1.4694610471078304 0.45029992234381805
Ni 6.416361433402329 0.8813269549070607 10.188555707131147 -0.750463875128772 1.5325626035540056 0.17162962065626572
Ni 2.7014724184849825 1.16111123463959 13.855021075089356 0.015810227559379223 -0.14868766714811166 -1.5443567679754564
P 3.0256163207915705 0.5734615055350685 7.639797644343921 0.13197189705532755 0.992675162658342 -0.3708885729940258
Ni 6.106580871920385 8.37162010558187 5.863626172788735 1.6168770466323703 0.12429072636098593 -0.04641715381195877
P 6.322878626323134 7.204128268824977 8.436351081193214 0.23991992039223198 -0.5863986970833255 -0.29809575740201566
Ni 4.1904813987206095 6.296024208944764 8.781213776623185 2.277274406690349 -2.443434005370979 0.05306371259419893
P 1.343354271756415 6.031084842488651 8.77285658506166 -0.7544663114199458 0.45603399661411786 0.714601356904208
P 0.8978764669972965 2.7429882486117236 11.098535757181322 0.672122618914707 0.18079586053656604 -0.13599155973768193
P 0.974192194219282 -0.16964204654122358 -0.35428922001786717 -0.2885726484029288 2.068978283850985 1.2683462725082544
Ni 3.434589629641625 2.6213469594878482 11.504692286352148 -3.6384135920616245 -0.4523858583385693 -1.0203448606594685
