# total energy = -340885.3880436519 ev
CRYSTAL
PRIMVEC
9.05867888611981 0.00000000000000 0.00000000000000

0.00000000000000 9.05867888611981 0.00000000000000

0.00000000000000 0.00000000000000 13.25829221513521

PRIMCOORD
 96 1
Ni 6.75329031298301 2.129813140564281 11.364119758109519 -0.37473725731615465 -0.33655868936390426 -0.15877281929825557
Ni 4.732145082888201 0.6773518342666099 5.698838363863992 -1.0361710290584476 0.05343523700100475 0.13349090480301526
Ni 2.688461860025133 2.0993940972701424 4.39951221035928 0.3531227643701725 -0.25882318505463814 1.72448799834483
Ni 3.8567415430383827 4.125720891618747 4.858594273906234 -0.09104661959587546 1.176512638234709 -0.2830280644356158
Ni 4.032679202019551 2.70312786094628 2.411908550129036 -1.0203726285736103 1.0458556033360633 0.07404237172839508
Ni 5.381480235469251 4.791089905614515 2.25737020799532 -0.4506835309354819 -0.19279262788712603 1.1309673455047424
Ni 5.329048602775244 3.0383805033741487 0.14211436420700072 1.6352866594878097 -0.19661662961890652 0.4307124871301937
Ni 6.203211103634206 8.497557026614045 12.00546334428375 -0.8748636162637965 -0.7002749129792069 2.5090153908162147
Ni 1.9928006242379412 6.7746235014754745 0.3575985912063027 0.016217490300126907 -0.9096948650103689 -1.1842406030065862
Ni 0.45167478192050475 0.20610396513775328 0.3575378980585747 1.661634810464035 1.028721257648622 0.11627505514536104
Ni 7.960730664298989 9.034718560043421 6.760668606837411 0.4611396932717994 0.19505108490399956 0.7889460903643702
Ni 8.764443820399608 2.754336572006961 1.3666647479750247 0.7867902203636321 -0.9621499974862913 0.32447116207175086
Ni 6.912641531144772 0.8153100766560554 4.674581708673609 -0.21540085220494515 -0.38500315801853696 0.0007250510914826223
Ni 0.8012645952303369 7.777681942486999 2.442999747387566 0.34784840334511063 -0.11842758271198958 -0.09841822946959825
Ni 7.434466721424363 4.089757936920197 3.420771792493414 1.6466339661798288 -0.5775664435036763 -0.3271728772736301
Ni 7.703618184901269 4.0848118983143005 12.244019120230595 1.2755417618154288 -0.5752136270007835 1.3785036447916517
Ni 8.604866135268711 7.476788868616208 8.734880822248797 -1.4594232032558543 -0.46390002962575594 1.7474865161225326
Ni 7.119904101296617 0.8980420839523746 0.38818974939698375 -1.2920919528646264 -0.4764164169252118 -1.4110998335601184
Ni 2.261109630589668 6.8801118156983 9.202196318925603 -0.3945524922698689 -0.1763393674271092 -1.6039428550692054
Ni 0.5160756468672054 5.0374225572814355 1.2961637687477185 -1.3573519504147011 0.43989955294610045 -0.3602701740482312
Ni 6.22403700611581 2.1675787723371416 7.095864179589057 1.610570130577736 -1.5779016938104373 -0.9524744220697403
Ni 3.7278184268495256 4.525244859886972 0.6434035297254799 -1.2286903486795293 0.39524437613057095 -0.7859209303848013
Ni 6.106373827632317 5.77619404531306 4.617598089899999 -0.07017157591907916 0.40863442428423175 0.6482812935207352
Ni 5.458605826477678 2.8041321291802426 9.263873239167554 -0.23338906125224967 0.9899240822757662 1.2806052923812654
P 0.37120744431552993 5.766265733386206 12.465181327080035 -0.6182325537644707 0.014263966118181887 0.4308194450217032
P 4.050470447114754 6.139700706810142 12.510113279624186 0.594603344381305 1.2264861419393585 0.8356692054525221
P 2.4442851739043734 8.585471504032038 1.2815693313888183 1.3593170445608718 1.507563767516823 -0.6820756163623608
P 6.482345231110559 7.794413322166651 5.579394249135227 0.4261680622926209 0.3446388952688774 -0.15760965222808984
P 4.879556962437195 1.449243663600209 12.080306148243302 -0.7380135651805613 -1.153152109131898 1.3690059897138616
P 4.288985459007153 6.347615501833094 7.755212795677355 -0.015234814671883439 0.9065984854732321 0.4621591356752492
P 4.980697110852639 1.1533147456928459 3.5496025101588646 0.0895774912495167 0.3393982156952284 0.5345919968246793
P 0.545254557038364 5.949649626312515 3.4003145782375612 -0.8940900685935763 -1.4618210140640695 0.054036618030429515
Ni 0.5943254199104158 0.3657396258127478 4.906443121012837 -0.6647080716181907 0.30542108741883534 -0.38069450334085403
Ni 1.9773102835491452 6.914444208219082 4.712354587389481 1.589646493051191 0.9300130077424307 -1.3464633285266552
Ni 6.2027309936596415 5.892344424442735 8.591890483805184 0.35011663055399705 0.19154795684674752 1.4109224274419894
Ni 8.87646344201227 2.2368957822498126 10.221227928204119 0.6556027668828128 2.204037818692701 -0.20729776348183654
Ni 2.630386670460296 5.342582268850719 6.877977590981177 0.10452639924986513 1.1212537177614044 0.41380054186620346
Ni 0.8191563916598347 0.25762248301221014 9.03816448144577 0.9398402782454974 0.3779678484383103 -0.1993250296890051
Ni 1.476066411424493 1.0745767098641814 11.533322289428629 0.34797875827538777 0.8774442325067792 -0.11391863909804252
Ni 4.118510183321506 7.0244346857883 1.3748845930867286 0.8190380246537442 0.582052761409804 0.6307183449363073
Ni 5.660342602582642 8.234511112625004 7.538531917213147 -0.12040707503586359 0.15132690454317163 1.157341464622897
Ni 5.969479074129927 3.111511217047044 4.704479877938738 -0.9541363831531955 -1.786946521890368 0.1671276190208541
Ni 0.9487788378493793 7.429873971290316 6.749928637293179 0.949896376929919 1.3101655225368858 0.8741527062397011
Ni 5.88288716381168 4.323897606968918 6.703856197092467 -0.5896166897999909 2.065063779287928 0.410694392137054
Ni 0.9286866883477712 7.6211751494575655 11.357318502092472 0.17344301971592066 -0.009491998650835266 0.17314708574205664
Ni 4.985987379251619 0.41273061604026884 10.244363793770892 -1.1018704281387863 -0.3547217334261762 -1.5488649402584551
Ni 8.564156432897104 7.466797145937996 4.641609023835509 -1.5681860091845703 -0.3946874751858364 -0.21504526863773935
Ni 7.899720462814169 6.320964868905352 6.794529948062394 -1.8112545025081128 -0.29851793254109876 -0.5472413101575737
Ni 2.5231228551994564 5.290594511416215 2.5523407176893063 0.3672077817083289 -0.0708889137010779 0.919238799945062
Ni 2.8528497035804445 5.544980328505556 10.906735290963196 -1.0236435860153985 -1.8680622555257762 1.1097775988010048
Ni 0.7482369014735681 3.6806136518031414 3.3504900332922296 1.0873287828791853 -0.7729651415550817 1.2496049873450092
Ni 1.7641052201272123 1.0015728176940013 2.687442758664028 -2.068145503537045 1.8329373867981853 -1.8573677519264076
Ni 1.3587565214128499 3.490562571305514 8.024289977988387 -0.9009741973079193 0.6870990377188811 2.293926670535049
Ni 3.8828486552402017 3.075330854058125 7.129633122290633 0.18178804924650627 -0.5375670202926032 -0.5646790460180467
Ni 4.183741729110992 7.234460152963586 5.632149276661157 0.41413632793906746 -0.11698622227977272 0.19248152440461044
Ni 8.385301879353483 7.336877575084947 0.24694501835145927 -1.206196281342071 -0.5554426150214433 0.2194238573214092
P 0.5559700681499294 5.600519088016088 8.027445115802367 0.6376590379201985 1.0312843903901079 0.2815478803456635
P 8.771663587375613 1.9222425753344135 8.05085908280724 -0.36947086671089274 -0.7758725450098638 -1.2030155696212443
P 2.0061621754168737 3.3560955437122453 10.218550182761073 -0.35871157131185966 1.3371507928764776 1.3132451899034738
P 4.17684807457054 6.060102096498767 3.6950595268302897 -0.4790080889117879 1.0990262738217718 -0.12527725864397132
P 6.988652904665058 4.1151131787844895 10.146385124244567 0.8511953261125792 0.6087351557969968 -0.29176210187450397
P 6.707154462030941 7.835249846040975 10.107644778636551 0.3774063195078855 0.05037382446686164 -2.3267480879404445
P 2.48160693041773 9.02870359734321 5.442807490710859 2.343295707886481 -1.39948616058059 0.7890975283405701
P 7.156030112212944 4.182401044653716 1.1700533723155109 -0.5253349970027855 0.7637433658464976 0.026088983777567975
Ni 2.9312163335797288 1.794279679094686 0.22865373418840834 -0.17308589348681805 -1.0641410319088125 0.5935221955019843
Ni 2.007729326843284 1.4935768374779683 6.900106131469242 -1.2063477193182708 -0.5186197897661391 -0.35265765180829584
Ni 7.077817479752672 0.9602471251663477 9.093173308248527 0.10149069774733488 -1.2133380345931748 -0.5695654275760708
Ni 2.9416338141599128 1.7276893314903934 9.249315942391593 -0.570851750487662 -0.7110992572882204 0.5892155977068304
Ni 6.558030492195291 2.1995377910213945 2.1311511074179275 -0.362123425206886 0.7141776391032282 2.139287670899509
Ni 4.670292424278202 6.966341378865932 10.466387480970921 -0.28279460826857106 1.3985675054210622 -0.6591208073384004
Ni 7.374969319293361 6.133269044886724 11.324676459029313 0.010215249970104989 1.3390665218419517 -0.8364027411844369
Ni 7.911958737826194 4.09139755777673 8.127783571147074 0.16920532748548925 -0.7467170064918301 -0.01196128612693424
Ni 3.6343238033120606 8.689981480948202 12.433957873111531 -0.4722532866864576 -0.7593562925223954 0.01726701461056381
Ni 0.5176572921796404 5.368471972762168 10.448011045227474 -0.2896198587205206 -1.6976320544942503 -2.0062438809362417
Ni 8.528012304623246 2.3030966066671943 5.771255253650176 0.07777149975352413 1.7995361856299201 1.1664891925604362
Ni 3.6528035079934313 3.138986189742435 11.674867768609165 -0.08267716458525762 0.24763297276577353 -1.6837560678431067
Ni 1.6298556008243126 3.845608426835734 12.603756465493403 -1.5120439147753635 0.10010744424656307 -0.5194672253680989
Ni 3.0262056391134804 8.612575070898048 7.72221293480296 1.1382890759771365 -0.4257379167337378 -0.04247668110697201
Ni 5.872379096443842 8.066671912460082 3.369648233013127 -0.667294087177812 -0.3009465965872494 0.11553020655953651
Ni 3.2923496212402816 8.53398197392963 3.394162829487993 1.442688664109993 -0.6860443712021217 0.5615456425953878
Ni 3.829538330705953 4.526395312090175 8.912210800156204 -0.15416205999912158 0.6396236178457372 0.8458500026402659
Ni 5.2193389442477525 4.832116661742912 11.121731255177044 0.3531525891668434 -1.1404022656653974 0.326694909195947
Ni 8.043228051815285 0.10919150210211147 2.3059084205559675 -0.4420749633308645 -0.3144929678131165 1.4593566116839771
Ni 4.835106025735486 0.6778872021816437 1.4382989679158795 -0.41088953886699553 -1.7850192229606676 -0.8636908874764287
Ni 6.130415561075631 6.046722427962305 0.2970530999421468 0.18594552305830556 -0.7491999208146839 -1.1825277340805376
Ni 8.252392944507859 0.1006210861221875 11.064787494590004 0.4814447233777386 -0.3379535128289018 0.5065911407363791
Ni 0.7150957252104332 5.303639008838359 5.5771667200268205 -1.2460566078721187 -2.460555238432298 -0.36787626853026323
Ni 7.476018880921151 6.23950017076831 2.6846318506431315 0.8226033734074993 1.196148667298082 -1.7964053533104225
P 8.557625125507265 1.7525282286650594 3.6861367282463924 0.4527905499761557 1.0472681674128737 -2.387838784604178
P 1.9451157392169924 3.252844723144469 1.4453257850341834 0.5412087308102486 0.36165959819659005 1.2762002213350343
P 4.614518139119771 1.224642782291431 8.09967630267386 0.6689480778414673 -1.777097654120746 -1.0972681534800843
P 8.577554218791096 1.9663583409218035 12.655053045738109 1.5491261643396417 -0.04894583377108345 -2.5448802230336236
P 6.33106529572875 7.973630222860887 1.1887278385903373 0.5532641193128859 0.06625861401791815 0.1325478241634556
P 1.9804445864019662 3.455269958835602 6.054040934536853 0.6482661240120836 0.024057555169835987 -3.3084474683135734
P 7.735957668093668 4.509419348083856 5.573706304738446 -0.6654225811867119 -0.7915503607564368 0.2405516404389599
P 2.599134228719742 8.644932671447977 10.36648655981058 0.9929106757079157 0.46016087429829783 -0.41396843490263546
