# total energy = -340885.49232080416 ev
CRYSTAL
PRIMVEC
9.11549557399145 0.00000000000000 0.00000000000000
0.00000000000000 9.11549557399145 0.00000000000000
0.00000000000000 0.00000000000000 13.34144918095097
PRIMCOORD
 96 1
Ni 6.519402355770086 2.2299874637982753 11.647765518958678 -0.39595914280940836 0.4542385952765919 -0.08174128303454954
Ni 4.44253698477414 0.7448025225162376 5.979784166848607 0.3070511668230906 -0.9313247845753188 0.12594831656906696
Ni 3.0535360169783705 2.4268092418544662 4.747808547012802 2.5282328442849296 -0.7953064853647593 -0.019416713963714947
Ni 3.6013499478714284 5.110657224799544 5.457025998337128 1.4656218758673984 -0.6246484845931436 -0.23438613505819633
Ni 4.249552830308245 2.9964183224016714 2.5341679012299108 -1.211716696939668 -1.2936433565121463 0.35486314410004693
Ni 5.179497446542799 5.025573190139647 2.428210293507265 0.028717936759982802 0.7342998637743999 1.1448479601415766
Ni 5.500681929212763 2.9998001712187725 0.4174632573090579 -0.06113877629284954 0.5947378130766402 0.6332506244398578
Ni 5.713054742530341 8.222331871846569 12.48607570549299 -0.461554926432347 0.4451350903134269 1.6978277154448245
Ni 2.409571839932261 5.811930521827095 12.03953675230278 -0.6990358983657833 -0.6467861970324474 -0.7514601776037704
Ni 0.7573417980763569 8.115625881946338 11.654076176468326 0.369211442401919 -0.6107028210463289 -0.5818133917054884
Ni 1.1615055475036076 1.0960198280910625 4.944981271644353 -0.9830610366073458 -1.9599257145959925 0.022700269810993167
Ni 8.96547263953974 2.5447364066707383 1.525434411502819 0.5581708125858839 -0.06356358368425828 0.4619220799637787
Ni 1.5723956210336587 1.1099756516462693 2.6087873470972682 0.7392533511249333 1.405771479368669 1.0348967903317143
Ni 1.4963176958920796 7.026779948785353 0.8579650178535371 -0.3303667016205794 -0.7274887543898374 -0.3849730761115499
Ni 7.695082498720034 4.3014382304886745 4.1371168399594165 1.0986884308663787 -0.3961419482441758 -0.3795763305760108
Ni 7.966596646607293 3.869628094869009 13.218294286521333 -1.3543830975943643 0.6475305313976397 -1.4219776568148865
Ni 8.145606746527054 0.21349128461099617 7.1831963816483295 -0.10586285867310155 -1.8512616390286698 -1.5524863390611263
Ni 7.205224887986352 0.9133817609766757 0.5803598958973104 0.30428928780723724 0.15213011717075736 -0.7836398476601085
Ni 1.5569266252314469 6.645105038217052 9.844508125158045 0.6788396259235664 0.7059665640473455 -0.370245282983072
Ni 0.29159193819601087 5.036147164877753 1.8822650391843039 -0.3647364373497009 -0.054214538369190504 0.09759907600241256
Ni 6.372825188710825 2.0515425245972754 6.977938212540314 0.14582242978517465 0.22531605443612807 0.4457002187882776
Ni 3.4185660328296192 4.783192165754962 0.6483286762742176 -0.06703380162104584 -0.9260424531304566 1.0322819784166868
Ni 6.114008926004757 6.114473816273415 4.8642526207171 -1.097721438967419 -0.031747210504609845 0.6121688640688941
Ni 5.473134901920904 2.987129632523973 9.31020973938929 -0.08347369234462398 -0.14765871166296504 0.018385444485723174
P 0.16876975231563315 5.683693731641169 12.702633442778035 0.07475610996596803 1.4732156290542564 0.6602058128724629
P 4.341938376834713 6.446979744309525 13.026751291888278 -1.3613615857947265 0.7733055556136359 -1.0968099828967435
P 2.605864919251547 8.838676097637109 1.3171571902971648 1.0526219755256194 0.2559839158336301 1.4101346414333715
P 6.482484599141354 8.31500911422788 5.970565666285981 -0.33078116345017866 -1.3572974430276818 0.6565350488890951
P 4.700970396670725 1.2586038051849038 12.785377529752353 -0.010770351142626611 0.36721498079718046 -0.054744699841047656
P 4.307135415153602 6.36380084820158 8.457678468381774 -0.3139445515088142 0.9265271060763591 0.40097665062865784
P 5.014680173060306 1.2958952971276547 3.8782796116137814 0.40922037869468875 1.7721302828131416 -0.7681821183441415
P 0.09781838182294295 6.147882107148552 3.891460618054558 3.4659681603722823 -1.2692620994543045 1.0026890952509184
Ni 1.1917234149663842 7.892934327763644 3.222453440320519 0.37217669567783 0.4055820106111531 -0.9069792658514186
Ni 2.310176477394066 6.976571799770277 4.965634249716875 -0.8089189339418713 1.070966282360762 2.218203568670122
Ni 6.41976999034983 6.226785835883935 9.412352512260298 -2.3677818659533028 -1.2862694326455784 -0.8837110393520975
Ni 8.475478296374101 2.4599622988566137 10.274169738496875 1.0764293623578622 0.5184308136837846 0.5726942030130395
Ni 2.2914076722339285 5.75754747588956 7.556169640246808 1.3497862222523014 -0.16636811514701025 -0.08208503952721347
Ni 0.7115191139289567 0.14258002229834704 9.363068674485262 -1.316722606929113 0.8806545119139607 -0.8792380911824083
Ni 1.9430043201088045 1.2597250111269616 11.916355415901124 -0.6839941735413123 0.7436105996523645 -0.9199759352214026
Ni 4.366960411883075 7.325822892973543 1.6833439625227806 -1.089919683534813 -0.18413572354307642 -0.13068943079847817
Ni 5.686355456316623 8.294763598802593 8.254047415214062 -0.6865812175421981 0.5474621679191282 -0.43786221080109755
Ni 7.062157186680689 0.8940405027014059 4.798572741251174 -0.02312398761197308 0.916961316764795 -0.4756720825600195
Ni 0.5531054760098426 7.337171684826079 6.977257285029162 0.4809994083102038 1.2267165127826098 0.7116196485680648
Ni 5.409663707005878 4.890745896733334 7.353579576661071 -1.1600478078104666 -0.1389681258675026 0.5175134440758378
Ni 8.00507315296035 7.73290268939969 9.029012200670746 1.5580977717106326 0.009649350164305964 0.08688837445312779
Ni 4.678117849542767 0.6988112017027556 10.577114114743607 -0.9546840281265493 0.20985755378921275 -0.19170145170547628
Ni 8.4660893360463 7.8615496768814905 4.980736802601439 -0.5320962269860191 0.3346128784914431 0.3822626191589223
Ni 7.344719315070176 6.209347893061524 6.86190707078053 1.2468767897805688 0.8453190698374603 1.1143042830267649
Ni 2.4459335513376956 5.857425959687341 2.957291881222041 -0.043262410233060974 -1.8489203924900028 -1.3691198895839065
Ni 3.937657037515978 4.764286628162866 9.88061004494276 -0.7694990373833521 -0.23052665210279005 0.09077074022666948
Ni 1.1128105707355374 3.358230568354169 4.4605400883153115 -1.5577211050975044 1.5252822678425086 -2.8136844305603734
Ni 0.7360480006727231 0.4275067102111657 0.5919466021814538 -1.138384206794104 -0.7462539508124825 -1.4178818894789582
Ni 0.968129426732765 3.7532505642815974 8.235636849025655 0.591142125305582 -0.43626889817204867 0.7616060077885206
Ni 5.318180594530334 3.402659493245141 4.959697327521248 0.16313238181853193 -0.42120840429450035 -0.8040076126831831
Ni 4.326660806437242 7.328685158549202 6.415782872633928 0.5874132543907691 -0.25579802507506916 -0.9408970016447861
Ni 8.320423718533428 7.710505917044926 -0.0344438111598334 -0.8888655869698433 -0.44131417390544003 1.628809793514214
P 0.21560607955861733 5.701696835182341 8.414652418242694 -1.3474151509169632 1.5747047841396944 -0.21506686590429414
P 8.617105749396472 1.9512173815217642 8.094977461621548 -0.1219636208897061 1.111881018297253 2.076138034824218
P 1.9541069935838158 3.6847020383931874 10.700536100225507 -0.338053785852192 0.9104754519301352 0.1576531038715156
P 4.237875880619009 6.587048447607572 3.8747300376801452 0.12649878975589826 0.40699148936416996 0.02199861575827824
P 6.841717159877573 4.385583369115791 10.505350553605084 0.4707173096579054 -1.2424717187343377 -0.06711659114283924
P 6.278643889577973 8.37008493782067 10.457507875662888 -0.7698186255063 -2.578210461754637 -2.336516480181118
P 2.304470177233674 8.942483359979825 6.148246726967108 0.7098409594010872 -1.3738990561401048 0.2342948608959707
P 7.189600928761255 4.433950188047161 1.8284325691727883 0.010254073627840404 -0.03411005430983158 0.14664749678963132
Ni 2.7376658681638504 2.189250314570176 0.6871141979234993 0.6632314870726641 -0.5282562844146387 0.5046268179211567
Ni 1.422992650380594 1.6600228789279787 7.281562604748653 2.1957172146421478 -1.2874858215511826 -0.09341537693836814
Ni 7.002423344905854 1.0034793181417085 9.250013741994437 -1.0387997249305465 -0.2713866235419455 -0.06352398869557446
Ni 2.7184959812033016 2.1870352491724523 9.460008322545487 0.7347806600655604 -1.1986812039119485 -0.4517212281713769
Ni 6.705267308278688 2.491875648475673 2.6386314792460253 -0.061054186998843234 -0.7304771475942 0.5242062827149812
Ni 4.239598709261683 7.069048501251385 10.746109931346743 -0.016644807645532625 0.6654894298689055 -0.7074616605356332
Ni 7.5363817226938075 6.3648035527026074 11.412115376424527 0.09154489938853266 0.6550877749196073 1.2864334690272683
Ni 7.6223226139273095 4.006433450790985 8.271765203747213 0.010047614043989147 0.23799262146253206 0.5485422883571843
Ni 2.886749796475679 8.198440158235728 12.585495679868934 1.8275748369346914 0.23111029252040197 -0.2149596509024685
Ni 0.04296588786901888 4.810283418273626 10.603783319822293 0.5867265127363895 -0.1720942189975101 -0.21362756235460628
Ni 8.744813840845492 2.596284533519004 6.071439562188417 -1.7880960621137785 1.134539379126717 -0.6433208641916663
Ni 3.6250958135548474 3.0906907764891636 11.88254786632467 0.9875344989976671 0.3074666570939544 0.2187718255597071
Ni 1.209152242293331 3.7555020916611768 12.978014383841073 0.5907004097824731 -0.2679158913845257 -0.7393759927457266
Ni 2.9804570898444096 8.238028755035376 8.181656707987624 -0.3036472833478641 0.5944804456501955 0.6613669230600997
Ni 5.727612188786163 8.28706100513561 3.5199677159194156 -0.12286479254773679 0.0128323758779779 2.350699199439403
Ni 3.3612113353708595 9.003092289319191 3.917116180037661 -0.5045350295382989 -0.28560996623017915 -0.1962582178382233
Ni 3.995968861998446 2.963839541613749 7.169828507550544 -0.9227159598603851 0.8966197769939654 -0.3364098224908658
Ni 5.477592379202744 4.939923994760989 12.098652563485162 -0.36483876725552 -1.882937629975712 -1.3287065187638665
Ni 8.371825997454271 -0.20418618684146303 2.595979164420964 -0.7086358833493925 0.814748653249771 -0.20009893174055216
Ni 5.059883915065708 0.5250643888638415 1.5538656418546746 -1.824929171781728 1.3929298475193106 -0.002498855162453761
Ni 6.283620950101254 6.0837819430465165 0.5782104620669265 1.7407178299401311 1.0450667888861809 0.6043539960101656
Ni 7.8040947089726265 0.05687978014509194 11.414570179352951 2.200431589398681 1.4262981385671114 0.9522263106146762
Ni 0.5837417447144114 5.210827404452168 5.800115016606807 -1.0922359903728156 0.5326916944781729 0.40943429447770785
Ni 7.493238082663243 6.519657589643074 3.0461734312921913 -2.3744471937886202 0.24497496631763618 -3.078213150640221
P 8.765688325457786 1.8187965789179164 3.588542676744671 -1.6569443469669012 -0.13939827142638572 0.15688331558502658
P 1.9888279158057511 3.607703448209756 2.348668480089411 0.8202739539433744 -0.20907490998691733 -0.798448887648483
P 4.451862136633694 1.179034645280657 8.116563866429573 0.9001828117548756 -0.3783547994640839 1.9180481005256003
P 8.83757312268598 1.7949595582798588 12.535118894187779 -0.2057201345820715 0.6250277223094334 -0.07814379549127833
P 6.537724501652494 8.104195050634628 1.6290438675939678 2.0010571945289795 -0.6609120949108683 -2.1290166279908043
P 2.1969711392280864 3.810195064444483 6.274376926151328 -0.8607235773179885 -0.9904732699110168 1.2696212825659359
P 6.939936623500927 4.104689376396195 6.142082828934429 1.1571198355303942 0.05698850156990185 -0.5624267596487603
P 2.4869350499342473 8.970960167808999 10.287030791046869 1.2011165528263186 -0.9722099528254545 1.25173411787287
