# total energy = -340873.157864452 ev
CRYSTAL
PRIMVEC
9.17103528601319 0.00000000000000 0.00000000000000
0.00000000000000 9.17103528601319 0.00000000000000
0.00000000000000 0.00000000000000 13.42273716353295
PRIMCOORD
 96 1
Ni 1.2787816432400592 2.352709871926928 12.178610239124517 -0.956110990381063 -0.8407381353349973 -0.9292789577898835
Ni 7.505777017748629 2.338027044479211 2.9182637715829878 1.2055290800717173 0.5812953144184893 -0.5859628950974877
Ni 1.6819311821371221 7.556813828958215 3.475227162513079 -2.3373680295481356 0.2576798154788143 0.19139240510548974
Ni 2.0114373079141545 5.13608238852428 3.7784335104813547 0.5527540124456868 -1.2159446189780867 0.8149633403637384
Ni 6.9968854423292814 7.863768379036349 0.7068923924279199 -0.824016194594626 1.4749454672611695 -1.3701182489414339
Ni 3.2026539065128627 2.6661391728970596 2.8198081225730145 0.19957725490912726 1.5944320873652926 -0.27261869617683376
Ni 7.917052093884092 3.310496110109181 7.5277792484355865 -1.238613264220196 -0.2705276179757599 -0.85668360292066
Ni 0.9102500111305651 6.472256370407571 5.519604077762628 -1.024558898740816 0.32673887506000504 0.4042584067037232
Ni 5.265531551187944 2.0462505577527144 12.448864140308038 -0.21703941624963266 -0.9178547751133419 -1.4002209818640852
Ni 8.810861190108023 8.455300153163616 9.330708484246323 2.0322565029499198 -1.0402482844516148 0.5809826682740769
Ni 8.135561179936127 1.1857781746908402 0.23769214050074858 0.39796306061331466 -0.43134189318407656 0.30313023450212956
Ni 8.973564526616423 3.440578074205633 13.307999386429328 -2.171880003013234 1.4756769461105552 1.2774178957922193
Ni 4.832475266315238 8.336617785892594 2.1553427734546693 1.2580785720336591 0.31757469206223377 0.18512019894353277
Ni 4.690388417066343 4.47916113300899 0.5266448654713723 -1.667993148581895 0.8593981736383457 1.8214599822862048
Ni 6.065007378750277 6.721635161137318 11.980691961433264 -0.38048315866099636 -1.2646096882839577 -0.12016127757364468
Ni 3.070829445717431 6.753000101718949 12.067027170246547 0.20613922439736113 -0.42494601696006173 0.6906726140027524
Ni 9.105361474306081 8.160662303436691 1.6571712211481484 0.879819160496859 -0.4521056080939891 -0.315859766253656
Ni 2.8083177324985327 0.3974020511010077 2.745473213394547 -0.6498568655379712 -0.059777891389580916 0.8393319990160899
Ni 0.5316348257551343 3.9609426147324727 6.075908988361209 0.0821079223453489 -0.6673475661235668 0.20374655579546844
Ni 1.032227531369711 9.322724180950893 5.391323304990804 0.21053915323726966 -0.6783120355548704 0.42608630121209196
Ni 4.7848867643625805 8.72437832762709 12.643158024865413 1.20529845211815 -0.14257641204405122 -0.2686347718284212
Ni 6.734272847722548 3.5544731610720905 5.230062572328453 0.2281149573375039 0.20034138676866142 -1.232644962451903
Ni 3.9585031193539013 0.7703825524140542 5.077405187841433 0.38727112811710723 -0.5724417206826012 -1.192631912394075
Ni 2.041610013912274 7.917611527034817 8.562337139864301 -0.751107679360358 0.5343958216534733 -0.6072631992371607
P 0.48277613541927356 3.708207225098376 8.916214374735377 1.5684508328101827 0.9178750868283161 0.4992943499646498
P 0.2745028418184544 7.866198703379662 7.126412558792638 0.8090415755626648 -0.8722038100434463 0.27281847089246564
P 7.789593045871367 4.299821538542964 2.1645101402983533 0.08041407958269375 0.37842473347007083 -1.7864886084173426
P 3.176204640829405 2.8083452456043063 12.968646320096008 1.502800798910541 0.2827699256782227 -1.5127334846432205
P 4.605427946438203 2.998414951321944 4.521744083917947 -0.3019308148773897 -0.5264066328004094 2.480839185492315
P 3.630849542698942 7.793114723410357 3.955318018808872 1.8657336073925996 1.0027412886450926 1.4467512642151406
P 6.434031495453114 0.2279011432595351 6.801596500446437 -2.5819776421065534 -0.6335018212187155 -0.6245811216903179
P 6.371695968805936 3.2025530251250265 9.241662317410839 -0.3123831205589653 -1.276435220163976 -1.0456036352262572
Ni 7.745452853175637 5.3263997121938775 6.320579369589607 0.20870929911738248 0.9986606908178157 0.2708011833521207
Ni 8.751157750579829 6.613857154787803 11.359246104502148 -0.26778913599867427 1.7220485356654023 0.5045517417088471
Ni 6.9369527269196425 7.176151668513246 7.932233825649832 0.17605268942462585 0.5490652507401899 0.6989975889286801
Ni 0.32680617299714004 0.9186350886667599 3.233618072853729 -0.7830158409228644 -1.4894711716811702 -0.8053998650450195
Ni 3.9101442504395902 1.3850739418778115 0.8709667987073599 0.2266766822290806 -0.18327543242531016 0.6782827249788319
Ni 5.488030037577118 4.427794164530125 6.922575294946009 -0.34249716633552624 1.0506370838851067 0.9558122281937218
Ni 0.03990867702778632 4.446869917866322 11.200911849190556 0.7622914638913194 -1.724214175858153 -0.37486041315758023
Ni 0.3220078873502658 5.647954550402409 7.908837597603691 0.6446681222481802 0.6216287239302133 -0.1353701241035991
Ni 5.606437273790406 4.086301495671165 3.024209405087996 1.0721286780999795 -0.16124853453225776 -1.3383666675614498
Ni 3.8308881637417938 7.674093027834797 10.11650204430756 0.4226937305907753 0.7240912986725142 0.08973869941772933
Ni 4.627034905505549 8.974509143247975 8.15701039719704 0.5479851303021337 0.10673523397572586 -0.2628076236236829
Ni 6.834649828619027 1.3490959705615129 4.791433966433115 -0.08810116381430634 -1.1852320203855782 2.1006424477234855
Ni 7.287588917930616 2.9927839356736627 11.318293763662025 -0.2301859809339197 -0.25915357181086335 -0.378041124878407
Ni 3.017022981859994 8.345568716304195 0.6178086243478792 -2.2973135847294115 -0.8528606296301441 -0.3976534997926958
Ni 2.9265232059361512 8.12576651428081 6.225492241829818 0.01665406361691325 -0.39843537226404285 -0.04988454353526892
Ni 4.337551177593499 2.1347785610961334 9.45427809620622 0.83711647942201 0.11783545765394544 -0.7142563148599634
Ni 4.5337563058985975 4.2439332496820095 11.752089233976507 0.052516838951793425 0.7917192822341333 -2.1899800550480544
Ni 0.9486060318892081 5.81592206114878 1.9744037504396845 -2.8128619346590784 0.7744149866277308 -2.0780010561748856
Ni 1.508387681954017 5.9465542873607 10.15121349565476 0.8649594697762072 0.2056489150245039 -0.16104978825789037
Ni 8.350447707061337 0.5323327415382519 7.350411426549984 0.9800237924429187 0.4080608111689488 -0.7355620183162751
Ni 3.8637388120351877 6.559142758439846 7.787361732993147 1.3269406851126955 -0.2920498083182519 -0.8790411446802538
Ni 1.481754995565403 2.5662574279045005 4.287007768080784 0.03566274350893213 0.4874441354942831 1.4588920133427328
Ni 7.700606490765058 4.912299957199017 9.418935677633286 2.022496338239362 0.9831425405775583 -0.07058655196931068
Ni 2.6625257850054913 3.409057226024619 10.398674622912104 -1.0853292359506534 1.2375313440099267 0.24078226839252728
P 8.870564629636217 1.7953677172406906 5.455819527544718 -0.02687317024176017 1.640518083090078 -0.2061040002840515
P 5.014933012768912 0.49360162543756547 10.597277976937113 -0.269078287123743 -1.1496186420573424 0.9862008677879079
P 6.092483800382607 0.7513480687365172 0.8856230301528295 -0.1929623206957709 -0.3703244729604397 -0.036175421479292535
P 2.7998345248850796 0.8276859320152853 7.606597876751587 0.5164425796091622 -0.9096632404414849 0.17066879940489318
P 7.085816971224043 7.332627872081609 10.122058774570256 -0.5979002699650219 -1.1315268175526385 -0.5392346378030133
P 1.3236188346153803 6.690114312956303 13.390307593660914 -0.7874772191283277 0.05971515647244555 0.2973113138275073
P 6.622780572093631 4.583444974925287 12.534983829792761 -0.22906266596275388 0.041545427541954255 0.8800410466996779
P 3.5594622042523274 5.468780034571022 9.659471756167473 -1.9698056927138654 0.11825043370417701 1.611239902951251
Ni 1.0300264829078418 1.996635257008086 7.398786803327759 -0.3887453986697885 0.7465213455412563 0.45901416228836434
Ni 2.7907276868740976 0.7632750000892692 11.7342368967437 2.024882321973035 -1.5870990440389892 0.07166204442167659
Ni 0.6783411254633772 8.740308415869867 12.721358525405037 0.03144819120695229 0.08696730732017927 -0.2250987962189994
Ni 5.292659473480479 2.1255983548030883 7.032440628920197 1.0155363835272317 -0.8816839816197395 0.6251606483428718
Ni 8.10802973209225 5.7978367796204235 0.21903642057935807 1.0447860244209684 -0.6828983693739723 -0.3033428647335679
Ni 6.291091739925244 2.9381062234667357 0.9352988597301591 1.3528077826874443 0.040458622235678705 0.11810645192714499
Ni 2.049203631105722 4.582096832742392 12.670647285947103 -0.5749416042863196 1.0339074298352515 0.8592637049430104
Ni 7.133928222186394 9.123116598565156 2.793700936504672 0.597370622713797 -0.050512149816938814 -0.31056406507235546
Ni 1.889682643831773 1.2557164895667245 9.654142467579174 -0.8966691421746621 -0.671498869287779 -0.9562241189201596
Ni 5.524622468255688 5.186284635525406 9.427794897692308 0.019982356659197842 0.8262936777748932 -0.09302894013322688
Ni 7.2604426535675675 8.779028526728244 11.737203726649593 0.3961663737242081 1.148421793535764 0.11613775823654836
Ni 5.973764748970553 8.364681153781422 4.6383473774960295 -3.7227684014596205 0.09189996873510624 -0.20504110623717592
Ni 3.348445854005904 4.11251231443792 8.043615131752132 -0.7274509591733666 -0.21680441742069112 -0.7041017429244647
Ni 8.44782575942852 1.9909492151482582 9.328950396787405 1.078140174401382 0.040358863433020815 1.2669774171851858
Ni 6.751578591253992 6.2005185957193385 4.215115105591465 -1.354072508332481 -2.7208521798189853 -0.30122916082467477
Ni 5.224766299467081 1.5909545123798738 3.0341159573734573 0.5245605807306062 -1.548188997237353 -1.1131532001414572
Ni 6.405427036484076 6.015291196617813 1.921478623070521 -0.24652765551673672 -0.20750242329347487 0.6553541412071164
Ni 0.7543818471997931 2.852870621780863 1.961491849900246 -0.002261028120034816 0.349722737549688 -0.3248948798727308
Ni 7.773607931417044 7.677302890175022 5.59427464683153 2.924773056408789 1.0836400211736885 1.7537355823560377
Ni 4.3777111409873495 5.2738405091314995 4.493449605940622 -0.7521260933225433 0.9857642944711217 1.4367581575581707
Ni 8.784402753389307 4.585811102021797 3.9713581594747414 0.02834435547064796 0.47678896977328206 0.09126902001932669
Ni 3.1231318597925903 2.4785731598047978 6.320216196593399 -0.9110482937144697 1.807649301655358 -1.277065140438491
Ni 6.888988212521416 0.43449797161523074 9.340050100759903 -3.2810253675468783 -0.6410780909040765 -0.2768784998944522
Ni 3.4000971245777607 6.42256770138088 2.172604496016876 0.8923376046788438 -1.0995011565756614 -0.27415570164665043
P 2.41722810496546 4.381214476455824 1.785465750472858 1.3209284174803446 -0.9218476983228188 -1.1671918750544157
P 2.3825432496205097 4.932311156131509 5.8037227500488715 2.173090478381567 -0.3083899402391721 2.1415528127846017
P 8.708072226938745 1.2598251133622131 11.365192603763296 -0.3001253862375347 -0.22666022716884834 0.49705594755243426
P 8.419441405305669 7.132745158638139 3.475925078296196 1.6444266741158649 0.9784222522837536 -0.3295197802392518
P 1.4581028956355702 8.165963161815691 10.698203385742008 0.9815379150945999 0.021007712599918658 -0.051379897133872796
P 4.952166447464617 6.685308690481223 0.49630983214919 -0.8511716719634954 1.18150083547792 -0.6264929940010502
P 1.359890279059928 0.7483372178613856 1.066870199952476 -0.5557922850513782 0.5225553773751194 0.8432922692154186
P 5.845535333996175 6.449356295368877 6.217626244889215 -1.4767292986344698 -0.1059523330631143 -0.3043450807458371
