# total energy = -340893.2324828882 ev
CRYSTAL
PRIMVEC
9.06836082226729 0.00000000000000 0.00000000000000
0.00000000000000 9.06836082226729 0.00000000000000
0.00000000000000 0.00000000000000 13.27246270735325
PRIMCOORD
 96 1
Ni 6.334512855677099 2.0351305523233973 11.672267788569885 1.00316449222544 -0.0511667526818022 -1.4700387739881717
Ni 4.8722125052027465 0.3361577792775262 5.933480931563456 -1.3072743170320196 0.030518223193515184 0.5176792802297406
Ni 3.1057502721261456 1.6567532066396433 4.788638493990728 -1.3251738230202597 -1.34594833656345 0.36283150701750416
Ni 3.4086335158849805 4.105138019482018 4.961658279897814 -0.1287780727083782 1.593097427714269 0.04321535904520944
Ni 5.180264714498783 4.454560089796852 2.75100960832435 0.19349351060889255 0.4359346547610815 0.050547116819932306
Ni 7.352300306673293 6.232811191642509 2.610468155876014 -0.1167684498420118 -1.8433295286657867 -0.22266524707684232
Ni 5.300357013813102 4.761515027461306 11.709510638683453 -0.5048535892199821 -0.766601404120583 -0.9800088800445833
Ni 5.484644237755228 7.947211966562838 12.330595400912422 -0.2531680436513898 1.0851289470143892 0.8991438289673999
Ni 2.088642948174322 6.486979202303366 0.5304564733127596 -0.13833486315887786 -0.6463735349750611 -1.4606511621256844
Ni 2.6458120912817042 1.651838155199006 0.3897445356853019 -1.118315461068687 0.009398410495764458 0.9420434565444034
Ni 0.37518437591945797 -0.34950277872409813 4.698066428910185 1.6103315322043685 1.1494985715397106 0.13019320788834995
Ni 8.62522608291364 2.380934346762189 1.514720008873992 1.0665049041552987 0.09837194961269509 -0.23284501582332157
Ni 6.876909639380795 0.5066810455137502 4.655144064558111 0.07553926798889571 0.0031768550660848513 0.4196477446755999
Ni 0.7139756071127795 7.113312731642743 2.4108499615177585 0.14510020690716946 0.02238016746741307 0.8507122158285736
Ni 7.431539641522534 3.6638625247350527 3.8878492176750066 1.0763375739750043 0.03540409053090677 -0.053429580574049916
Ni 7.8491920569284295 4.0575109896550305 12.60883900210787 -1.0598948550379488 -0.4618763143275077 -0.5880413748930712
Ni 7.854923260822309 8.697927129776351 7.177495867401782 0.4925308059885712 0.6183832204097222 -0.06843171040983698
Ni 7.118073620953324 0.6532556782636656 0.43075256911649423 -0.6153835143514498 -0.614158126584781 -0.5992097328050648
Ni 1.913677998920341 6.549387659894632 9.098976283775121 -0.46475183610308995 0.346817390977435 0.1358887156112305
Ni 9.19894498410066 4.895173594220632 1.3136662930340894 -0.10209105033549513 -0.05990747498890972 0.248939607392339
Ni 6.5030483372716485 1.75694045445544 6.845511347668501 0.6874574494995644 1.2539362677305115 0.6167672820728539
Ni 3.67359287564982 4.40358683491157 0.6450868990427687 0.36860954715186195 0.29171247958349117 -1.1673967919763701
Ni 6.015279357771642 5.504712519744399 4.877510241460349 -0.5324260995216121 -0.37982855579613295 0.5392392657887035
Ni 5.13673658365919 3.0404490075061643 9.299284580374394 0.44052458812460904 -1.1611266426969422 0.4736568519022035
P 0.11075914259346277 5.857997711671246 12.388211229931038 0.4547165633542749 -0.6193347856897139 0.6445195124854578
P 3.9807745223290643 6.335845904684062 12.548462764125176 -0.396224223545337 -0.7309386606116508 0.7240797287082885
P 2.1780660519679107 8.426810353169829 1.3830963822314177 0.387308666223262 1.187643200930232 1.0952896895974749
P 6.364937205461856 7.7315935567767955 5.935086938224225 -0.10548542072902477 -0.07713977970679618 -1.5464216209242851
P 4.52821331452168 1.1828044086812077 12.788309112903748 1.0108572328840073 0.04226687908901108 -1.0371701597469234
P 3.9919920843808514 6.256624706556003 8.078735841238904 -0.05695790544228255 0.22156121537938614 0.057691698284513544
P 4.838822801504542 0.7101088581565291 3.7002692720020764 -0.017524639147324654 1.0864016430792258 -0.72221542180604
P 0.19539596566681477 5.229787031689411 3.5978058656777927 0.21020799515009606 0.9353439330370409 0.1300327710510857
Ni 1.5775773503145418 1.2011406337973862 2.674228706031485 -0.4745307698667247 -0.8331132717998878 -0.35190688968520034
Ni 1.820591277447753 6.370296606571481 4.710198081709604 -0.23822916295337038 0.08094115573075737 0.19576945112726282
Ni 5.83652383379038 5.409304297960366 9.192520957457583 -0.08898433775020805 1.7190539718134523 0.6889977974034909
Ni 8.471716874819343 2.32561734715354 10.118540226611204 0.7074634603078461 1.150050844498755 0.5250267217337473
Ni 2.376091842206284 5.315074963053239 6.8963186515549575 -0.6732801295579179 -0.29488753487736313 0.2067938272622245
Ni 0.40850334640504815 0.17759749433371702 9.375149578247509 0.23980627763250312 -1.1203219499757546 -0.38356385446884905
Ni 1.4885985961899404 1.2518599745861039 11.351180717759508 0.18910643728479046 0.7487895727501428 0.19939882034973402
Ni 4.366197984192477 6.661753715984923 1.7493366340993985 -0.9744038751529799 0.054408656657867586 -0.22031088791205283
Ni 5.630771800327978 7.888276691078147 7.982350957019158 -0.4389243335170247 -0.12053408753203113 0.9813108866854584
Ni 5.1724749927506135 2.7891012569892895 4.753665454533233 2.128363567787838 -0.8288346990291919 0.16105878711895488
Ni 0.6641612887111019 7.332377118453587 6.90705559049539 0.6210414839681755 0.05343703677321764 -0.3584511185616214
Ni 5.206290909396623 4.379555679343878 7.190476318752572 -0.1298625640218086 0.2871523710166345 -0.9324213600736071
Ni 8.031357284492126 7.006242598137936 9.082505420432629 0.02574728416743308 1.0642947838778574 0.9182103586805476
Ni 4.732342111438188 0.7390523446566809 10.443582916311627 -1.0845537912372094 -0.9274059091368867 0.35151351090152366
Ni 8.03464003102628 7.032441091887016 4.695093820308266 -0.13681919784529986 -0.9962849914967873 0.5162435762244787
Ni 7.217236144022271 6.123156575369101 7.023627552228057 0.23213153469606476 -1.1825115361306213 0.010419909781743345
Ni 2.544872169536806 5.171740455542696 2.5153972771059876 -1.0837662623389077 0.6556881275077676 1.6198189028695136
Ni 2.2176131725077997 5.427994189139617 11.461567150732659 0.11696436790290178 -0.07942266220370192 -0.1495348456397554
Ni 1.4806547123117149 3.280860315149592 3.833431799437042 -1.648499558633658 0.5419947170466537 0.18802451707452134
Ni 3.774850190015423 2.5800211351897775 2.5533166269196874 0.16487147599682572 -0.5223334911723004 0.008117229790495699
Ni 1.1631532712792498 3.4064026991794516 8.390000970692538 -0.8058156124261994 0.014439315353781585 -0.6850676091111493
Ni 3.556402451724807 2.695642732732447 7.245782436328511 -0.27789717096695365 0.8873568636348008 -1.359886801021413
Ni 4.177177076021545 7.130297771030776 5.833911239103946 -0.8804187417540708 -0.6310173642339648 0.7861631283025945
Ni 0.8624065332757918 7.574856012311894 11.315397873701187 -0.7528714561290001 0.03746405838372903 0.23779490362942918
P 0.17799378169156915 5.506308551208518 7.973922822685343 1.2495072854248803 0.7331894043190404 0.3945257527969915
P 8.542631454645512 1.5713745916698998 8.042461492036518 0.25687711707186084 0.7371221637145434 -1.5529565938293255
P 1.9108396020551761 3.4664080412139486 10.464699500785185 -0.4385260696373416 -0.7971664213916335 0.5966735966467724
P 3.9286949274516094 6.063740676773056 3.9581009003419325 0.5063579416796505 -0.3745410821449485 -0.4258014229818215
P 6.8816433236096 3.877068750603734 10.363311602027062 -0.23708502204659812 0.4279084420224953 1.0428389279969266
P 6.201534415962143 8.024283963230692 10.18896420812937 0.5488397649929451 -0.6227476680260049 0.16056025021598153
P 2.310736167422754 8.652440233048978 5.796336486992726 0.6476701422992974 -1.3253216614520336 -0.6814886335106392
P 7.038734534137574 3.942007280800052 1.6882575981708579 0.03876735057618485 0.48878368024131297 -0.5906104211718279
Ni 5.638697547485021 3.0079570715065267 0.2885153332375325 -0.5857947449507395 0.23781958621977747 1.2538516784365052
Ni 1.568418306117044 0.9651184126802848 7.162603805638286 -1.4850581302151393 1.395267494513552 -0.20890650272985312
Ni 6.848552875810919 0.8673315599130799 9.221547872875178 -1.324080589956081 -0.3545978062538022 -0.4507460087423011
Ni 2.7032964290717416 1.6625569574182557 9.192149154673329 0.17488103771402785 -0.3689502183207323 1.2817836289600828
Ni 6.46390022459779 1.816084302233737 2.4391468739077307 -0.8258596755612682 -0.013100541937700019 0.8874234552066782
Ni 4.025254831030773 7.049371721111499 10.421577632500096 0.547168033717477 0.2638687178983456 -0.6409402797746316
Ni 8.096803642881572 7.215059737480291 0.5623453633330573 0.7042683504093161 0.2495286471265896 -1.2190525684794489
Ni 7.777678965303215 4.011924340961148 8.374525813343004 -0.8660886982846439 -1.1503519206789414 -1.6375895965893734
Ni 2.8986742580173734 8.615903808225495 12.541494635846606 0.8749456344546416 -0.9421563279731838 -0.8531352234477694
Ni -0.14914551297762887 5.04054848286428 10.288560198834594 0.6594864182079351 -0.5809649276622639 0.41275538843114074
Ni 8.877671105062097 2.1226039585897962 5.607150534659026 -0.12541866931784207 0.3828002368299472 1.262165083398207
Ni 3.514561035955248 3.0097163334612937 11.90620791409516 0.6056765714763311 -0.026624030345431565 -1.1663660367190105
Ni 1.1019146322042974 3.485406256653313 12.722159956568454 0.48720450867965126 -0.05725821029152074 -0.33003142976834776
Ni 3.243670968363514 8.54233219874599 8.052655236177515 -0.035076531988158945 -0.9444160705416379 -0.1009332825819681
Ni 5.653333881479835 7.568743937273169 3.643370750306255 -0.6151148340710955 1.124413860656941 0.28663609350184827
Ni 2.9840982147900745 8.266472669550069 3.5924174458142746 0.5186329023922617 0.3376501226558701 -0.03513798135371368
Ni 3.268146473600194 4.433657518633255 9.096441676989771 0.6761492235755968 0.35532799955160743 0.3303052522550247
Ni 7.135847607712824 6.418975566227093 11.499951707444707 0.7007688218964899 -0.18693334089287159 -0.5994683857830903
Ni 0.5256194097732098 9.081963132469253 0.12582531688031692 -0.2875051263703629 0.5181145679949465 0.07468077664334234
Ni 4.359070252767494 0.14117986503398336 1.4620682004432084 0.2939549957607647 0.028623577273963603 0.5357549067845289
Ni 6.1535265149903084 5.618638333856443 0.4219780234080796 -0.0686422837587463 0.244978565862062 0.6792551161944301
Ni 7.8748917908449725 9.050631946625337 11.259667356849562 0.11174168605138174 -0.5482610096713396 0.7274604722550633
Ni -0.07628214246032762 4.745228251838825 5.790934464588321 0.3768041671475123 -0.2509468676303549 0.20155417612983997
Ni 8.010101047265458 8.666759174423085 2.6261691154042786 -0.5797544522939306 0.16745543467391805 -0.7512210650097708
P 8.552525036050929 1.4114903260797198 3.648135266961072 0.6741095674377486 0.9488082860720628 -1.6010344231731588
P 1.9192369039629809 3.3773204667622485 1.5864307907601032 -0.723932918717779 -1.3255574316119236 -0.529396568666669
P 4.685449618819117 1.1588457999982484 8.102625530381369 1.1304878347651628 -0.5467168051126713 0.8369609276807521
P 8.63130188451 1.860655294541362 12.249314778094016 -0.5634785979520425 -0.6575848303098482 2.05457573527241
P 6.157507525290013 7.7808166180679015 1.354972675528745 1.0707590514459624 0.483546857322406 0.13106172653623235
P 1.7418779075128223 3.194837846577846 6.172663476346724 -0.06398421616144465 -0.18554417385482883 -0.89217382540747
P 6.966795229564554 3.7956076674095542 6.085105734326823 -0.31503032837382516 0.1440087736152036 -0.4087462672717477
P 2.381723294133657 8.601113312100624 10.183044382335185 0.5694548701401354 0.5428755769897102 -0.36219927275014396
