# total energy = -340888.2726789173 ev
CRYSTAL
PRIMVEC
9.13276710176330 0.00000000000000 0.00000000000000

0.00000000000000 9.13276710176330 0.00000000000000

0.00000000000000 0.00000000000000 13.36672780768055

PRIMCOORD
 96 1
Ni 6.646289192232311 1.9608964624285286 11.507777200875498 0.24875011708935227 0.40440315981170355 0.020423043741042247
Ni 4.547752794145173 0.5355957034481499 5.958165315907671 0.6443127957912903 0.3110204358834837 -0.042187432001327345
Ni 2.833861155538739 1.7750994449088695 4.690211177820072 0.7174971903947642 0.624031419834435 0.6422122045085198
Ni 3.979493748524438 4.782866754970285 5.230427148234561 0.31866124025819315 -0.2743235946830824 -1.1031968602596938
Ni 4.072958488855552 3.038206823401616 2.2808182134811927 -0.1787027254529632 -0.3370487416264453 0.48035740385083076
Ni 5.392926476426032 5.113071088702138 2.288931763931668 0.6554873243508711 -0.5095952176700256 -0.0402750454699629
Ni 5.732044391021981 3.166713991781439 0.38683023069051964 0.6357399665206148 0.330473916622405 0.6685238458198551
Ni 5.8379205620849675 8.489774798524744 12.529061687700134 -1.0962836780796281 -0.5679379192749767 -0.6190632771958822
Ni 2.009537580955352 6.824241162659492 13.278507529918196 1.317222943604299 1.1679742617463948 1.2839194443561628
Ni 0.8798051358020227 0.1718357561805761 13.508281561715402 -0.1550490905897652 -1.2840420859769563 0.11192706258931047
Ni 8.069320458543912 0.1884738316090717 6.8358251646759065 0.4924914681102035 -0.7649355863823859 0.16389728500901452
Ni 0.12402480619939407 2.329093108040137 0.851376657816612 0.4277127810719215 1.9748196009886891 3.0945928775498253
Ni 7.033472861016521 0.9968872123160822 4.678355019338749 -0.10948837124083079 -0.20446800734252527 -0.31142538463138625
Ni 0.8145670392994577 7.3651293047457 1.9914154308440535 0.7987183392597857 0.9634990553150179 -0.2211421255640966
Ni 7.993682879940991 3.9929280491915353 3.9230541600182574 0.8358314420619992 -0.4894269702522667 -1.7078974409760006
Ni 7.973207215701948 4.057706767499977 12.804657552765201 0.8228250025000022 -0.4641363140062781 -0.8568903196148275
Ni 8.34959595356263 7.306031167684664 9.353060584872896 -0.23144479304168525 0.3224235355141028 -0.8738742557673337
Ni 7.354809277720669 0.915596450767592 0.3204423187875554 0.32021007280255176 -1.2132868696402652 -1.330940550300708
Ni 2.0370180776972244 6.764759449372747 9.336592378915785 -0.9532832911242808 -0.46929266139623693 -1.0916945160470488
Ni 0.5438690773260038 5.190233839440615 1.3115631018438112 -0.15529823048609384 -2.138286997549137 -1.0528469470522321
Ni 6.552596132719227 2.510634256007881 7.047527276581848 0.9463531396633508 -0.2549081662709481 -1.0205904010113713
Ni 3.896522557796651 4.739851421087195 0.372271686371404 -1.0258313376953367 0.00898086334237163 0.16228340355467535
Ni 6.3301767184116295 5.824650651228889 4.584613556159088 -0.3113428522199089 0.7714175945623037 0.20681825274225668
Ni 5.71667394369178 2.936878770443465 9.273969906961865 -1.1742937762065195 0.09506653938854595 0.38870117569541446
P 0.43805318252705683 5.937212007939949 12.282365551412061 -0.5922214744126897 -1.1845877019333597 -0.9766628463904857
P 4.492572614246737 6.373356442105739 12.422355348091505 0.06230631423838947 0.8079969363482343 0.38939460221801325
P 2.5382517442589356 8.655269674383659 1.6097415605591374 -0.8208689072148959 1.1167527445672574 -1.2985549348811507
P 6.7619100259817655 8.06692767351687 5.717310497571113 -1.7758216156217999 -0.17262566602094787 -1.1316111497363284
P 4.841617846874727 1.5438121135735683 12.768352976278564 -0.497063403751602 -1.2056581494504137 -0.9765060090976473
P 4.184789224184309 6.507644652173034 8.062529332795405 0.3396231872218409 -0.04266925673375232 0.8888373048350692
P 5.03288539199438 1.412428123500927 3.4462369467763856 -0.0732602421467319 -1.0119993169082508 0.4952556611189019
P 0.3607406544052066 5.8597296103467125 3.464254983340706 1.1192397726551693 -1.4379395794607817 1.2142703165994573
Ni 0.6787746624613457 0.3859452655412052 4.994504937505275 -0.22755445684834355 -1.286340909313462 -1.889061997705895
Ni 2.0121495523970854 6.982375028091703 4.305062289585577 0.313118456063093 0.3200704619008939 1.4499697711524384
Ni 5.828806060340737 5.9346639658691664 9.611532511290237 -0.7728700107381141 0.31724404819569235 -1.2740803467785542
Ni 8.807576834292002 2.6444749604785165 10.222980413372358 -0.40843824911302556 -0.05527229020974352 -0.7920159875389455
Ni 2.517483831466972 5.687942257832714 6.86250471772743 -0.32172162435107177 0.6067137544915938 0.8413048064717447
Ni 0.6263434455138249 0.1491755340084478 9.049207937847259 -0.09207248975722852 0.5737776658852054 -0.15371057428399978
Ni 1.6013028835935375 1.5752653640817136 11.040008733453451 0.8338750896665769 -1.4431594330988244 0.07125709567377406
Ni 4.027166793719711 7.157888549655446 1.506310231296682 0.657660677853106 -1.2331375858176052 -0.6856167967463999
Ni 6.039252416745844 7.977353492046519 7.796945720498073 -1.243202426252775 1.1888079106622944 1.125468012953068
Ni 5.7674886608309555 3.1757462986201603 4.4941480166023275 -0.6236228715421066 0.34547553223755983 0.32315192903969503
Ni 0.7671396655439849 7.617851240884315 6.968970865556626 -0.17671243449581178 0.0968557700784848 0.024205907822242183
Ni 5.287169031337669 4.752673826346613 7.380813005993561 1.212855952750434 0.6752781338245532 -1.1631205331985195
Ni 1.1165173309009235 8.09991522892785 11.287119497375977 -0.23026491380097117 -0.9733548650631754 0.06801956257308285
Ni 4.651181383577445 0.7995445504025797 10.29744625793341 0.7263788091551103 -0.5170532166099676 -0.0856987250204008
Ni 8.505446627175145 7.428063204063826 4.641783766047572 0.06557032970164191 -0.0348243067680368 0.2696976658752968
Ni 7.304295941901694 6.274914343607685 6.95819693999784 1.4982674298165617 0.13009987684359528 -0.6180266084012518
Ni 2.7796581817391335 5.3034710209303055 2.651009455466489 -0.1868523511432911 -0.21039182902612796 -0.8545830116378896
Ni 2.758844605110776 5.466280863209255 11.512041289917963 -0.5966265454589209 -0.6934985134873217 -1.3425889331729135
Ni 1.4525757684584784 3.747302273228537 3.7885851211588415 -0.586885406911757 -0.3414990640883151 -0.007675257157070653
Ni 1.8149000447098267 1.5117287021231869 2.6052689038274086 -0.5831534506731505 -0.3454963581731663 -0.15450504516083713
Ni 1.4942303200170295 3.6244756860961203 7.943164977738377 -1.7529732502687163 0.48507512104147427 0.5622555241782188
Ni 4.006974245266311 2.893479860334666 7.0048471152578875 -0.07865415946879357 -0.6465450275559188 -0.6394750080830148
Ni 4.364659075740035 7.212730817164568 5.9105799452782755 0.2865648739442807 -0.06862685713977858 -0.618352881392419
Ni 8.234979724213844 7.430602113367329 13.19539295474413 1.977880756412516 -0.10039669335220774 -0.09791660724283135
P 0.28094310030679814 5.767790042151156 8.014343026079064 0.31903147911341834 0.6206599322590408 -1.1036835700881251
P 8.724285996709458 1.8867018610556563 7.849183322779282 0.5308772669772535 1.0143896715172982 1.2335481909924628
P 1.9413249421500862 3.658988413642659 10.21859668507854 0.04837196354548444 -0.1725649879863415 -0.88857890896736
P 4.331224014732393 6.398727269606211 3.6934545640760765 -0.11167586581045283 0.7560894488456656 0.3199653037815973
P 7.124928392546302 4.071762096342031 10.458140951310593 -0.308381712709056 -0.7929840078791698 0.891068251048117
P 6.337464666700103 8.063557682390996 10.27266449392242 -0.04676142452525495 -0.3458570839466947 -0.17255753178717378
P 2.49798537332676 8.56484614555638 5.969219617421916 0.30617519197604043 -0.09808012940388915 -2.375360449631509
P 7.470567102979304 4.265139310703084 1.5705501163356754 -0.7237699107773535 -0.8497225982217947 -0.2924043634441932
Ni 2.784535079466006 1.6370120036535978 0.41335178686811946 0.8005301956575439 0.04229001901746265 -0.7457132478176641
Ni 1.6492499118071735 1.1428653645002265 6.915437323598556 0.514322705052682 0.6227731219473016 1.2624646169164968
Ni 7.248613459802924 0.7726211524647133 9.240646265715025 -0.8835174352840527 0.05643314328706411 -0.5066397345861275
Ni 2.836053019685648 1.9279637036212198 8.843507880596936 0.6671807015283994 -0.9793234239417842 1.60653529838673
Ni 7.0148968123714655 2.0748003359295697 2.142633051616038 -0.05876461963371815 1.0001241627372195 2.556991918695493
Ni 3.963675795597578 7.393897521673881 10.457887060380243 1.8641991730259444 -0.37983369800245553 0.30125975695229407
Ni 7.4698912782006746 6.001524955117172 11.169986277365156 1.1323084329136694 1.2474820274647354 1.9681421889685138
Ni 7.4661651091509285 4.448854057283179 8.400293771280637 1.120011360713871 -0.7204395608525399 -0.3765311159917838
Ni 3.1768148323917784 8.982524124284462 12.220865496556707 0.8280199164373805 -0.18019602216903804 0.5570714088741181
Ni 0.19888335975343402 5.062923063574313 9.972006488890901 1.1016773382913738 -0.33605038226891804 1.3890320551268014
Ni 0.16866485938138095 2.5564259511437233 5.752946555492942 -0.8646223981517625 1.2906289951658547 -0.21717825582034211
Ni 3.703839433748786 2.943655283764326 11.215393482998563 0.5962295671308184 -0.7766600739081656 0.1625014331027524
Ni 1.6035860754132345 3.492087091622812 12.430415928491763 -0.9859692113930763 0.9117862003217588 1.0738292057308538
Ni 3.245584570001051 8.501327749132411 7.994252764619188 1.0086252582296953 0.2830787151678931 -0.3436852731063565
Ni 5.980172545219367 8.162483817554827 3.1696794013168614 0.13089023395537458 -0.32235900082475455 1.0136869890233187
Ni 3.5667383313596233 8.705920001711815 3.494958433655263 0.5085351518366275 0.535299307304349 1.0207883759547902
Ni 3.7279134082956706 4.630559595061942 9.078694903560281 -1.0563619021840258 -0.7171089538174101 1.0737754696747828
Ni 5.352751433166644 4.345160617599823 11.758229644345336 0.5607696836613116 0.7712612714900976 -1.0258920157299427
Ni 8.347248832371982 8.879597837052524 2.671353607856717 -0.4651704116977473 0.5422469422667757 -0.40262961285104854
Ni 4.812018548124176 0.2462568501819621 1.2897860182675416 0.3246897058404602 1.3590511924939948 0.1554334705123775
Ni 6.426271695719035 5.784977910169834 0.002694166347242401 -0.6848590926447689 1.035250059906075 1.3565109425706445
Ni 8.03783980973393 8.851194930815492 11.366210175287009 0.15707074900548432 1.0393031469295262 -0.20709824587652076
Ni 0.4621417695015875 5.114002630964573 5.781511111710807 -0.6603582792899272 0.12060479286896648 -0.21271713472519493
Ni 7.69813739803214 6.239597932540613 2.402161639207535 -1.2570835551102415 0.7000370859367879 -0.04362802110259583
P 8.891854010740655 1.700576063913961 3.40659069074244 -0.09857558098306894 1.0822469974809037 0.6713669716956051
P 2.0914311051442427 3.4833287678024547 1.3177752101468425 0.23117122766532444 0.6987402215022354 0.9198013573167514
P 4.995002673321968 1.1498701970030565 8.08137662462864 0.13833794848267142 0.027115368159553302 -0.15467345241790134
P 9.024708376345183 1.7910178582757965 12.32108939795085 -1.6022850077508082 -0.8602296684007056 -2.20937080086984
P 6.807500800237474 7.985892629452185 1.1576458350642165 -1.4758286411970714 0.6141043905287101 1.2502256516481438
P 2.252797970193144 3.6346039250082955 5.950439908066545 -0.3553002316374655 -0.5973626522939971 -1.629444598884736
P 7.415249931571687 4.391153233615798 5.901610654533778 -1.2130089333885303 -1.1101720060259461 1.0563505893301162
P 2.624656855483547 8.968167414122206 9.969280357858183 -1.2800275655009246 1.206455962761361 1.1524810512068022
