# total energy = -340891.3065675347 ev
CRYSTAL
PRIMVEC
9.08891695471491 0.00000000000000 0.00000000000000
0.00000000000000 9.08891695471491 0.00000000000000
0.00000000000000 0.00000000000000 13.30254868503181
PRIMCOORD
 96 1
Ni 6.555308681706357 2.041343493564161 11.43624071188719 -0.1700437642263846 -0.06881351922928795 0.15007657707583832
Ni 5.014700892942038 0.4843283918144423 5.916787721718846 -1.620216138307932 -0.21579937319494447 0.6786367658841409
Ni 2.798513902867712 1.688157267495203 4.614920333824302 1.0675981372194776 -0.6522767878333735 0.1481428503882352
Ni 3.504986333092731 4.161551520019038 4.310278922394344 -0.008721439033397883 1.0256876130286208 0.7511148784492095
Ni 3.9566327971247097 2.8282437504055165 2.43508446732914 -0.4769375795360044 -1.89854936837104 -0.3398425023214986
Ni 5.215229668920819 4.694352924028106 2.425612906913626 0.8052525408338778 0.9185111777504182 0.24153354473625502
Ni 5.189726167792394 4.831750082459473 11.384813801664503 0.22071377977742634 -0.5877063601511555 -0.3002824806406893
Ni 5.90154288121895 8.096907162424701 12.438907314073614 -1.4203699460081345 0.576390163807388 0.3850365823596337
Ni 1.888676954556974 6.743040262535877 0.22527880588712515 0.5169390596296064 -0.49735522396040793 -0.5764438998634588
Ni 2.7227396017601975 1.7498255694041014 0.06349153866098747 0.9749150104614436 -1.8446333350788748 -0.005058902580146126
Ni 8.133817254399947 0.30140212140780115 6.6202126380706074 1.1104095759580488 -0.5718256843651571 0.6707704757621867
Ni 8.64029715474974 2.4522261648089017 1.3381030822276907 2.0109384581984333 0.4102115389633645 -0.3092147501333126
Ni 6.890235273503395 0.7245393794563396 4.630590535640238 1.53366277859672 0.2012996369168727 -1.3829804496160825
Ni 0.8593980033669749 7.666356074771581 2.426159150825892 1.357337809347314 -2.1173042246498825 0.68796447104297
Ni 7.819113502948863 4.191763080158343 3.7734811215762347 0.08471913471595087 -0.7242131689623592 -0.23206700000671646
Ni 7.898078013926682 4.12719541372344 12.465020681533371 -0.5673038852354035 -0.7494326056507803 -0.47249522749393463
Ni 8.369156582524795 7.502446545423744 9.21720343743871 -0.6100549030496849 0.04824135150489112 -0.2990552931018075
Ni 7.140544047942755 0.886892886212164 0.5617586936010726 -0.5634552009132748 -0.17069810998093182 -2.4034901179881896
Ni 1.8393059573618176 6.289357881093789 9.306742903356986 0.5192710501968929 0.7076097560777234 -1.6374129618021926
Ni 0.37359902478040885 4.856871849073502 1.2028336392682297 -0.39604064677962114 -0.023899175215100776 0.556203661557184
Ni 6.561143766426403 2.087769681648266 7.036582288513934 -0.6489063286992437 0.3751671457647216 -0.06321545631622016
Ni 3.6581436736184267 4.074052515969375 0.27152776008954654 -0.5067495206911143 0.9534622399043061 -0.6614941926665833
Ni 6.174355814173628 5.887691371696598 4.564863123394935 -0.1421238978876649 -0.05894999617164686 0.4206733577266367
Ni 5.4699647459437655 2.7131235275642336 9.211083869616267 -0.608951642683177 -0.19684777179310617 -0.19758773528292423
P 0.34543428875162563 5.6007451727922755 12.401872703935341 0.716605017597798 0.9607670010958357 -0.8798656974640783
P 4.009702983542699 6.253556636993693 12.593123513430907 0.2828491156555903 0.21501852916486192 0.7496889446359605
P 2.5309452750274675 8.497010378096274 1.3476546251128876 0.06998465671925368 1.2140252904681865 -0.15489816683419774
P 6.666457047814524 8.004809166368274 5.799073521963075 -1.1674394722888475 -0.418674325018737 -0.7525433833656201
P 4.622877680666046 1.1589459857048547 12.58620684758674 2.175709918282285 0.6883491080758983 -0.7212000931676482
P 3.8934012014901915 6.192297336350218 8.12989266003528 0.8461569923577233 -0.579071567294293 -0.07174226284030871
P 4.891364289124242 1.0706289791243442 3.5204529431676566 -0.40185493946855305 -0.2350854751180661 0.06876184005574609
P 0.5370750127868963 5.520317346175939 3.522235279793204 -0.20432094024169972 1.5972384464658362 -0.14909030190316905
Ni 0.8174044801083629 9.087817250459443 4.538284403384295 -0.2589242294088766 0.6130713212785055 0.11372477791968155
Ni 1.7116521179645474 6.7980554771938815 4.92403167463949 0.5781068893881786 0.08716965313897244 -0.8805439544780255
Ni 6.196541860593616 5.979089521143301 9.201984954798139 -0.4307502823466646 -0.6552777794432263 0.1123356108816388
Ni 8.652748971052644 2.6908465919741507 10.014172396543096 0.8180059838448042 -0.4079808498606328 1.149039629625421
Ni 2.5053054401439003 5.386183108950954 6.503416418932788 0.41361850776238446 -1.0712539888045098 1.3704311521961625
Ni 0.6928099701764628 0.36454737233072987 9.019115035676958 -0.4784856407494147 -0.22651624539181633 -0.23014278640081007
Ni 1.4465011420488085 1.2347293757293787 11.25511313815671 0.21584333905900246 0.4861899513722079 -0.6668829677823225
Ni 4.122223776119289 7.01453530252419 1.55393759445033 0.6390669740113187 -0.5881642736241806 -0.8754634546313246
Ni 5.901024812949413 7.927744239045421 7.922785325925083 -1.0115848550786515 1.1401348709366235 -0.2077633902643454
Ni 5.591092742928273 2.7417172604758613 4.753905326057212 -0.5270638067684342 1.226279168134875 0.19523183345623796
Ni 0.8357650013590874 7.728151621518611 7.070211281448779 -0.19260313758413924 0.35274121266103764 -0.35717096629761713
Ni 5.287659248568867 4.460231510782519 7.446859637885847 0.3661441163305049 0.9328707889061998 -0.3431057464538026
Ni 0.7151905194204526 7.638634877892858 11.248501859924062 0.7072284614789045 -0.8690336398455808 0.5407148218929655
Ni 4.68071954851398 0.1432776877364588 10.210623884351453 -0.747506592272661 1.0556365939822272 0.8039785592174605
Ni 8.4636449637547 7.215300390345215 4.737489833046504 -0.7181168262566342 0.07718117446769288 -0.19909851550049582
Ni 7.275868933295974 6.226408041886563 6.785882690643168 -0.6543776362264601 -0.2478913686334827 0.8801662594236327
Ni 2.6170718526087082 5.192598265567369 2.1657480451305644 -0.3825809217302895 0.09631840951777605 1.0668437755519562
Ni 2.561384058092007 5.059581965134543 11.386462531210011 -0.7574441631013471 0.169072915672683 0.302135474689028
Ni 1.221150533717309 3.4618685108000538 3.439148036059912 -0.7659912813404098 -0.5972132712003263 0.8562899670266673
Ni 1.7714662808035246 1.1938292491869995 2.493616183978088 -0.5520292184645202 -0.8500033626870069 -0.4930694521008605
Ni 0.8923598697933286 3.690745618931208 7.860608953555358 2.494884607841787 0.5636665455931325 0.9667327317609674
Ni 3.834495930352156 3.0326989385323655 6.461952779535825 -0.42641797351989785 -1.0574682478743271 0.8855370368172426
Ni 4.256776103526707 7.104379247162282 5.9229999964947835 -0.0824964160330192 0.16141771312027037 0.20929756752068468
Ni 0.770725620131396 0.15788993961249945 0.1290698926673372 -0.46151044634765687 -0.1571532814169616 0.33324916537469707
P 0.03215386170421659 5.983288600801651 7.924713994114481 0.5782809530721975 -1.4716724529368523 0.5987009114894463
P 8.72785069230146 1.9953535734965082 7.9477144074985135 -1.3476079836540598 -1.4320180717700242 -0.6627494052299231
P 1.8369701056903973 3.3585275244029758 10.050355375157588 -1.8610233464011239 -1.369078751933326 1.4803782082409667
P 4.156125436564416 6.2714981591702825 3.794219303516623 -0.10155600376763156 -1.7588279092772805 -0.43268040948984193
P 6.909885512077755 4.0229909802104675 10.202974651796326 -0.02036802213339073 1.0048336523977468 0.5005806728762411
P 6.384800598609683 8.033012075848495 10.233584306500644 -0.036052522748183075 -1.6316120388496995 -1.0067388398402597
P 2.571663623229658 8.795245011926292 5.908353206734106 0.5273556269772401 -0.7195479022762059 -1.6572428520439266
P 7.228870143440275 4.209650068832876 1.4535432349477053 -0.16594645422855936 0.1748841230378214 0.279899288998647
Ni 5.779215147189198 3.211523380692656 0.1262268794267914 -0.14672128745036023 -0.7872990416792506 0.36386329071612816
Ni 1.4186163446639153 1.3272727287192685 6.6667051752488815 -0.03749208340818704 0.5691874754113616 1.195706951774973
Ni 7.151968816623593 0.7696076833392377 9.170643642274566 -0.6118330779960303 0.3705386458537747 -1.2325560022825224
Ni 2.8647175743643096 1.5763363215283386 8.979061087308155 0.11810850880967401 0.26628761175248333 -0.09725711928196153
Ni 6.6745461839529066 2.2744560370217033 2.579417378330392 -0.8957278613073153 -0.2609967956671892 -0.03958316160926086
Ni 3.839676613047524 6.912848499022826 10.411598926155394 1.1347489240343618 0.03640810631538891 -0.06938224724856439
Ni 8.33724539490473 7.291847249398529 0.08063959838265562 0.18386241527703173 0.14723242275882387 0.4417173228811295
Ni 7.72926955831077 4.046104096165416 8.033715558025024 -1.4184884127147053 0.6666847357285873 0.2867116839347901
Ni 3.1638247442272323 8.660529084012705 12.277494510228264 -0.022783830663734957 -1.108202283894085 0.12027929120874768
Ni 9.117637987167344 5.168158167729045 10.133801631112753 -0.7386699678176375 -1.033800214833426 0.5647302109709564
Ni 8.635189183390448 2.758995291710764 5.630450480254154 -0.09290372740927226 -1.9649686763365384 -0.2870351287124798
Ni 3.868997459319905 2.6557179277327516 11.092516957316736 -0.1715278049710788 -0.2516978868637665 1.0821526379948847
Ni 1.2626868844503472 3.4034540411805274 12.594973108042323 -1.0384847647932889 0.5283262184206255 -0.5010378150183178
Ni 2.9939074407361708 8.276431451194718 8.003584889247104 1.1625338074571139 -0.03184414109379032 0.2453737444179516
Ni 5.673456508867616 7.956201638201907 3.367141091052801 0.8022826595722763 0.5041187679364867 0.10911761816497338
Ni 3.272246435232575 8.150686284369426 3.6372627956809906 -0.9760943754815254 1.9854590829804066 0.045411852475895985
Ni 3.4722207872737805 4.160360871890805 9.233246284852031 1.7944562000038518 1.6689362292214547 -1.7834498215910186
Ni 7.311806511151211 6.438643342973473 11.296497703975692 0.5296547074240621 -1.0710457294484457 0.7884485819026614
Ni 8.199102945278593 8.91090148087113 2.336726025236625 -0.786126361527388 0.6793299352964236 0.9313576946957831
Ni 4.89748113027158 0.2939601161604901 1.3671830721993221 -0.8975116926806155 0.6318277759504021 -0.13554290223603754
Ni 6.1391544385961545 5.790839872044244 0.3049849724929136 -0.36742966791114784 0.657538550452945 -0.2404050875587666
Ni 7.936860422805867 9.038846165612702 11.187696096239359 1.4908878495230389 0.9237487720002736 1.8682427469676988
Ni 0.05129421203434908 4.994668919853282 5.9459995009871145 0.8117121804162925 0.8813494810984562 -1.0330872479268016
Ni 7.628382579506234 6.221027403016988 2.5298391538274214 -0.15584356146660255 0.518735489408397 -0.9734114293327236
P 8.692022181450335 1.5847163030110216 3.5077220971125658 0.25580625260518525 1.0817662011897435 0.4636148942851693
P 1.9392476887973733 3.0524945997788766 1.4274562253472747 -0.10084097997847793 2.191043206205246 0.27423720561686316
P 4.804710554356455 0.8187978110859065 8.17591984466267 0.7749770297787879 1.4737918132727004 -1.5053078816031107
P 8.687841279626005 1.8354977011348714 12.316564128884947 -0.766613488305441 -0.28450027810576806 0.5094982870808452
P 6.5936275558180615 7.927089837020744 1.2851356005719077 -0.558614842101838 -1.0003956712310513 0.08155642071725308
P 1.760350535301007 3.3435580780884653 5.840204506997493 0.6977984264142563 0.5921289146988834 -1.1635439938891832
P 6.899124234338605 4.2032514712582465 5.834272170865447 -0.17067676982469315 -0.2713683687095004 0.4889027223176806
P 2.343022826940749 8.527758184339133 10.105773228839112 0.0598856206120388 0.38008232367815187 0.6694399298762213
