# total energy = -381170.0271080695 ev
CRYSTAL
PRIMVEC
9.21935530925042 0.00000000000000 0.00000000000000
0.00000000000000 9.21935530925042 0.00000000000000
0.00000000000000 0.00000000000000 13.49345840180250
PRIMCOORD
 96 1
Ni 4.610701091977197 5.620414124272896 9.924695185669664 1.418699500284247 2.2030669701389995 1.7586458751734617
Ni 3.6661689029748445 1.0782128435643792 9.639956313388097 2.0189484729871037 0.9865716208637655 -0.2641078304923452
Ni 8.687831985142171 1.2231595505315636 10.63907907203584 -2.4492945779168136 0.16568985813306303 -1.3339729093691284
Ni 4.835478198106628 8.676999242444904 3.679153443242786 1.5606861012630993 -0.19200432765787578 0.20158374381619476
Ni 4.796176085665394 2.3933354650791294 7.57467409653973 -0.08546501174303991 -1.3324793555427374 1.5890394555948115
Ni 1.1228253047661476 5.504489948378903 12.361033412482525 0.5723645875877627 -0.5860282011177842 -0.05656272688639291
Ni 3.6736550196303175 5.358907105883113 4.274606721890644 0.364380853782495 0.5396544989492512 -1.3735848673337956
Ni 6.3238232898673035 0.6700848832509652 1.502834230844101 1.0989234296953203 -0.24517011304757777 0.4018683092049917
Ni 6.001136628465547 1.8365601485060348 10.818380785289916 -0.6772203451525886 0.013321656809570606 1.1310367652900972
Ni 1.1924867548261937 4.836778127230301 4.1450959818154045 0.5541629769780715 0.4651842956548182 2.9579762826336347
Ni 0.9087232903551556 0.733264204468076 8.624884069747784 -0.3350170559083972 -0.15129836529808136 0.4478596883334416
Ni -0.13960870014019028 6.468852971033871 3.065808161401237 1.6615579344795126 -0.48074538331786876 -1.7912482345895149
Ni 1.7452977485398629 1.031636659643872 10.855447204025545 -0.17763494631008117 0.22988336209183635 1.3298144071160645
Ni 3.0925037271494995 7.432109671030395 2.5098100364956997 0.3002868515160635 -1.3878251793028937 1.851048237466283
Ni 3.7229693521304745 9.164067012180515 11.69067840211579 1.2447173202354047 -0.21426416749734067 0.5129456221994972
Ni 8.344051438386074 9.070011147501772 7.363960195270223 0.70180883312523 -0.5945380383610084 -0.03558303931093227
Ni 2.478549967845806 2.564105586765502 4.525787140199399 -1.1259912324463899 -0.7381516334203223 -0.9898263803556372
Ni 2.252684977768904 3.6866911882889872 0.14898386273495748 -0.8583062261257475 -1.313055956710803 -1.2283720461081618
Ni 8.312134029689956 8.646455517716351 1.658130586281032 1.2730279942546396 1.818892478669345 0.88464794934407
Ni 7.392779900522698 2.4395981909130775 13.335153279049424 -0.46426461205402625 0.24106920350532676 0.030398666896515384
Ni 9.030773570548947 4.439774241247545 0.6808742949774437 0.012797151764668285 -0.9966560016829609 0.08307697112683758
Ni 4.123734735151942 1.1454035063538994 5.567819545090453 0.4736272842158488 -0.46305696489917025 -0.01123906324892903
Ni 7.38316411274972 7.737021415053146 3.6176096356890755 -2.4225191095951826 -0.3527275858142829 -1.4529337388767687
Ni 5.777926812768912 8.373673227565924 6.825464094821275 0.5644026524282086 0.8624642141581792 1.0189374387889807
P 8.689906340126754 4.5573486817737185 5.961059168227852 -0.5460912557135305 -0.2850247831506704 0.41764125576853234
Ni 1.2792224512482309 1.0524170869116516 6.126502346313815 -0.07612779350251404 1.1420968797590008 -0.12139129332600385
P 2.9262879670737223 8.297890125462485 9.70110829833361 -0.5500600105532913 2.3755003176434832 -0.34674745697144793
Ni 2.409543092025339 1.1194694593688665 0.08513152856729293 0.6398802139412334 0.44122161419163364 -1.8180303877793655
P 2.0832608819836382 6.931480229373351 4.578249882598379 -0.837634556709009 0.7042089579262905 0.08721181923081754
P 3.8747107240916048 4.62857742226656 8.219823389004906 -0.9160226070006094 -0.7918534938191524 -2.55718475143259
P 2.2005126450677657 6.6419279315920035 0.6199380429503288 0.10925260108094088 0.028908198393917957 -1.430300574858285
Ni 4.003422146046118 7.752629783892698 5.735232899443996 -2.0994962499341843 -0.39464145243924936 -0.3924948384098918
Ni 0.46314815192449776 5.057701542766151 7.866915680316646 0.09625824570380195 -0.1115784210006401 0.5818375600752045
Ni 2.661839974283574 6.801874529936596 11.02394014490662 0.439456808981727 -0.24019862797491534 0.5887828810447859
Ni 6.417049412552214 7.56675835791856 0.8450719381371085 -0.8164118998848069 -0.16747368950636318 -0.36372933624142517
Ni 7.550864189058909 3.6642051802561055 11.155190577362264 0.14437695558789973 -0.14107874445260218 0.13721823305593145
Ni 2.6559488061273577 5.579802863352502 6.257294576801752 -0.4391680740967146 1.3484456490640067 1.6583566539333958
Ni 1.4423497272358508 3.6425673529280314 6.414034683307954 0.6180158097679743 -0.8717011593754149 -1.9010114567582872
Ni 5.39814468283594 3.727265571787434 1.1417019351258544 0.8145974723838874 0.03864599450697215 -2.4885614938372362
Ni 3.7994531252509276 3.5515999723374443 5.9494409364430885 1.2084583379033706 1.2074728340616496 0.26832161146337663
Ni 9.253835876557789 7.078335342926352 8.79944887815262 -0.01719245261888652 2.352261401720201 -2.493838940186092
Ni 0.49909626283954955 1.9259049225309033 0.9076833470562179 -1.5117873186798674 1.3567246012433474 -1.0397232651860804
Ni 5.223483993134038 8.0135559828868 9.096857910680022 -1.6546658353453696 0.8864811458980669 0.6337823285736117
Ni 0.7037797836849853 3.1525309507255925 9.925234517965656 -1.781902788818873 -0.048698493646967746 0.4844056057782754
Ni 0.8302757945159639 1.3321138936773582 2.901849299548686 0.815254389241596 -0.14161559079267869 2.3273666953610497
Ni 6.449649053554375 0.8876091224187452 8.72066026616041 0.03200277815884166 -0.15356530695538714 -0.34827340669767115
Ni 7.063768761256835 5.566563868873118 1.7692219760287218 -0.055783425518207155 -0.5691846471978843 1.8225848399192675
Ni 8.656753537795371 0.30161029282284296 12.854745571717647 -0.5821599764116296 -1.3420286897940692 0.3015988854592677
Ni 5.148853310466478 6.286844455008802 7.419230231415006 -1.0106237767169628 -1.8090101865586263 0.2966893639727923
Ni 6.7088512330724 1.1736331728552045 6.39506309358673 -0.23108303882689232 2.2469456737998206 1.6885151797946467
Ni 5.161299440373978 3.9420396772134305 3.2529758287568526 0.3721954647309074 -0.42873762279201 1.3716012612448636
Ni 2.0606734610403996 5.052096174630034 1.9097968646239536 -0.015988662118772465 1.2816648439940315 1.2253168042216058
Ni 3.4416775968655107 0.5708256143353378 2.1229529731619756 -1.7922579068009523 -0.6354296343690476 -0.4293060937009703
Ni 6.3026279916026064 2.360450024056871 4.702713025544465 -1.1364530512096622 0.948167052943638 -2.6617710573861126
Ni 3.385384212261667 2.5377105720061173 11.810824120887299 0.12477717907910123 -0.80517335085651 0.15966113544047988
Ni 1.3368803004641558 8.007130092112334 6.580476317593162 0.39526725894870635 -1.20008374068643 0.06607940812757652
P 6.878450496611919 6.817658066530401 9.525518297598616 1.1404007230035007 -0.9319184522952595 -0.1064251589344748
Ni 6.73662915115484 8.709137915672711 10.801135980851415 1.1946342875360845 0.3986287192217715 0.31890523794819914
P 7.512096799235922 2.7263846820483146 9.136434759914772 0.5550705763940054 -0.0966739930849819 0.3463772181162228
Ni 2.2272579953356577 4.825336907070889 9.907909505134418 8.741750748372042e-06 -0.2161289886202213 -0.02598022611384558
P 7.335887257812198 8.723649181209305 5.456390726931937 1.2814445004531092 -1.0887225779029184 -0.9891915749851158
P 5.988247969494671 -0.05445596705527715 12.884808968025322 -0.3044250420541531 0.5604542093034219 -0.4964802775546223
P 4.971860123826357 1.5917493829032736 2.8512626959913185 1.7605726598825293 2.662417689831176 1.7290964436511187
Ni 2.944763555469743 0.37052220928179297 7.6427627245536875 1.1811732769351724 -1.1481988788916806 -1.03410411922709
Ni 4.32033749091299 3.399139490648326 9.81105372219426 0.8945541527141885 -1.7206989636160432 1.0016591113245072
Ni 7.414758844003792 4.686677800545864 4.184564042655407 0.08647905482985106 0.45350608798594155 0.37040520559970397
Ni 4.654686637005848 1.725549889086631 0.3859065477830104 -0.48634961687852374 -0.09227509268633786 -1.9330528014645483
Ni 6.616805187889829 4.729925797135551 8.74905034944719 0.08764145056906843 -0.665152615354777 1.2124134658963763
Ni 9.044160074716123 6.806041678616736 0.7199339383693704 0.7094223838064299 -0.45038219764497917 0.44574624153486464
Ni 2.9486817815517337 2.9681438409848666 2.2325065744144275 0.8134764714055668 -1.0414086233083033 0.45586198981262777
Ni 3.78538438877771 8.075463954982247 0.3292849541238284 1.101759613592535 0.8600229517065381 -0.6015445515858286
Ni 5.532157234195499 7.127612798004561 12.045961016777513 -1.0936688661646001 -0.5389258483133429 0.06505353796622344
Ni 6.185284034963609 6.5035085283096405 5.297235149288133 -1.2081202378376612 0.3436189386447953 -0.008059637079682894
Ni 6.265999492252612 3.799342492985083 6.630226725607857 1.275007486578514 0.8657966209655217 -1.1858069190524418
Ni 8.724810820000673 6.721371117823795 5.255594086359836 0.9359185745935882 -0.7008099595470705 1.575071423450494
Ni 3.535207958281494 4.8403460178037845 12.207316332640524 0.3442730272890264 1.9259804679987993 -0.4091674139695663
Ni 8.733025265739622 5.45970231942288 10.08449796206866 -0.34763654444462067 -0.9583290810783044 2.101040454492853
Ni 3.004726243557427 6.670544811023763 8.440900767777391 -1.588053951753091 0.6144085520326903 -1.4625280674334233
Ni 7.432450787183416 6.192253867711809 7.111106463940572 1.665927524302118 0.19353670514200216 1.5365454994611538
Ni 0.2019158703282275 8.839785402279503 4.478694672371618 0.4523115534572081 -0.2985901805399309 0.43713176039297624
Ni 0.4129220251666728 8.239872721382566 10.627718060269164 -0.4362892098870228 -0.08537810845618844 0.4557421764053119
Ni 1.5621552517898873 8.158180012411938 12.609421288014257 0.01036077440903377 -0.29854467201397616 -0.2915448436573753
Ni 2.3437629906253354 2.829696779636043 8.356890312837322 0.6189182669775858 -0.2665966583524699 -0.36977657087676963
Ni 2.517953493197399 9.135754371479829 4.236500359856077 -0.30887125075096483 -0.2800378714590403 0.26071448854008006
Ni 4.492840851430926 5.91016924787496 1.0444386566731705 -0.04026758927079517 -0.2590003340624507 0.4682922451561806
Ni 7.757396190679495 0.8126898739244423 3.4956292651756473 -1.410529562878945 1.088903069344841 -0.21359799466825147
Ni 1.546113573242444 8.669679074188197 1.2891811990453275 -1.9949032591124416 -0.06807741239421179 1.7282852606037333
Ni 8.916389027021287 2.6010106667801085 7.3318464143022295 -1.615603065015953 -0.891696114440103 1.3380735618010633
P 0.5572703959627484 3.669303483840437 2.6536236846735273 -0.7119649477226254 -2.3748146044303677 -1.4563522776400144
Ni 8.84669991889478 2.5242042162176093 4.810930742186846 0.3451405174956443 0.7489554089040457 -0.1953012532415927
P 5.271627467487341 3.7392507339205805 12.092284590357675 2.2777690869385805 -1.0033472976602076 0.21323392646061343
Ni 7.6898183149595205 3.2057635093077397 2.3995419351930023 -0.32040959040786754 -1.2502413353774275 -0.3528723389222633
P 0.2589191453045728 2.2597193460055127 12.320282939294277 0.17939589486524588 1.1624209360283335 -0.682335812002283
P 8.671292461398428 6.780439528429237 12.234870220384629 -1.2953773084841174 0.4231626998073938 -2.7804323533754634
P 5.539661789561946 6.266054808385534 3.3403596458696283 -0.488043716751495 -0.1818132460574869 -2.031811702103017
Ni 6.914857731430224 5.328501671486867 12.977495758414243 -0.22470798853848398 -0.09351307885849702 -0.8193396150545631
