# total energy = -381173.77556994016 ev
CRYSTAL
PRIMVEC
9.19182941527382 0.00000000000000 0.00000000000000
0.00000000000000 9.19182941527382 0.00000000000000
0.00000000000000 0.00000000000000 13.45317147360420
PRIMCOORD
 96 1
Ni 0.5176424616032411 4.439102030642883 2.7867172146989354 0.2544044871616522 -1.5913004837148466 -0.8846829163470634
Ni 6.109937605492926 1.5467550714507625 5.958664913545895 0.10451045841026518 0.5769486074140193 -0.6616957671544282
Ni 4.9729358995161315 8.541580889533162 2.896669876500713 1.2022020725810136 -1.330158934939677 0.20798064848147407
Ni 6.851185101983387 5.232173060592499 11.036040215663945 0.9557687765502958 1.191188495079329 -0.9655927046192531
Ni 2.6798870173022804 9.279335490898669 6.812820244950428 0.7546912829465584 -1.4008257053276196 0.7982496271534834
Ni 3.011381148318773 1.7920114601980466 13.372357795829602 1.568563447128647 -2.320055249301301 0.43339903282342135
Ni 2.008561766115791 2.259774460234046 7.867737077124995 -0.9426628352959572 0.2596780768557657 -0.6009981921640554
Ni 0.3114495089139065 2.334356962981047 5.517549026581569 -0.43614548522030694 0.20693343816388232 0.5068721623119077
Ni 8.804724578051909 1.7345441435633109 2.969074834892184 0.45622657224089813 -0.7211913514168999 3.0244858363200944
Ni 4.519833867175654 2.9218711148272414 4.718175159297268 -0.8380477329870276 -0.4684313418372061 0.33496511962453923
Ni 1.0620607218880218 3.508751030453378 9.860986174849582 2.3472408085771574 0.39556319292257036 -0.07246654260084293
Ni 6.886610412013821 0.9816873666970224 8.04086610072495 -0.28659084208620966 0.7670094381922791 -0.2482479806419531
Ni 6.5038626409532965 3.4154539633000565 7.320327795593743 0.10039566491094323 -0.299971891378806 -0.3221517699099548
Ni 0.30802647169145364 6.555557488802585 3.6888189659739274 0.5840379101606329 1.7837616964044827 -1.30102087992314
Ni 8.171517842873778 3.23463229777886 10.383924049298837 -0.9432688443110724 1.5667510765102566 -0.04243554345639143
Ni 4.643712150330858 1.2365124497208195 11.615884705162086 0.19710462499891862 -0.14911164205940772 0.6603261405004112
Ni 6.020602216757641 3.907713188357101 3.2356764895846353 -0.3254975464537362 -0.742883748788669 -0.9296139725317989
Ni 4.301858827720101 5.625629312759785 10.125811968125875 0.44888195895036886 0.12036259495117335 0.5051878326309494
Ni 8.538078802578932 6.993079370519922 5.643685742189931 -0.0056422858874418955 0.7982725099716188 0.5159232167705824
Ni 5.705947516975128 2.7410126819889395 9.381757286974464 -0.5770175129787417 -0.8076773482252864 0.4859811777955115
Ni 7.711145073575834 5.099516580478535 4.114168108180807 -0.11542299155771091 -0.17349161356566895 2.1677340991656604
Ni 1.1255670703572143 4.5183999418085685 7.540879304795413 -0.4356554329577658 0.1205230317884376 0.5198965995960336
Ni 5.326159514941536 6.978868802458933 11.764717885619216 -0.21806811462446316 1.0211994953502799 0.865101137560394
Ni 3.6044747405356143 3.1599670685683736 10.595744239871054 0.359716101316974 -1.143653168502527 0.8480608942486555
P 0.3390332693888231 7.485752227894395 7.668186140270635 0.10392681799265327 -1.3662091436950148 0.2139998580923605
Ni 3.9768633200018733 2.1119606536436453 2.3975029917426123 -0.13467798313258095 0.3307780781263852 -0.2372608855028301
P 4.741081197853531 8.462126717269781 7.716752089434309 0.7600816007241943 0.5263271857127257 1.1589414621201655
Ni 4.012895290764535 7.401306892334043 6.011885605055031 1.8528228128682027 -0.20881394301604683 -0.8885683674443988
P 7.737332595183697 7.375091795238351 10.99094510123496 0.18106325526533978 -1.0626888728433181 -0.031673162733564804
P 8.724525867617157 7.509696943158868 1.3076939756356298 0.8101381510609532 1.018686756230755 -0.42651438988844603
P 2.578905580874064 5.638608175697764 4.062589077380398 -0.21866821010230725 -0.6745610531528705 0.15695839179733614
Ni 1.7801448086024863 8.829717161853868 9.12981935752632 -1.3925256701023567 0.12280154340996915 -0.5059437369603674
Ni 3.1271706217109303 4.756229332500692 6.275339058220387 0.8124158913515362 -1.6979418724251854 -0.7855352649106084
Ni 5.283665688197713 5.375436911691188 7.048466576189456 0.5314588505123364 1.2176302342106256 1.4561622731163955
Ni 5.457786510176567 3.2352481503403645 0.938884694489519 0.21538799668913872 -0.052871136967418624 -1.0301608183086257
Ni 4.3541051853259605 2.233586938626183 7.072601562319947 -1.3141599884082593 0.4139512085114548 0.2122923884829505
Ni 8.514676405241755 4.215326946914053 13.075702536135722 -0.6689272519058609 -1.4556447100500285 0.07918483516128298
Ni 1.4124900212134646 8.390935999525693 -0.07347121058750906 -0.36351387779650945 0.6657591385905244 1.6201652304653387
Ni 0.6129479434534104 4.944330926808631 5.284391842710532 0.44302190062516605 -2.3874402636141783 -0.8591582897133977
Ni 7.884558124700422 0.47992287098547054 1.208730145733537 0.16121073931578686 0.2275539426277113 -1.7086386900173993
Ni 8.721327111029042 2.5873252964910534 7.949815516646728 0.07771956346966614 0.5286810306568831 0.09218793228917026
Ni 1.949844360699494 6.249570684027518 1.9650641916150082 0.7415922836707551 0.548277721841888 0.14716865940042395
Ni 3.8616345481955636 4.714627113196659 2.500554428123826 -0.10220752130870138 -0.16332315767309935 -0.5197551889221629
Ni 1.5016415733632251 6.142283652715836 9.315769144600702 0.17590845053727766 0.12706623222359406 0.5559876888916361
Ni 7.223546105961817 7.927235788029769 7.260784044725516 -1.2514921770653928 -0.07625454888836544 -0.636216391936401
Ni 3.434499433560321 6.71383159710929 8.248300869549498 0.5293376904042754 0.5623231441913606 -0.9042256143656814
Ni 7.651922117549346 3.209961428001568 1.7132209380084067 0.6314451958000029 -0.14253604572441905 -0.9609639475979903
Ni 5.567582910880649 0.15712512964718073 9.87547525533764 0.251984821976566 -1.8223421277808423 -1.7119543846541936
Ni 8.081483875113502 8.671314367937297 9.299087812830274 0.6605007184050624 -0.8501414309267682 0.8221318330877195
Ni -0.11588690678248481 0.9782496225477275 12.145886500410093 0.2665490929439861 0.7346042823886961 0.49556933570457873
Ni 7.665314612804753 8.58649216737662 3.136768729841127 0.06978745310678304 -1.837683643233919 -0.027641930086984654
Ni 2.8005941193571986 7.835023356731037 3.851858118577409 0.6300670845055536 -0.6612440243289902 0.5839785176776072
Ni 0.304142004639336 0.361746279530287 7.2691118420497425 -1.0497084014232503 0.7575539492063341 -0.23450877667898964
Ni 3.2420684876632975 9.01494171359836 1.5669715807608133 -1.3294655084170781 -0.2574931533893049 -0.3633488129735549
Ni 3.674351026693206 1.2738864275578055 9.106182568542598 0.2815566220964119 -0.4697536601930555 0.12471881503734006
Ni 3.7498802878556536 4.341659448486 12.952605558468996 -0.2633462697359723 -0.7281562127705072 0.15805136775119877
P 2.3701683298410803 1.7858988937293805 5.702369137837907 1.2548037579371294 1.261625408844653 -0.02739690395571411
Ni 5.324550944818203 0.5715415101129603 0.8306187333599228 0.42842034866190737 1.5306003376213124 -0.9759483368219645
P 2.6719360849783764 4.886330484075876 11.162486695918917 -3.5780921694637473 0.8617576750094578 0.055022636092782656
Ni 3.6230238520149642 8.235208027928493 10.289483518583557 0.40489784005993495 -0.14526347195791112 0.04423171612486576
P 3.733978423207846 8.807960101957129 12.802844922437899 0.040139548333363126 -0.4564767405784913 0.36275900190835586
P 6.136667445028085 4.777076401299089 9.056782920463572 0.31349692244843425 0.3130171545985383 -1.186305198845099
P 0.044809248538495446 1.2204267484874882 9.675318576933979 1.1593353551244745 1.1739559332511265 0.727752035353553
Ni 2.6594719644798634 7.024212096278375 11.958295052626983 -0.12999471872429869 -1.292323095038826 -0.6255807665994259
Ni 7.586899117249582 6.3714819157176175 13.091899458503297 1.4757553647569743 -0.035419517149874485 -1.0764774419869783
Ni 6.191230143611544 7.636176513999233 0.8461152383366504 -0.5843646973724322 -0.8076140990875188 2.4510989781154047
Ni 5.984202572823932 3.332856185424219 11.800650584625696 -0.5098739252527089 -1.932046471687221 0.6120081701213137
Ni 5.064173996911587 5.239848238038118 4.852033930680558 -0.7579344724742043 0.9493441039708748 -1.2959578635779359
Ni 8.365511399747753 5.860333481498004 8.879846641177423 -0.5823209274695261 0.13539866334868939 -0.006207414362292535
Ni 7.907914562891219 5.679759995367264 1.9437547738040184 -1.1948379189064582 0.005004652303442993 -0.6968607450913353
Ni 2.226932054230222 1.2109315888451846 11.13190731828289 -0.8864490071085508 -0.8437272998703083 -0.2830671452036673
Ni 7.7491349039743245 0.5609561995185006 5.021100165740437 1.6040367003345923 -1.2457889560330286 1.0718774813211216
Ni 6.128119043801227 1.411046904017103 3.4799318881237418 0.1794887116893683 0.407045482530557 -1.0330931614640724
Ni 6.857371203086263 8.753470938007878 12.397662653662978 0.21539288178514518 0.6739486163798522 -0.22915368301466338
Ni 3.5935548473555015 4.118867890489723 8.498246929593494 -0.3989506213375645 -0.333131151739594 -0.9531385380163003
Ni 1.5461851780356386 3.189601526154808 12.466112367916905 -1.5641491201110351 1.6397863471303757 -1.9984920049049646
Ni 7.09306808938631 1.390319328999296 10.817317880488238 0.6606192462607977 -0.6914164341473125 0.301997406449267
Ni 8.02403494213732 5.004427106616357 6.654396309826521 -0.6871031514839393 -0.4482949760986473 0.8284472337827862
Ni 9.244038866478101 5.5230393062082355 11.1678942490821 0.7092709458302301 0.1517069135904097 0.08068687362810621
Ni 2.4199972363473026 1.048318937120119 3.716680319692985 -1.305933486733409 -0.8554178488343591 -0.9468120815776404
Ni 0.7191190866909631 8.797499800240823 4.954762733854178 0.8418982170813694 0.36240213278956945 -0.11277398397063802
Ni 3.979859856345911 6.462572943844654 0.37055940544029736 0.33496743361738446 0.9452668485777074 1.2009856836754091
Ni 4.343222059462953 0.3948653595953248 4.825881338023945 0.027271691231759484 -0.0047367433540370036 1.0502568177275526
Ni 1.0766573467786107 8.528473340985315 2.549201265385131 -1.4104467733571517 1.0621959923672997 -1.308258792432476
Ni 6.078896798027234 6.998410631500112 9.295751178803016 0.08861204201245385 0.5814413530780502 -0.41463923571741496
Ni 1.0953075683799989 5.794749779612393 13.333357783393659 -0.026838460349082813 -0.11656224736847667 0.013575167581273395
Ni 6.235157895722453 7.397611776965015 4.834491324506951 0.07130440397194171 0.15833084666483052 -0.27533763776989356
Ni 1.9540634103372647 6.566679602226775 5.9946794198329325 -1.820876084758277 2.6932755557522974 0.9768117132635241
P 7.569673629186004 2.7804732050716203 4.6102401040216145 -0.7351964074467402 0.5996347361576254 -0.5214785993711728
Ni 2.128349685243091 3.306190688693994 4.064606683906521 0.6932935965653673 1.0204582463088814 0.23294348907439882
P 2.3234646452887624 3.431291485142931 0.971588303871273 -0.18057628832659223 1.428812677458849 2.656865649664695
Ni 0.6302074412853111 2.013690806851905 1.049707822523751 0.9359535415965816 0.4804453355789468 -1.3448964982601677
P 5.791109815219023 6.255747593301117 2.793685540473215 -0.015044295927632154 0.24090105335857867 0.44306509515827563
P 5.830165897813551 5.078145577411395 13.00777675615054 -0.36526479904934517 0.8252991750721077 1.1761570546675033
P 7.012437362975577 1.7367317989310438 13.027728540777435 -0.1372259463654153 0.384347526712409 0.5305209120790992
Ni 0.7015452282978166 8.108461894039118 11.231581676588032 -0.8764936956680517 -0.20411782309195817 -1.3958742748596153
