# total energy = -340889.142274472 ev
CRYSTAL
PRIMVEC
9.07615334484927 0.00000000000000 0.00000000000000
0.00000000000000 9.07615334484927 0.00000000000000
0.00000000000000 0.00000000000000 13.28386785182763
PRIMCOORD
 96 1
Ni 4.946367381759066 3.3104179859776655 9.310835349870564 1.0134676739236612 -0.6356317230775247 0.2097876197832258
Ni 4.326230134447544 0.8210415300756159 5.932748288068461 0.825357796224185 -0.8416537051707311 1.2074653778624818
Ni 2.409491785411503 1.6995460016402506 4.855479690677298 1.2296326579881405 0.46878126897745714 -0.25949090054562407
Ni 3.7961192512738746 2.899005035074876 2.8316953749193425 -1.2565600785066036 0.23074468165086712 -1.3844686041258352
Ni 5.447870229872494 2.7230456519172423 0.7556333240270368 -0.33743903508632855 0.7954589517822236 -0.786640067939013
Ni 4.868684586048218 4.967669113448908 2.783714290735981 0.7390600041672045 0.5788291122661838 -0.31117804450727055
Ni 5.329371972973229 4.786209581418651 11.727436486126829 -1.1768353116814505 -0.172257998268884 0.4017963183164758
Ni 5.72599079407012 7.909731419566224 12.231280981780086 0.06796711206859261 -0.01945605184208262 1.2359699130600779
Ni 1.8992667540198727 5.498251956591844 11.93264558837984 3.080673696365572 -0.1824868750857438 -0.9647848640059772
Ni 8.534315981972773 7.290238579135819 9.69378276131922 0.9003977559791589 0.20654417314526363 -0.7562737969423298
Ni 8.344751445085665 -0.016152829948194187 6.789371061750249 -0.8087194163365556 0.628326447665363 0.39915425270793836
Ni 8.566164203745101 2.9193174660599066 1.752314756665705 0.623819560933945 -1.013995007182041 0.394240874566721
Ni 1.4660710353047182 1.2874341869368147 2.7842452457014075 -0.5941960816405573 0.9210385721579621 -1.2408035870032954
Ni 1.9119642924238305 6.805717213762779 0.7491992389844595 0.11034583414511964 -0.7017810652110882 -0.9900469810068756
Ni 7.560562727687269 4.104245578133034 3.9341902326678757 2.789827164326802 0.16155938090445723 0.05308248164727632
Ni 7.524140124674343 4.055243426708467 13.028445875487373 -0.4239697690897214 0.514234773324566 0.08826340042378349
Ni 4.251052357035118 0.5227101878094175 10.533349627803926 0.578915501332403 0.1927859430189067 -0.04920140142531526
Ni 0.07601641397320087 0.36537779397733244 0.9111314272862556 1.239039553124337 0.34572570057515295 -0.4528296307442072
Ni 1.8922690398601503 6.676554476788709 9.645523039230927 -0.48749889999161844 1.646950983199615 -0.7045414015650447
Ni 9.278551472741988 5.271275515987001 1.637143817549778 0.006928865909349357 -0.5847986995860573 -0.08995930006896764
Ni 6.304323279488411 1.937304912312215 7.09992162914386 1.13626458934794 0.34293759630705456 0.5962563066036958
Ni 3.5765126471122146 4.556029258714739 0.5974296194824571 -0.1992306702029859 0.07339856749680908 -0.36264870158273677
Ni 6.061182209936143 5.635592307648805 4.825205273879413 -0.45624379863207876 1.2193122498987388 -0.0612670743405977
Ni 6.916518892701676 0.690574549878781 0.4102693555926402 -1.2800594471801245 0.02537498842967888 0.13200917805116621
P 0.1402093231009151 5.902040938760305 12.81980871014989 -1.9072474103656705 0.11404693714579067 -0.04522776148954792
P 3.833921429581583 6.515198624218615 12.702433173408286 0.3747382857574191 -1.844569314610159 0.8637839614108671
P 2.1387047530440397 8.864025401272682 1.3314417312250706 0.7519707986916018 0.45406967379889535 0.10369001939149884
P 6.419127542012831 8.140429083005682 6.247495668727254 -0.3204455858521255 -0.3025082846474145 -1.088833649559486
P 4.945033187230559 0.8574786549337495 12.692403116446018 -0.14593735809648414 2.1624204002622305 -0.07655331107570687
P 3.996212125936958 6.526380445028963 8.44681278843985 -0.6858463962587027 -0.18476821492075277 -0.7980958751844385
P 4.676714868548497 1.3703266946161188 3.865539117061231 -0.12395262629527685 -2.088157170772281 -0.44071767797202166
P 0.25252308917212024 5.758065919673828 3.7987613194864496 -0.2717542912940094 -0.44409147954026096 0.07368344572707955
Ni 0.7074589177793404 -0.044503102255987276 4.750430477671517 -1.3168617036101387 -0.40274762648615153 -0.22753723045716295
Ni 1.8792175314792416 6.766798668604687 4.722693753323772 0.9011472325506737 0.44808003187436374 1.4903196357243946
Ni 7.086742147002053 0.6333203599146305 9.523736492007318 -0.20339020089731424 1.503060994550463 -0.6944742471370298
Ni 8.494117699205702 2.417451571816271 10.568538781589476 0.36483233949761684 0.866540698220398 -0.23575704726379398
Ni 3.4763845244013765 4.364177531207334 4.729163235364044 0.423081195837181 0.39716113353730953 1.1334744281973124
Ni 1.5305389518760635 1.171459100642481 7.082931977865541 -1.1086488845132003 1.9791100008339273 1.3745186920019747
Ni 1.4097262758967337 1.3500868728571294 11.89596885307577 0.09536221625209383 0.5092005533347682 -0.6304854029898949
Ni 3.9985446973235317 7.113879845234958 1.7420732253325912 0.8127776455663291 0.5774489440892056 0.27911355987255804
Ni 5.582596648791972 8.479096665568425 8.217334052382562 -0.6423153057452873 -1.5134490226530064 -0.005457680680461568
Ni 6.541156422528351 0.8263601558831349 4.93975268126671 1.365567653456274 -0.5848506358699154 -0.0063552527940664745
Ni 1.131042990197289 7.639960916363339 7.10797217708118 -0.3196225757301979 -1.172239464780652 0.5523871160245714
Ni 5.21425004508488 5.13219254350505 6.931827640397141 -0.6116615854151723 -0.029195904837665848 0.6031975138082192
Ni 0.5573883541667026 0.5658491442311554 9.397366487389858 0.5877379847200394 -1.0317890979406683 0.5238902941364589
Ni 6.22872799902625 2.3971845215975165 11.502687333530798 -0.012150262209288751 -0.9882065853640272 0.46787881176784585
Ni 8.133177236554815 7.113925226001233 5.119203660581602 -0.0959114038873445 0.6319830705813438 -0.5033764904538234
Ni 7.481391442842576 6.545758032228712 7.448038394860544 -0.8394525837543543 0.1534506357543938 -0.6180716027065742
Ni 2.474422585798861 5.282121519126907 2.788828703095259 -0.8008909214310723 1.1098945839948435 -0.20871726953718248
Ni 3.1286044839704585 4.816932360187341 9.625451126307157 0.8856864179109134 -1.6197232578319136 0.21132822479746832
Ni 1.1097775631204674 3.463151492955365 3.976830908275906 -1.2004650352852488 1.0047027832468376 -0.2191037549778291
Ni 0.885706399172598 7.995392153988351 12.136938906769407 0.030674803376037493 -1.122644427461344 -0.19849533469885816
Ni 2.711010672700911 5.334155105738693 6.954636013527338 -0.12527391620986167 0.5188231640261969 0.6699207261673817
Ni 5.680138067825092 3.0717151553671656 4.6602062533927 -1.7766225142565404 1.0221767716618848 1.6542410891031254
Ni 4.1266909051330245 7.337371042989823 6.264672288762628 0.41581602963433545 0.08625665440639983 -0.09068846492550833
Ni 0.8187933669143146 7.66386750403741 2.693025367410501 -0.6884367826936982 0.0742837983152398 -0.013312143727873848
P 0.18109920874602634 5.698081622810528 8.14647833915024 1.4741360839859967 1.0162786610098948 1.2637056884124493
P 8.457704172346032 1.743302136483339 8.147699989378383 -0.33113906101022966 1.2155993198235258 -1.0259005003703752
P 1.7072335034473645 3.44823937315715 10.862696908588957 1.1383314991792979 -1.3767498953253385 -0.29140497564540135
P 3.957901683046961 6.545240691493169 4.1297423078574065 -0.4855672301865444 -1.4134955874858044 -0.3863797266510894
P 6.8833092479410745 4.132181977852391 10.399063402317324 0.9544639416959433 -0.3351412401910873 -0.3201483663266809
P 6.570245493711114 7.822200997573538 10.249447553982769 -0.9845674459495432 -0.796283504566048 -0.14650968566018638
P 2.4362573613609464 8.865051006590514 5.902261489284405 1.2354019563717498 -2.115852065584388 -0.39450904062644315
P 6.679549607362909 4.10765821175697 1.997096794726506 0.01970776284157251 0.6645990568441522 -1.6722832913168169
Ni 3.062230575215531 2.005285300193304 0.3686615462250465 -1.5649757297773885 0.5689236802270138 0.12895213639239728
Ni 1.215070017033487 3.79077339700659 8.369049214965033 0.21252790153252432 -0.7150749541065169 -0.7925502627758609
Ni 8.008479966982279 -0.05621406280111002 11.606832561672366 -0.39605658761922113 0.7324360710927837 0.13714032863014447
Ni 2.7160751662172857 2.0439587892135074 9.09648746890494 -0.3271397100428495 0.6035204443652767 1.4505945492206307
Ni 6.611587371788331 2.014942327256786 2.7745482835636026 -0.4274556707557928 -0.6587138017079688 -0.1900294633196921
Ni 4.340180182000712 6.897259295494243 10.59678014005821 -0.38073358410890557 0.30510252773715196 -0.542797158343291
Ni 7.352909417362644 6.114586295689457 11.476172259411197 0.35462146040288606 -0.267310653700359 0.5541172113418006
Ni 7.8325115076713905 3.9153980573530833 8.15076863679395 -0.803703708289519 -0.09257745441810508 0.48735003311858005
Ni 3.2261186745438124 8.572571967943238 12.64853988299452 -0.20911630474781404 0.6608578446341651 0.18528654931806798
Ni 0.3149760997208218 4.915181719174362 10.375138662336743 -2.4194304433675304 0.46257642571832597 -0.589558839978862
Ni 8.901155944239509 2.672355335987218 5.9811142011498415 -0.8714304222125314 -0.2773688092673094 0.4870764677422193
Ni 3.7580266360620014 2.888322402693562 11.535843428987194 -0.5768851011659355 -0.07009058616949865 -0.22103285367974193
Ni 0.8762245418669407 3.547505261308748 13.150404869622827 1.4435132168938174 0.8389051958913165 -1.1276999876073803
Ni 2.9842210379874987 8.784944877960541 8.467881262991035 0.27179054384858353 -1.2633369922191209 -0.6532504646005524
Ni 5.5630012339140995 7.866646920064018 3.8857970911267303 0.6964861353607359 0.8770130585066316 0.07367933196202149
Ni 3.091292417938528 8.605391338113867 3.476640471923172 -0.004237178009799154 0.25202107453114014 1.1234417265516587
Ni 4.002901250886005 3.0472095415782543 7.046998579513068 -0.48951593042164726 0.04276001667534571 -0.39833124258601077
Ni 5.95181456321156 5.6163236342881175 9.1186577884613 0.42849748175674596 0.9339995031940043 1.0753798380474255
Ni 7.721401239521819 8.954324050008191 2.77526529967076 0.292044151891297 -0.47067694333827326 0.4952042390556762
Ni 4.283036721106274 0.6782055682226596 1.6857094060027713 1.3170319106394157 -1.5210867417039224 0.5043072297982089
Ni 5.806922852646312 5.903729103265763 0.61801070460384 0.4665022431352933 -0.3889590573424914 -0.24521665001479703
Ni 7.889228389362836 7.3714338461564095 0.4973214643087805 0.40166416361398566 0.2144217761211275 -0.5906772698540215
Ni 0.44676819829290887 5.1885373029130335 5.99692213727434 -0.523064455801054 -0.6854974975597162 0.06613622950744094
Ni 7.510035782515837 6.426052646946511 2.687180324714183 -1.2115171793343522 -0.5588616680053213 0.846391991186665
P 8.51391278945519 1.5690762985974394 4.034642374049922 -0.06164708338783577 1.0958339921367193 -0.9120893333844744
P 1.7716651154056893 3.522727362922183 1.8301718145190506 0.7943664900489932 -1.4632436054432092 -0.360573821331579
P 4.552970595067753 1.288650391473005 8.290741072294905 0.5564049789347127 1.0097657995920415 0.4711171161994854
P 8.524931239506945 2.026341975745257 12.790464599060659 -1.2879450205757883 -1.4185382921160343 0.116237002818574
P 6.083019434668039 7.890871173102019 1.678178014031646 0.030162382515993215 0.3542810463443318 -0.07823018455749753
P 2.0477526212741606 3.4054453105591076 6.113329248463618 -0.8333467279669325 0.30427283274700506 0.5939700816726803
P 6.948367114474005 4.139297682004431 6.153405910777068 0.5506089410782259 -0.6280325705740281 0.0003686961933283973
P 2.1745555584018907 8.713161581865544 10.508761421020395 0.41776081206553206 -0.119987985220574 0.6746584979626832
