# total energy = -340864.2068240858 ev
CRYSTAL
PRIMVEC
9.29398035678483 0.00000000000000 0.00000000000000
0.00000000000000 9.29398035678483 0.00000000000000
0.00000000000000 0.00000000000000 13.60267970208459
PRIMCOORD
 96 1
Ni 1.0438626640773272 8.88490552475127 11.407248030503483 0.25790555833637524 0.3674947168211284 -1.9022959798976657
Ni 0.9653657085162576 3.200670145995353 8.968287396230279 0.529906675533868 -0.8143560457970426 -0.6611640630206742
Ni 8.530944294282016 2.8905300314946545 4.522768549833852 0.17455964981886712 -2.907120890544664 -2.4184025163236478
Ni 5.959076957000288 4.740868521034481 13.017233972392306 1.1865965048332727 -0.6347791452692422 1.6254773867068715
Ni 8.973319157033115 8.558129185948617 4.63602406140994 -0.8247864971017472 1.724877777584081 -2.4115122169617176
Ni 7.375507399620903 4.326923943277615 5.669474679629457 -0.9642629300642361 2.490615291042472 3.0426008007532506
Ni 1.22975155919655 2.8091798240560992 12.111227055703829 -0.49621673948059053 -0.6387139615472741 -0.0733826266572091
Ni 4.5239656144651885 2.877090936332293 9.913333676148007 -0.39876987278532616 0.9369195050542767 -0.09642382474738878
Ni 6.300807309714588 8.207216380938043 11.225176172993653 -0.2797835893563891 0.3416559013811535 0.7134849839115778
Ni 4.90329941048994 6.451983189321072 11.999644460537993 -1.053275035728586 -0.1844501694597017 -0.4932689697061763
Ni 7.872995564109766 1.980695853818723 13.029258523789997 0.1665383221762874 -1.0110464660766783 0.6059480799701629
Ni 0.07568087960381135 6.98129394152496 9.061792270787324 -1.8872853654214465 -1.9236225092895838 2.3960881690971636
Ni 0.3371995374365322 9.062866654881908 6.648255318959928 0.6401733197016201 -0.3419698330771465 2.3692630784845194
Ni 0.4046468801078842 4.862944949082628 10.608403492065753 0.9174290004298329 0.6991845081285056 -1.4988307585191993
Ni 0.09616016465931894 4.947696753222031 13.131482081038477 -0.5731965965707547 0.27956915935273785 0.4068333665197509
Ni 2.0942775840948102 6.068281222669548 1.0859077004570008 1.0426838904763012 -1.0101586641550862 -0.7587232869240869
Ni 6.1358670456437485 4.00996204741511 1.7186985560130688 -0.7962979027437512 0.8242347383633353 0.5925390056531086
Ni 2.0073138127018515 7.968212389793304 13.228782617050785 1.0281887821839197 -1.903782334635205 0.5516075575460694
Ni 6.418441215295509 8.255182612012005 4.437370814080491 -0.11893357581413065 1.9948667494475516 -0.528300764499329
Ni 0.9939725791315752 1.4177223058485315 5.049055970325212 -0.9867559689604297 -0.966672310836677 0.43143393867725055
Ni 4.37051270974475 0.2739382033828342 3.8814969374758097 -1.201845717682859 1.0284183816962222 -0.4836203908728188
Ni 3.2549841654482172 7.941157613847499 8.322758211608143 0.7218621522316793 0.3481517935181423 0.27345199071140647
Ni 2.2635674308323055 5.098370757905439 12.268392905457022 -0.28628590925128117 -0.607821899954108 0.6058606624626791
Ni 7.653704104665835 6.097482908008511 11.510369386225465 0.8381066112494211 0.5161985819191561 -0.7196949693770315
P 8.266307506140185 3.923044745922436 8.647780776374049 -1.847926918228482 0.062225581599125085 1.7997968954904746
P 0.7299333939074073 2.9395093063948248 0.5565346785867308 0.0014848120756426042 0.4234581195606255 1.2020678609959943
P 7.053331580946444 1.6704999754376832 5.886314387134362 0.24327675267960683 0.2404637087108439 0.7412726955478073
P 6.169706427031134 2.793733229201434 11.854123038398162 -0.5445871603641782 -0.4746325855519117 -0.9510849979213813
P 1.6517261357226272 1.337338672335899 7.738944772156234 -1.0966960830266983 -2.1176898901240757 1.5384008075023377
P 4.146044503409093 1.9571634963145044 2.155508183506063 1.6007009510931398 1.0540252836310493 2.2689990540554343
P 2.566281655267494 3.766654943503999 10.61102811203384 0.34342302058390534 0.07222357335210142 -1.4118801633695683
P 3.798932936241815 4.966647178558169 -0.01635089911420672 1.7496498423224385 0.2125325295182146 1.8185865173931521
Ni 4.051952249312447 3.1409470301493387 12.380900251638526 -1.1028366487067973 0.29198218830511 -0.42135290029216466
Ni 5.418697074548563 2.692893545583437 4.9261291431018535 -0.2758634283663765 0.2953184517671946 0.37670749366864803
Ni 1.90538673341719 7.7441810005203235 5.087537694751048 0.3080875785074049 0.031799661009100075 -0.04376120424635044
Ni 2.577592428996812 4.634173629980599 8.415229595582856 0.8250983719152112 1.7581313974308885 1.140251856130462
Ni 3.201088375097916 0.6202792996033907 1.0057266757096104 0.04719876917298968 -2.172612253193568 -0.5286897724076314
Ni 7.851572940078478 0.5978250437857794 8.226805302704093 1.3956585593043835 -0.2538241891781499 -2.142698496353271
Ni 2.9104191488165454 2.289553399071561 4.405050998432419 1.490762122578452 0.6545712402945049 -1.0962281422513442
Ni 1.9825639438101716 0.2459949229435834 3.140491625126548 -0.06864202664843017 -0.6777834167449102 -0.13807106797452995
Ni 0.14591176930222238 5.177676289731464 7.377562298611497 1.4024832955357007 -0.6623696532930011 0.6664687630630393
Ni 2.7925157178139726 6.545266867152762 10.712980285064654 0.3992586394962866 0.5551207129056503 -2.3584513325809966
Ni 6.149138849165086 1.3187042423216977 3.034771672580642 1.3232979461537855 0.8486599612852352 -1.2261035617889593
Ni 8.762912742523636 2.87933078552602 6.877500631044861 0.29328599471819816 -1.8426111624425234 0.11226310577249052
Ni 8.098709163773055 2.900084242993208 1.6187734000326761 -0.26284696150205056 -1.6913050838349581 0.6381511470652688
Ni 5.737471296522175 6.602731545844935 5.696081485736517 -1.22836021903362 -1.8766183726259036 1.3836684768220429
Ni 0.1973177023952644 4.674518797407855 2.1225350010599864 0.8521183521474808 0.8098594434782699 0.5146284092185589
Ni 3.5222325619860526 1.015627552664288 6.622763790459702 0.44823532650530545 -0.546170188580582 0.024093036393461734
Ni 5.586648588157856 2.16363855725989 0.38977651201675095 0.153455006629768 -1.3685722446105526 0.20973491216841947
Ni 4.670680383644332 0.8201082354100451 11.358618209253454 -0.061090439553417364 0.6355985558467441 -0.3668516839204908
Ni 3.9844221902185883 3.3885200709065937 7.063341197467787 0.7001283600990136 1.5564664067547966 -0.8752078869770927
Ni 1.051781135085856 8.933289984927796 9.151964324095944 0.7000568834311298 2.2128914124285886 -1.518740867179565
Ni 2.3252329885102236 1.584326192349566 10.267927826659141 0.3507640343300088 -0.7939512568884456 0.11048544504677747
Ni 7.211821822857753 7.233718439871947 13.450438465021206 -1.3517628863626976 0.029656903634484408 1.1059551397311211
Ni 0.9420285245932354 2.4722916349514747 2.7678188246086175 -0.43832038138443863 -1.2763920256308663 -0.1324472940298493
Ni 9.213103842502639 6.997911577866802 1.2556092705110193 1.3956804136812544 0.7464750656843531 -0.1281026439079084
P 6.881783297055107 4.036542830378011 3.76924796393989 -1.233522994181482 -2.8745758667291073 -1.3056149270517257
P 0.3142917353921414 6.702335130115357 3.5764304066882047 -0.5438379409029794 0.15113432891639134 -0.03169604555170025
P 4.876160988723622 5.240401361135875 8.014970403459861 -0.41815393373889276 -0.9876440279923377 -1.320523725842758
P 3.858414408606348 8.301206401254062 10.478905820942124 1.46065810410422 0.42879058751713245 0.027723691167513546
P 4.9834506945011485 1.15421938327365 8.823989991263948 -0.49601799320622325 0.04595486946355956 -0.5400422213059731
P 2.173350766419411 0.8724444959067885 12.760605806865556 0.3677163459136312 0.5350946474927107 -1.2454559981736422
P 7.998399237018305 8.957891150138565 10.26871688556598 2.295677077567253 1.7318081861553272 0.6220732676667996
P 6.306383697748762 0.040452048197910956 13.432101442368827 1.5021274269926002 0.16564846337216632 0.20264072432579938
Ni 5.958928253319376 2.9092295193692546 7.644229821395772 3.0230958979511033 -0.24858222405292027 -0.39545057860410604
Ni 5.872782352171431 4.775144719484543 10.752619110007581 0.45744681780124447 -1.2324701274369354 -1.5657632586756904
Ni 7.146726786538817 7.752675698292385 8.861778384777535 -0.08780163029601654 -0.07101849730040673 -0.9164203566596605
Ni 9.105684021004315 1.6700910403151767 10.101145495741015 -0.1266628261375883 -1.3868684718165791 1.4808782878058369
Ni 8.921254280754034 6.596560343087115 5.731529655071761 -0.3822906441833803 -0.45185749663892505 -0.08548455212706568
Ni 4.555760320240043 4.796558049535775 3.6372474239869232 -0.43275599992278374 -0.8349405548166137 0.31310971431234463
Ni 0.7477620358506704 4.4976729448840524 5.047805000609545 0.2293632279223082 0.4308587829000709 -0.12709117192425853
Ni 2.124594547040608 5.6045023238472735 3.327528326782805 1.0405655585817175 0.5615451283747555 1.0663897187336733
Ni 1.9457876647247876 2.9785811985542776 6.616506153687353 -2.3333411677769296 1.3802715353253519 -1.1534945800729812
Ni 4.518630869912494 8.36736095129949 13.062367398344906 -1.1228776265180727 0.28146714770639913 0.5468875263625808
Ni 8.536046689333284 9.025207447691113 12.671344563602515 -2.0573738668428376 -0.44307512246060465 -0.14404399772851323
Ni 0.805127268956234 0.18258860280099687 0.7430685759219064 -1.4517561736288997 1.3670092709988069 1.9331810995122964
Ni 6.847990385568007 1.9288075631607247 9.617461679830752 -0.8487046984802417 1.6630653722629747 2.748975420417762
Ni 7.7976585617680625 8.074070822642058 2.658031826389786 -0.16710602175429928 0.007631291293012664 -1.0943646066800443
Ni 3.133957957146506 6.129974662287638 6.568039906486327 0.7407386774212081 -0.4360189869447717 -0.611950834520817
Ni 5.420713868220923 8.297832686493386 1.9201269857875258 1.1912247476339033 3.0159063221811997 -0.19225243911293988
Ni 6.656543690374724 5.9110084921457 3.2472859617670387 0.3269278511423595 3.3737468037420153 -0.3549387345329887
Ni 5.748912185972291 9.13035953805554 7.343106726346335 -1.4153136145311496 -0.22170031206041174 -1.08546627574915
Ni 2.84034253918708 3.6070494239858544 2.045584563780394 0.11517976519865325 0.8707930457388487 -0.5175836351921409
Ni 7.05618483282393 5.789712758422337 7.664878256888317 0.023567245796978768 -0.8689336239326068 -0.1331936852775706
Ni 5.315942831038831 6.637258681756535 9.458051333893803 -1.4563713038034078 0.4672440063973243 0.9963983771462002
Ni 5.105006659666107 6.240573024965441 1.4122435046049544 -0.8959523186132958 -2.5020788115973813 -1.254011601053137
Ni 4.270221370950113 7.187992057991712 3.852251570430579 -0.2732573582020971 -1.2057692211069815 0.04730649839544756
Ni 8.160337545530746 3.6510750075156655 11.607982199967685 -1.4457940425081939 -0.21564999210127375 -1.1958568470892759
P 0.8687259744859995 6.711787107833283 11.588435101111891 -1.6499949122322617 0.7493050789339805 0.982827837550617
P 3.9962906027513245 8.396441814897715 5.582566672116839 0.26507996459762734 -0.7065306640809316 2.138957284143284
P 7.832873452203877 5.451151652907461 0.9741717546202255 -2.4492997201231366 -0.7259589480088723 -0.09592785894757673
P 8.270610618906556 0.8255554371214283 2.5863185468722905 1.3505570389800547 0.8731535755512253 0.3496422620207398
P 3.39103873950203 7.5293785334439045 1.985297303344923 -1.4244628851305856 1.2075283698899333 -1.0818477051599562
P 7.2871216492792295 7.901779020346166 6.402739965387283 1.553095690510351 0.0410296642478003 1.1625440918697594
P 1.4210774326490936 7.033191526163015 7.599775785385335 0.5783568006154556 0.5011149481131564 -2.002168425315287
P 2.929741333354962 4.3725387973971666 5.076329154802356 0.809844016859302 0.21895154567068098 -0.04972076426389502
