# total energy = -340892.8390877756 ev
CRYSTAL
PRIMVEC
9.02669784710348 0.00000000000000 0.00000000000000
0.00000000000000 9.02669784710348 0.00000000000000
0.00000000000000 0.00000000000000 13.21148473183997
PRIMCOORD
 96 1
Ni 6.417928075714756 1.7215989113614818 11.444382539828432 0.34351480896676323 0.5052904196470847 0.6110710030190251
Ni 4.681841314158304 0.5111584349723483 5.812048888570511 -0.8435763761147408 -1.1213943571043268 0.9938308735293401
Ni 2.6447593097661772 1.616510093934793 4.735088902641237 0.7119693185979996 -0.45895091315059666 0.7177579002553187
Ni 3.57690127262196 4.489067152934772 5.107044823329058 -0.7853414037322475 -0.8416408496549247 -0.3867149985033211
Ni 5.089288405809729 4.514161373210171 2.533025037315478 0.6114492122940501 0.5166937763880198 0.693141130147903
Ni 7.373042984829851 6.385152135491743 2.562010667073152 -1.033128128467066 -0.48825686120356554 -1.411864993860917
Ni 5.217088395255447 4.270539822486162 11.602841708830049 0.959592006951128 1.1080567594551562 0.07480110427129052
Ni 5.657708601839278 7.825461085622297 12.406482307810112 -0.11693634287844377 0.19050074652915577 -0.11594158306534226
Ni 1.7213100570273765 6.412421789970874 0.5591579012725043 0.5973811642367582 0.6317871525204538 -1.5003145421535773
Ni 2.671451255577096 1.7022276175805442 0.2541611232396759 1.2012109123123376 -1.9315132248915705 1.5585348592480515
Ni 0.7199170729094335 9.059735655254295 4.805651503114194 0.06058547489254082 0.4820419906421053 0.05582944826479417
Ni 8.664619032989991 2.3987817908796227 1.407960875389934 -0.4046350733168515 -0.15423790754237954 0.46587540818457185
Ni 6.867692327312609 0.6918629983792491 4.797526572297687 0.4979198382146264 1.5703092261751601 -0.908099495498791
Ni 0.6312315709807501 7.388171730578617 2.4755809369598727 0.9432901844673109 1.2673707959688625 -0.38223459413446426
Ni 7.496636533035161 3.9810626462229357 3.550375418053151 1.2242739647793883 -0.7927580079112928 -0.2979340350131708
Ni 7.9069721680276395 3.7452582159156527 12.458272084575606 -1.281259895246129 0.6764505568660996 -0.5314310825981945
Ni 7.851593376160887 9.015215981010313 6.790003148815397 0.5161600153717368 -1.5450540511527973 0.5607953946929245
Ni 6.793890044948701 0.7965456143986024 0.6603796813013584 -0.19405349687742063 -0.8303344235031701 -1.475754593426026
Ni 1.7833054184847292 6.466067455832994 9.266310734959502 0.4946095428944708 0.5733176955296513 -0.9533959054427451
Ni 9.003409060103758 4.804297498423075 1.3962162386991708 -0.40323922141058943 0.3467991361449898 -0.31321641509353804
Ni 6.325837703322806 1.9155014098276133 7.064630504296227 -0.6070909353253545 0.5058660896448965 -0.11813062029686108
Ni 3.3956451779708767 4.490385050834128 0.7640449884627845 0.8944577363456402 0.694586861455494 -1.6787028216899156
Ni 6.288259559795294 5.698048914936674 4.613767374307623 -1.3166860972642227 -0.15612329749055046 1.0026291885472602
Ni 5.40449167120421 2.7398555725724107 9.524212521825843 -0.22824196983367143 -0.2620956851583228 -1.065845673304745
P 0.1537598700536398 5.588103734017839 12.362923976896823 1.2389613915882338 -0.4810629145582876 0.9267975861289264
P 4.218952243754543 6.064975159531887 12.50188277033695 -2.2526039005268625 -0.2936410640647717 -0.018262802864929838
P 2.425807724514351 8.392852238086595 1.4024121641657297 -0.22473575645262583 0.1439326689616295 -0.2632765928403014
P 6.1954651049639615 7.636035829334797 5.906815676901905 1.7241689244425142 0.30053393452986304 -0.6491942922533077
P 4.684404896373489 0.8754425650802921 12.55815069195087 -0.2649210704222599 0.4245804060905268 -0.21901762302192604
P 4.082522731077427 6.11487474574858 8.314832682444752 -0.40941218299052073 0.4930550539231573 -0.6018481988691764
P 4.748178517325178 0.9764901298388887 3.6973923447450203 -0.04694165885686109 1.1308791566663106 0.6247078770761693
P 0.09931173074458258 5.736638048633554 3.6316256288880053 0.14718357179875943 -1.6979986938050498 0.5474467413001604
Ni 1.3783316420690817 1.0222374350028176 2.581286277855917 0.989064305378632 0.40902677462664394 -0.08416069110931956
Ni 1.8039223965814957 6.225569142596499 4.922229501679921 0.45942065369816365 1.0625852573859185 -0.08967802138312297
Ni 6.055127032078484 5.327873059082775 9.009109419853369 -0.5399146945891734 1.3857927222538973 1.260581798071487
Ni 8.662759533214189 2.4193897422784483 10.370381505484149 -0.3485402872058126 -0.5850604378878763 -0.3379100611854761
Ni 2.4935440658620465 5.267980918245628 7.174272388164251 -1.0022615207951964 -0.38960723244945156 -0.4351571531651086
Ni 0.3834523231852135 8.934941556222858 9.377815729282505 0.8184759815026872 0.21130302798648773 -0.7915459898810626
Ni 1.4852167723859877 1.1792207388911138 11.37408442160514 0.09031462652585735 -1.1396101087814052 -0.1502562971868122
Ni 4.240823932865078 6.833183261084964 1.781092974819441 -1.094108010584548 0.061071156279707724 -0.3321263646241635
Ni 5.625239569346253 7.910330099661613 7.963988402900851 -0.9263250173678821 -0.4698945566462939 -0.010064583324853634
Ni 5.265841590833659 2.9703974379802127 4.680023337193029 0.8023387096211924 -0.5651289890712718 0.4323438520860296
Ni 0.8451408427628507 7.46752543217611 6.925962370529796 0.06677180620891081 1.0580446892030877 -0.2987385331923371
Ni 5.101700115478316 4.813793584656787 6.904269410038488 0.09270138159047905 -1.139197960944651 -0.5008696648715697
Ni 7.888638944509893 7.128157696394132 8.811650402398564 0.5830192390881314 0.15517404620340375 0.5470245661610773
Ni 4.701627836044518 0.3208765450502681 10.368677264912927 -0.8370491165191841 -0.5028417009962759 -0.37387079555080127
Ni 8.102400178445764 7.50597013870594 4.528936272399658 -0.26858489242709227 -0.6580615128359505 1.5147574570517848
Ni 7.257591518167135 5.872507906038341 6.878215651771983 0.6560038589759735 0.6029324330722907 -0.11362296223449463
Ni 2.0825855887116544 5.331176830529105 2.6227838136293213 1.2110620940748045 0.5035623812123844 0.6911402976677904
Ni 2.0742810266061267 5.2774589510834575 11.304301727834266 1.1726642110228964 -0.5385540667962209 1.4483566610290475
Ni 1.282088988624368 3.3781243572678012 3.747331648432653 -0.9621798222829622 0.0906115889409859 0.47911607524456196
Ni 3.629337360960015 2.6897483723030797 2.6861060996839705 -0.2951058215357563 -0.5013599742444269 0.2091492148682785
Ni 1.0652135438989234 3.3131772655838096 8.188226925136599 0.28438226447066506 0.16651672490973257 -0.8188840155743832
Ni 3.6660940749749154 2.818794046064628 7.248850966551067 -0.29968778447948385 0.06286218674185949 -0.6448498992416829
Ni 4.088056096915132 6.9016146581741005 5.953491829283942 0.4325176586597325 0.02132627228160198 0.18630702016278236
Ni 0.7441311901356054 7.399590503473717 11.262619144753076 1.0709187169522782 -0.3759258783076171 0.6904407004976044
P 0.32138294280474644 5.64391580738575 7.759012854070751 -0.6435016127439046 -1.253495837758983 1.2908920190192543
P 8.508592559083418 1.5601112852007306 8.224267822004796 0.16126833202659968 0.4184053876280665 0.0751173499601287
P 1.8594185355214787 3.2160770758347215 10.371424991766105 -0.8629555519723008 -0.050814254438389904 -0.13589462914850145
P 4.145420762328858 6.062628218067282 3.8638040346324725 -0.31821901051445195 0.5591874267758563 -1.1841349306666575
P 7.022328689736298 4.002049718935275 10.403198968517689 0.2565433878815259 -0.5826698261685126 -0.21545973046733863
P 6.125697756579588 7.543593415723157 10.20156510326527 1.369474444709848 0.6379480299155272 -0.7027794245686155
P 2.592160740865188 8.417070868661739 5.806288952614492 -1.598067370125035 1.200299713351978 0.04467960229556176
P 6.795984238870965 3.809690785817019 1.1224662782581845 0.40816622639856154 -0.0460469149567336 1.4421047665820648
Ni 4.966579474002615 2.6915266317974154 0.4380241282560596 0.4260809018954533 0.5824199149412357 -0.4224325065095886
Ni 1.296333117974936 1.0393430276006164 7.106405159696414 1.0341766243362382 -0.5204414163559102 -0.5239363168830461
Ni 6.8928136276818295 0.49480566898281125 9.156866535776382 -0.48006378386981186 0.6028655843900973 0.30952173985077014
Ni 2.535852199110534 1.4701151067310445 9.09135076212212 0.9370634868313088 0.2936590617869007 0.9719353590078292
Ni 6.131276255906997 2.20201782916626 2.437572219940584 1.1775050840549655 -0.38151931323499455 1.3003248822973799
Ni 4.060299000747199 6.721134859545925 10.401560622841433 0.011418526249586787 0.4092054662963533 0.2814766607880959
Ni 8.120218880180886 7.2887968129484495 0.03692912394557006 -0.5301594149746225 0.2236942025619889 1.522341697156946
Ni 7.576883877728793 3.671582307322917 8.193458799263082 0.618213013380445 -0.15314287470598786 -0.029187934417865862
Ni 3.104055754389505 8.245094219493788 12.314636558932358 0.1425455588061158 -0.2242991831358395 0.8647818065477622
Ni 9.207502700545042 4.731352752363543 9.929012082971232 -0.7694260180535717 0.8440592292884301 0.12823736971355978
Ni 8.544211909157779 2.2238714648809155 6.099782106791578 0.37091222714310956 0.859766612721358 -1.3762410740097202
Ni 3.6393660223722333 2.7222174047961047 11.471717186532736 -0.5579396704116842 -1.0233623073295537 -0.24341533514000013
Ni 1.1144632078638792 3.0908948287918316 12.710373315345192 -0.13251028605730084 1.879938695248388 -0.5457480134414988
Ni 3.071695042271769 8.35911946788186 8.113027309931457 0.6937813348350632 -0.8539538626943229 -0.6881691308546084
Ni 5.723098001722368 7.963145309313181 3.7751817195893747 -0.9867729382412941 -0.5212621124849927 -0.9838747907578925
Ni 3.1945213211521124 8.290615857209197 3.512206928480311 -0.4971140544838793 -0.20264355253927677 0.9097290606824138
Ni 3.5630543179807868 4.262930316122076 9.427412018448388 -0.18021916209748962 0.2641451114881838 -0.16390705520102739
Ni 7.476624343700428 6.14364283208588 11.199798743103935 -1.026624265910277 -1.1168571313556055 -0.29919953198915566
Ni 0.5602817251661328 9.24433162814347 0.3730869659398032 0.4138658478865002 -1.1341444576811437 0.35106176807608575
Ni 4.557462443232145 0.3994972787749695 1.626598331553421 -0.9304500952798491 -0.9153700610182751 -0.701648653398282
Ni 5.871948250766012 5.614913026901989 0.4881746566755062 1.5411243770810878 0.6102405366979297 -0.2996584739034452
Ni 7.944730845513967 8.637168844552045 11.220422039889261 -1.6500800157469 1.6270724991081331 0.6673550223227346
Ni 0.016291384443539596 4.662930381972347 5.6745307561217375 0.40355032489310494 0.1916693129159602 0.08269130565264468
Ni 7.992445970828989 8.997352145785488 2.5847606538933277 -0.45456178294396554 0.7628956731342216 0.13178909162056013
P 8.669448316388314 1.8716858180230138 3.6871136437998415 -1.1265468478395437 -1.2211899265374258 0.32358618836363623
P 1.880044540316186 3.33383035047234 1.6309844040828514 -1.5276014028939884 -0.7696152512462423 -0.596373034687218
P 4.627518645950624 1.0497417836284075 8.13472117309256 -0.05127782433836975 -0.0017162113601583346 0.47676711539641115
P 8.376559048303468 1.538158355808727 12.488209128296239 0.16976685641591407 -0.1349248090360644 -0.9605224891851973
P 6.167229593805167 7.80358036981382 1.383493107951626 1.6774434953615176 0.12654918337785948 0.2343750793146028
P 1.8143392060051686 3.3413044563673147 5.946727221847112 0.5711703101693454 -0.9264052357865142 0.7718793646900707
P 6.9933620160443 3.823673140927304 5.88653539463833 -1.2387963267652795 0.11909992618866586 -0.13401643828918208
P 2.4375695119312013 8.461292661873673 10.24944361181302 -0.7310057664041605 0.38819595392422174 -0.3935672455384641
