# total energy = -340886.90582416643 ev
CRYSTAL
PRIMVEC
9.11333843574297 0.00000000000000 0.00000000000000

0.00000000000000 9.11333843574297 0.00000000000000

0.00000000000000 0.00000000000000 13.33829199107824

PRIMCOORD
 96 1
Ni 6.831367681110828 1.9865073077452888 11.507757966936754 -0.026676995070554058 1.344629103531394 -0.5244885898420902
Ni 4.80714937849702 0.4105522557827036 6.052449724969747 0.8976222501165508 -0.831745959138716 -0.10708696088818977
Ni 3.0588191734314663 1.9487142928299315 4.740135354894758 -0.8527680699163378 -3.503287465648031 -2.10985291057816
Ni 3.281859020800275 4.201704732752688 4.333771589503927 -0.18252235630936955 1.8564200433011575 0.2794583448064865
Ni 4.015519226429865 2.783787729705746 2.3937432196341657 -0.7802688743053465 -0.5213230476299151 -0.140078585322862
Ni 5.37022611338013 4.679690225710384 2.8052560212987308 -0.23844899227366032 -0.34847215297203854 -0.7826779979674714
Ni 5.579112946000072 4.328434818456318 11.615905044028398 -0.66570231721066 0.2801718259337433 0.314124271619788
Ni 5.737885530001845 8.21776164615627 12.299865657943279 0.5907412903227375 -1.417581841740036 0.9405383327537867
Ni 2.3489721214005814 6.320956929636412 0.09540116181298115 1.0296447979041559 0.9416472495472492 0.1850662057771458
Ni 2.500773001421103 1.493129385997615 0.10129566917908989 1.4908050600012455 0.5596515108964684 0.29933348646385866
Ni 7.778507841983302 0.28541518165544255 6.642229453101829 1.254047853607711 -0.31267108411302924 1.5169122986112586
Ni 8.802118026524635 2.6193557624721344 1.4074302843917448 0.3458987358179075 -0.08503023819846646 0.7373558769919043
Ni 6.747515853226526 1.0552425826052847 4.719048000852644 0.1676950614885499 0.03265172459675021 -0.6140617102162328
Ni 0.7744979869503533 7.412926266548157 2.0268465894480467 -0.052780634136141355 1.3154313989215152 0.8025503114113662
Ni 7.7104403164460935 4.213397146096407 3.6618943511560276 1.3741345691896787 -0.550680931966742 0.06392919455379312
Ni 8.008328013224073 4.038749126362164 12.827582639300566 -0.6128617763708607 0.06568962888832558 -0.3646608469167591
Ni 8.070335168633788 7.335125695452809 8.780318009408884 0.408359059135658 0.6557619181684964 0.3134179895813828
Ni 7.013743811924941 0.7391929134557566 0.14746566487819338 1.6891021626463683 1.0897391920928912 -0.3474969335429628
Ni 2.1763108094675316 6.3593058582025614 8.853104421640852 -0.1168710368581471 1.5020454088017552 -0.024757923670970263
Ni 0.5119499943534144 5.3404072696851586 0.9932263138570316 -1.6138907103105367 -1.7053764743263597 0.10066563074287825
Ni 6.288759504583131 2.4039437794592824 7.143042036428462 0.243003187303246 -0.6240471035637188 -0.11534585846287232
Ni 4.010269943432217 4.5830432705193145 0.7807971265475308 -0.8311270946077944 0.21187175600576413 -0.5244374248891808
Ni 6.299886890937519 5.882568892624515 4.519520566910799 -0.44231201904233497 0.8184975787692419 2.015934111640812
Ni 5.453977694540519 2.938185911209479 9.484819177053621 1.1779789383675905 -0.967969946602178 0.6672223533996122
P 0.4698327003019741 5.826649447357904 11.95108269943446 -0.3855670009418069 -0.9016236579664602 1.3029247818140721
P 4.342524039835421 6.039682849012447 12.48033345566762 -0.031661849879655146 0.3115210296689861 -0.3517773060858716
P 2.5046279436225003 8.5748040233817 0.9321104429562919 0.17657642313857977 -0.6651608428848932 0.6297050731804446
P 6.475263977754769 7.946849431449538 5.924668871332733 -1.334634197102211 -1.2456251767616549 -0.1887652518952878
P 4.691911212689282 1.4380757078920754 12.40278441271591 -0.3495052222222432 -1.429036620544197 -0.42495604426239075
P 4.1509798904525 5.891098977495692 7.956851320494535 0.40176520796822424 1.3747704030014645 0.26208874317978736
P 4.862275963310861 1.0989683809086084 3.503662188129534 -0.25854293481005797 -0.8867323426769245 -0.13284812901269377
P 0.36451166949083375 5.753505792255263 3.593602637490795 -2.028150708311662 -0.3689767006832936 -1.0107615878464076
Ni 0.9255780018925522 8.956762268168884 4.296744095025727 -0.5924952968993668 0.274744741380901 0.46499069158677336
Ni 1.8224489873917176 6.548316499472035 4.771667506234795 1.3460085003774238 1.0089841842310108 1.6060987250699437
Ni 5.871468846285738 5.486166006255262 9.322025788089068 -0.5796570074841179 1.0197452794022568 -0.8826152351847574
Ni 8.937259723698455 2.505748884262623 10.00937474127222 -0.3707029393457809 0.8479660205420041 0.6522189380122445
Ni 2.3997243037163813 5.034281114869205 6.8585627946408305 0.2871480001412603 1.2002385210967392 -0.9930137769446832
Ni 0.4723926370971812 0.1492491452299984 8.901629304018066 0.7294602762939114 -0.12977926027938294 0.37636219451408737
Ni 1.4885909434058984 1.1812618279029838 11.377363407807161 -0.2477486724080314 0.35104428457458897 -0.8349423545888265
Ni 4.323185535458671 7.208596103197006 1.5995549534395104 0.21691266086378125 -0.22269455765288096 -0.3205234902779125
Ni 5.794752762476364 7.928805021145123 8.310956468709302 -1.1686327212660004 0.6665919189044649 -0.5894295134898494
Ni 5.144670984574949 2.8788307373142 4.805013211943812 1.5679001025130352 -0.06728988349590992 -0.7314893909087983
Ni 0.6800272970020595 7.90083618517328 6.709494093513876 1.0908211123031601 -0.5410729765633326 1.0291357194782214
Ni 4.855696132886726 4.480080771721701 6.433258777767341 -0.23472192113106027 0.7322941461982808 0.9330875329026961
Ni 1.1661063459149827 7.829150664236652 11.942039533603616 0.1482876034962156 0.2844593975655036 -0.45397428587161165
Ni 5.0130743760922485 0.4225372072934791 10.518710118799204 0.3796755751580364 0.7423024223639022 -1.4399622663177654
Ni 8.322838439494603 7.276463135286386 5.065789571529043 0.22154527453978617 -0.28773472588266574 -1.0374290698352648
Ni 6.958644567126714 5.954236186884068 7.079031769208187 -0.6426510918181513 0.5478210939204435 -1.4411706848035695
Ni 2.3204291451008707 5.703737850501521 2.5907234754547557 1.271609002419926 -1.1347934041190522 -1.0081565461233926
Ni 2.432049315509189 5.505349583876875 11.070088972335471 0.5327860539641921 -0.6575622046020289 0.2500276982501952
Ni 1.0303905084132954 3.3848306329364264 3.58013130046454 -0.3531911557142627 0.34784634646258156 0.32621719822858014
Ni 1.8699294811725258 1.332807534444453 2.4161647664381816 -0.5252506648190954 -0.04228847635556588 0.4596445967835116
Ni 1.2350943186444872 3.4218672407531643 8.0659853721498 -0.5919504801394901 -0.14496728087373098 -0.27948174184525415
Ni 3.7461562792745213 2.249253971122347 6.915864733363591 -0.037141642047303774 1.6530316421760562 1.2637355132091204
Ni 4.242149729182482 6.976087497087647 5.802837205093053 0.4863683859316011 0.1681581171678975 0.6313852890963448
Ni 0.47114410971753234 0.21107038853354712 0.6582035852061092 -0.8442929425657911 0.46319606158019583 -1.1547361657895663
P 0.04994382918751665 5.917700812686896 7.6545254278487525 1.601254509603765 0.24362745115080625 0.23321242646506932
P 8.671323391833242 1.9191415092754744 7.814158311008473 -0.1535514229983162 -0.6116433305827272 0.9146902613424313
P 1.8224581007302552 3.1530237538944625 10.167219587410868 0.7595406406190597 1.8901927688762286 1.3434512811732089
P 4.174346490462863 6.210539719915055 3.75618277433357 -0.6244263412800084 0.69545049500737 -0.348782999344238
P 7.2056524948493665 4.12790491727534 10.164925760100958 1.4090444936929862 -1.0396895837346674 1.1445381422106415
P 6.728942869286931 7.942256308826595 10.33876360403921 -0.1469215763866244 0.2697976817882708 0.3023974701011631
P 2.811592525583912 8.720936406831845 5.689315080931942 -1.8526263805866803 -0.44791805237520277 -0.9552892658107162
P 7.069353403681274 4.1840886493595395 1.5596066339600148 0.8174580817611341 0.1727930448367476 -1.1249671620572497
Ni 5.615867040322145 2.8756137288104333 0.19103106842325562 0.6501214320532674 1.0927494396741246 1.2251766790993157
Ni 1.586313272544402 1.1520900312441802 6.64735114935995 -0.8530910004733954 -0.1742796566846031 0.4454050561453619
Ni 7.283143212434435 1.095213685431124 9.325066909159059 -1.7665826135220348 -1.7315220223734757 -1.1003434499712985
Ni 2.5895460321157 1.6069003043008023 8.980858846596107 0.5707409359414105 -1.4592062021490417 0.34835131112345813
Ni 6.535895019045309 2.2724200776848833 2.463422894758672 0.055114938696272826 -0.5517502537715208 0.3691957586726351
Ni 4.40455853526075 7.102361915864399 10.512774601409676 -0.015481640575366887 -0.8465819957102839 -0.9917649921392467
Ni 8.309961292140999 7.294771832408391 -0.14731985146159207 0.11880964864175668 0.6622143586620596 1.5482802713995785
Ni 7.928194427463105 4.054834168880999 8.047138076720223 -0.15984445509587955 -0.8340470964680667 0.2272168710032667
Ni 3.3559778031264385 8.584956282512568 11.997287325820006 0.037156811555955356 0.6302424337411533 1.718721785285014
Ni 0.23435496849707194 5.205083305740588 9.815608759953836 -0.5111507350826036 -0.845086385001364 0.2500629223635048
Ni 8.678532042616473 2.36639682468444 5.66319898668479 -0.06467378602930152 1.7724326445449086 1.4676646173290402
Ni 3.406948705567141 2.9519105990470793 11.612437418714848 0.8946549399581109 0.7643948833875673 -0.4857981152504279
Ni 1.3406814589409248 3.607843140289623 12.640326315699577 -0.33566214569156383 0.40165053676723084 -0.015042753265735386
Ni 3.2564236929418806 8.568506706452231 7.825576412862211 0.04907927402515418 -0.49759716476788496 0.8957103778058187
Ni 5.931316140462046 8.136106132859526 3.707018135591017 -1.2348604820459828 0.04458318592701354 -0.46636391778521613
Ni 3.0148108616334777 8.498962820071934 3.3004803054341187 1.3291924572613496 -0.39852304688184265 0.21040082788719247
Ni 3.6542300334459203 4.087587507585072 9.103704827415019 -1.8035301372806616 0.8005250534512213 -0.1767198906949795
Ni 7.39002444680321 6.056642772030889 11.50987864081445 -0.18705726806524559 -0.18917894239393868 -1.9229951601182298
Ni 7.754412174889933 9.225979401907624 2.2705108332612594 1.5238339654317563 -0.006478408635492068 2.015596011575103
Ni 4.926652586740349 0.6351559520445615 1.1094150008742398 -1.6667405071217165 -0.5540809587872264 1.0457802700134378
Ni 6.37620198785124 5.860323233254274 0.36640997790821234 -1.4847853361697267 -0.00966271990074465 -0.3471027834283377
Ni 8.395890961211869 0.039310385781864694 11.444014720535629 -0.6313312959299578 -0.07145661327908984 -0.6972770066931475
Ni 0.010817532844111136 4.756397196181221 5.866768186268053 0.2527373838718744 0.4306749490240389 -0.9522954732897148
Ni 7.464972542936294 6.5277750344083225 2.460394532362633 0.8868842948737564 -0.30824621557245624 0.008560487975501385
P 8.683298318671627 1.5635754928931322 3.825342077827581 0.6187758278624504 -0.7812122120552223 -3.3668719309990536
P 2.0487696366340566 3.422286454325893 1.4859526318992682 -0.00010335834708369294 0.22835844080687764 -0.14765434078759085
P 4.739674219964756 1.148307995751083 8.513725517168965 0.7793998414368319 -0.6181217392182193 -1.4757232259674586
P 8.838799214138408 1.9424169759004617 12.617090947764154 -0.11836510490517034 -0.48142698276592577 -0.2613536647859757
P 6.431756899576348 8.046576695066308 1.1370922100128797 -0.5190491639940737 -1.7200680149002636 0.2003233890465324
P 1.8866797974046035 3.2211915261555846 5.893964211131908 -0.9385089610285836 0.62709668902332 -0.5824438262006356
P 6.835760310285944 3.994503867762198 5.673709400020185 0.6374402370411731 0.46104764777862534 0.8707683631485004
P 2.344606832241079 8.466956775127942 10.08801738484844 -0.4560625358592081 -0.085453184668498 -0.8598671428549644
