# total energy = -340889.5984118248 ev
CRYSTAL
PRIMVEC
9.07862572705070 0.00000000000000 0.00000000000000
0.00000000000000 9.07862572705070 0.00000000000000
0.00000000000000 0.00000000000000 13.28748643309292
PRIMCOORD
 96 1
Ni 6.480459112012992 1.9066566279337374 11.253251450671735 0.13133657746417382 0.7244517673357266 0.3641214294735213
Ni 5.113172707882067 0.2585492697759319 5.951000023746118 -1.0036969676901422 -0.9039695324908174 -0.3902374098342828
Ni 3.185825892271862 1.7536363939333603 5.041299044961024 0.5181731891470238 0.05472053147133157 -1.347146984857241
Ni 3.42085335105571 4.398294494539339 4.601615761378785 0.42971104244887287 0.38805814279477685 0.33620387712764677
Ni 3.8904271014681395 2.9108978741031635 2.5486062420640634 0.1216625447095195 -0.46758056380113666 1.3591465804212788
Ni 5.312375910162475 4.723926636522461 2.7096238373299952 -0.43607837942779737 0.0841241814444293 -0.6624200469149624
Ni 5.149069593390076 4.83426825171324 11.54004886391205 -0.2677377139354486 -1.5264248660873843 -0.4393169409697531
Ni 5.572750891540749 8.3141962193599 12.324422140276202 -0.09592528784441544 -0.4053526682091664 -0.5032695325623139
Ni 2.21549331261038 6.539497414101658 13.577818094480616 -0.8527618992687508 0.40474640208373525 -0.21938760476683508
Ni 2.4437844312204944 1.6369760553451171 0.09402732503956707 0.8531570778246403 0.41152614400973 0.5247786102786833
Ni 8.190318373442656 -0.12931140332152877 6.610245327451888 0.13277999477891972 0.4576818166301859 1.6357085775165765
Ni 8.857561038413982 2.58040866743952 1.274543704609665 -0.2786201651759072 -0.32319743756564984 0.6001206746551084
Ni 7.207012437840116 0.6739853601829592 4.670657800984211 -1.1217787370269392 1.0425041703653273 -1.2878961696157238
Ni 0.8284754236632922 7.457591582227206 2.1370530798137826 -0.019990841299630087 -0.528860750767857 0.29492867252794364
Ni 7.70863373651842 3.9180533590809037 3.5967499057700683 0.7177568718140542 -0.596694679692695 0.4456940481406905
Ni 7.635895788443011 3.9648899884020516 12.718662363562451 0.10745205753709236 -0.4112533499643175 -0.7649525556632504
Ni 8.26479941762771 7.449584234473523 8.766232788756694 0.6612334828060289 -0.20574661694463278 0.21118012925537824
Ni 6.9332010906166595 1.0056484331329423 0.31240912383885894 0.022744492785367283 0.1738184007774684 -0.5621925321507673
Ni 1.9281184987837459 6.338251521067759 9.00600564512654 0.31570447162271437 1.6641884301238241 0.38878499365847236
Ni 0.3637641851067279 5.083621781648236 1.1665852286312919 0.29953917471676156 0.11444777212863516 0.5265806964844286
Ni 6.354801855483819 2.000874604110297 6.934965067565118 1.5117472094705513 0.07975459162182394 -0.21542759167782255
Ni 3.8505628565855727 4.757690045021269 0.5873988766614406 0.14440215239888032 0.16575644970494036 -0.6049736318720356
Ni 6.052674275104197 5.637436098734619 4.713163925907959 1.377026288915177 0.2691957865382138 0.16252714413436525
Ni 5.40469645359468 2.8011554482000753 9.060232275662537 0.12448792997345658 -0.1798926319960063 1.2278051178610985
P 0.3160069831526738 5.803239037539062 12.266994386363843 -0.5730356455128583 -0.391237568964023 0.7227047027376328
P 4.061967731633498 6.464725853898329 12.349429214411712 0.1368737052323191 0.469114998167792 1.3250280414710147
P 2.3431206308884756 8.683723515979143 1.2272776562990058 1.0659803991103962 0.555871732139062 0.1920413515433983
P 6.649094581995609 7.702278698618671 5.755660684508758 -0.7451913138759231 -0.18247967599689216 -0.3519806803459293
P 4.576907374024561 1.505726365464165 12.38029654135335 -0.26303670891535347 -2.5716592908996807 -0.8651733855592262
P 4.1415600420150644 5.932745631310368 7.9887293083621715 0.6316357145442542 0.5900962005395709 -0.030457288048592705
P 4.989830500873516 0.9531739773321605 3.8825768139368355 -0.3035768351212449 1.5425140583397627 -1.0137160424890412
P 0.22066144168018745 5.918537582291645 3.532916273654764 0.6039575319026954 -1.4566219863616332 0.1539918529698445
Ni 0.4415144423599245 -0.08973495086956539 4.550592069944259 1.9790770907134623 0.2600218333484296 -0.32914954138402663
Ni 2.020747715485368 6.673225568763512 4.710506612203306 -0.02367034703374633 0.23120902288179535 -0.7242118834107786
Ni 6.418533806992728 5.909495271222859 9.114418052383465 -0.8967434470560235 -1.8321645131879025 0.7255570845847634
Ni 8.716769713057836 2.747954702353608 10.07885043328631 0.0005368463400764947 -0.9068481395901931 0.7141490998581378
Ni 2.312616448969682 5.616945640820715 6.81131146369948 0.33302213696555555 -2.1178061039869656 -0.3978468467504245
Ni 0.7457773154738627 0.14720719004722102 8.844669390103064 -0.23373461751712646 -0.5362117918162894 0.5346896987448082
Ni 1.4264064138497305 0.9721301475245536 11.131179343380579 -0.019373776540921473 1.8026269087401021 -0.3304744308430373
Ni 4.344576267035321 7.21409376578555 1.4860593388895569 -0.2311768840922793 -0.5557886855069524 -0.8097733115223668
Ni 5.8075059915574645 7.77722275270785 7.856079694418161 0.13145047733421877 0.8095912774185478 0.0026333238577890133
Ni 5.491079575903408 3.148194989279779 4.795665935785052 -0.6716353948656433 -1.2988102454250663 -0.7168510721703332
Ni 1.0152354617359918 7.55847326957293 6.74103382315383 -0.21975552962921507 0.4885839055256812 0.5395606536838642
Ni 5.542192237868528 4.322869273294894 7.164666096726419 -0.3857143251529486 1.8191717004726606 -0.2741683000521407
Ni 0.9861021522784297 7.664230178850319 11.31260659679283 -0.480463847521708 -0.9190061151089657 -0.6231826986808946
Ni 4.862375676481271 0.40338239923631825 10.285244814881562 -0.6377017182326759 -0.8528452030111764 0.07592544768372086
Ni 7.868989499980221 7.485953208511227 4.004569029322968 0.3049595744013845 -1.119539563283775 0.6076162117012052
Ni 7.1989869328352905 5.978229545421427 6.968011264643811 1.0247270488875642 0.5855615458940109 -1.5854013446215922
Ni 2.6195557009019717 5.554021686987632 2.5429856649730143 -1.1764447611112512 -0.44183405096465195 -0.21364427452515464
Ni 2.3112274192573086 5.428691260979018 11.363338864346526 0.12067806930906314 -0.4221705110974536 -0.577456143178057
Ni 1.138804634383819 3.596588306234903 3.675903718536552 0.18553697476597725 0.36160380525799013 -0.19744683882968575
Ni 2.0384873498512377 1.554723707671227 2.4993628691040253 -1.5482545603679658 -1.0462063018072627 0.44124912499545943
Ni 1.0018444890186642 3.5653487556448527 7.944017077424654 0.9848602945996134 -0.27980210129915034 0.2511952361957351
Ni 3.85826153106984 2.9879754052015444 7.300702945870997 -2.244333432987954 -1.5585993939373997 -1.8892448031406623
Ni 4.477224065254218 6.771074995168499 5.943785240004789 -1.008908850908385 0.466985353419299 -0.0729175140953325
Ni 0.628681202858208 9.16959339929164 -0.020303438227139883 -0.35682823824621773 0.3544779928464863 0.5292345891675079
P 0.13793155830125928 5.631180925716152 7.86548787409746 0.37083098028321293 0.8768575067653738 -0.6628321947517165
P 8.674753833914925 1.6685333578301549 7.920510700096041 -0.31568441701805633 1.1412646136656925 -0.4374672893555239
P 1.759855252449543 3.3570941636700886 10.3796262063184 0.20279396207421208 -0.2810665698338708 -0.18490396916766866
P 4.205764082053668 6.410889604261887 3.641993236303493 -0.23497723167497597 0.17039266292537106 0.7475811542643382
P 6.767752218209488 3.9045443642311524 10.34117187198702 0.8951596475086713 1.1900258422297958 -0.42850416662496527
P 6.586488380057514 7.815561788494477 10.219764320087664 -0.675589751527701 0.14740211556746874 0.022464499651103243
P 2.528751287940134 8.784786775836288 5.523993225048763 -0.46390877137650427 -0.4933453314700665 1.2587393455461096
P 6.89162098550116 3.924372082478368 1.4762526075476876 0.25523546770337974 0.024533209254673876 -0.8482704391563005
Ni 5.1157691947953925 2.756833598162114 0.6237215497087327 0.9984236351063449 1.5149240645366362 -0.650990207811466
Ni 1.883478896850797 1.3500279369203225 7.051867805456109 -0.6577424389336349 -0.39429229662994675 -0.9021594758652721
Ni 7.015344494783696 0.5893335317706355 9.012755603238631 0.1841138691662055 0.6080461001497721 -0.2351708357430208
Ni 3.0092738607912732 1.5662172476442013 9.137937139787878 -0.4376958604265623 0.1546091748388692 0.642700456998848
Ni 6.401702035183964 1.9952367776306625 2.4980737042729335 0.8197769597022979 -0.1394754045212243 0.9875468402928411
Ni 4.22250506760672 6.662049780685526 10.128838253543176 -0.10252428121817182 1.4080633607266395 -0.32950203962743896
Ni 8.168811109464793 7.452825303802394 0.05096195678064167 0.8870349615190077 -0.9012457058017511 -0.5389176207832267
Ni 7.697775700335421 3.897617372920426 8.075616294390093 0.312330670054475 -0.8373807888269902 0.6618510617853698
Ni 3.0138767239558057 8.52462968147172 12.404040778671924 1.2568737530922807 0.3401019266304723 -0.8498023024197945
Ni 9.18647964285383 5.268644170786633 10.046535065566088 -0.5177785248117664 -1.0381849741646831 0.603147120186258
Ni 9.010653901418927 2.1864871039108134 5.620407320750963 -0.13512535508264473 0.8642549875100147 0.2236839181493438
Ni 3.4511759604630825 3.228804105725305 11.865592035364577 -0.501040386121479 0.01950747390530834 -0.6702058615079685
Ni 1.0683998930801748 3.593492494915168 12.708310914686319 0.1921359681397336 -0.1806102268883212 -1.2632953403479081
Ni 3.4827604988248333 8.242111932325608 7.860053408830618 -1.6446434181123608 -0.17614807735190954 -0.3001901780371991
Ni 5.685262298243013 8.02984458784843 3.296359974324748 0.1930376540183966 0.16499257495572228 0.17491600471702135
Ni 3.031607279696104 8.51436175595084 3.37836992269589 0.8743884763995908 0.14349763830673995 0.00884228088197832
Ni 3.349713241080809 4.296922561412777 9.166572032701588 0.11059754514460954 -0.23304864719369542 0.962241528758833
Ni 7.15280396455526 5.986881475590656 11.337680852757567 1.9176855749798585 0.8658444434843218 0.22523197936275402
Ni 8.147421867619352 -0.1413514765538812 2.1449460368852704 -0.38410764278746107 1.3829696509828053 0.167029402880093
Ni 4.671079957073266 0.5500793705264452 1.35258629360625 -0.8411412843106868 -0.39148285220560963 0.31294542082033844
Ni 6.2906068940707875 5.927416478100151 0.13970552173784628 -1.8259355015590555 -0.11047464641350006 1.234522381980274
Ni 8.08654968316533 9.122747691344923 11.230504046440863 0.18698064919103927 -0.5587061162640635 -0.05054634548898391
Ni -0.011097711898075386 4.955104758064176 5.634106966737708 0.7777692478119443 -0.16801027873612356 -0.16867568023426432
Ni 7.459080476820861 5.877111813810854 2.226969603194769 -0.11910224018151101 1.8097516927103412 0.37015349460021413
P 8.910707312507023 1.705882823429535 3.3599802587391316 -0.6031594614814323 -0.24019914219554758 0.18016002672478007
P 2.129391627694357 3.56863521810158 1.4970081613282669 -0.6781976214641933 -0.0862563972960837 -0.75313910796809
P 4.845425882540085 0.8605166168912678 8.055232964257927 0.27920894779984173 0.8815736812941205 0.43659002895689325
P 8.52904189349926 1.8535375897174096 12.37644266479843 0.8338820316451123 0.3144965673575423 -0.2959655984328903
P 6.434539423874523 8.07345830509185 1.022401220899237 -1.1644937593969622 -0.568720305966956 1.8094287621532836
P 1.941745515765921 3.4552885778467766 5.8608574425884115 -0.011628328267547715 -0.19545140566621177 0.3983273859312688
P 7.199849402264541 3.794829174204777 5.805741106746449 0.2667213568557923 0.5758659158728018 0.1881124488026373
P 2.499872179998562 8.449204460227275 9.860696507988852 0.6234536929540941 0.06132235305856536 1.0614837967916235
