# total energy = -340890.1608372511 ev
CRYSTAL
PRIMVEC
9.08386623179567 0.00000000000000 0.00000000000000
0.00000000000000 9.08386623179567 0.00000000000000
0.00000000000000 0.00000000000000 13.29515644150181
PRIMCOORD
 96 1
Ni 6.23842673919704 2.0342318710771115 11.37822074602839 -0.5213289611671861 -0.2620216373872778 0.396816091493065
Ni 4.883350110579171 0.47134727322707337 6.324346485880659 -0.780675622825462 -1.1906567909455752 -1.1952611224868062
Ni 2.9101254836451242 1.3953635743853638 5.008112468334223 -0.36281916572233 1.1880121542338766 0.15787653273623134
Ni 3.260344853908933 4.492089833668792 4.860722200340877 0.5291890806415531 -0.4330714742806735 0.05367332115373982
Ni 5.117895531033898 4.446461574685674 2.597062758920744 -0.292091974410097 -0.04483952491219374 0.2871703687387635
Ni 7.335921263151306 5.888516220377673 2.6171381028093936 0.14397972014948107 0.7409636489478207 -0.2473331821371676
Ni 4.838902754177739 4.4953509415674455 11.410381265260686 1.1424205816470068 0.43676589241312525 -0.0610025078253014
Ni 5.731347170621372 7.751117527005845 12.304400824070969 -1.1291665448505779 0.6635148226410379 0.5472168846775414
Ni 2.210740471575012 6.506518876837642 0.6565782018706218 -1.4065258410361907 -0.8155055860204536 -0.37965397789148164
Ni 2.7287751825623143 1.235814551733667 0.1948616433904927 -0.1761971854222901 1.460412049531685 1.643579752734537
Ni 0.7501656398557831 0.10844500923596502 4.880731232007633 0.8977878291601378 -1.284655551191239 0.5124524846131626
Ni 8.713407789223158 2.108192708154663 1.3633247789576404 0.7305694501976902 -0.3336168331267609 -0.39119977374755205
Ni 6.80215329622955 1.0804259397159073 4.917027635435633 -1.0225827488510517 -0.8189860883698862 -0.731774526249385
Ni 1.0019776728279515 7.679872765866169 2.677378668660965 -0.9302024980454174 -0.9881523350873239 -0.05524169408212422
Ni 7.7200597891075216 3.6567829344467015 3.8163610254696394 0.2637422196228103 0.42707103372286453 -0.02858706760907335
Ni 7.768485878822632 3.734141137413101 12.78442228095382 -0.3077700472669861 -0.4103169541929772 0.3012178479707651
Ni 8.084495409681619 0.12328259598154018 6.632713760262939 -1.2499060635251957 1.261641349684253 1.0423450190796435
Ni 6.684517231361669 0.7356805071115111 0.3671707726306001 0.3884931734496664 0.15517584597561662 -0.7946151157246896
Ni 1.8623923777098743 6.47010165799167 9.256314125353954 -0.8770950766974766 0.06762978333383192 -0.5579599821266584
Ni 0.0943268646786166 4.446788593862141 1.6654841393066606 -0.5887222030101795 0.9988432391422668 -0.28267530908188737
Ni 6.446474522491951 2.1605793634514256 7.158524260557337 1.1211112786462691 0.2701195839040638 -0.9032143994923477
Ni 3.5810507434966214 4.321794597523759 0.5671784261174369 -1.5654197592933428 0.11761845654713292 0.0026320383062083705
Ni 6.081702798875376 5.792345330898424 4.709968176762932 -0.5799048618288658 -0.0306002413843602 0.22522478027390241
Ni 5.465625922010154 2.9407835314388775 9.03142576285761 -0.8817955674969394 1.1101570936276106 1.8651062582212459
P 0.3730453087811838 5.355683891655253 12.413301843380783 -0.2649940897520404 1.1400258561625851 1.9297281079666897
P 4.073459868461353 6.157316899567286 12.688285001778821 -0.31378617155407895 0.026622744793850923 -0.46182540648491427
P 2.7410565694118416 8.382482550370884 1.5935971488398688 -0.5434347919272898 0.5778880885091531 -1.0102417107871957
P 6.2864985581376445 7.818238212975635 6.161520004371484 -0.03508141708416539 1.0997482395894609 -1.1003169676087372
P 4.678681525441083 1.0529926643567564 12.726309156522486 0.6324749226160978 -0.2515011974719282 -1.2596250905851725
P 3.9723110204070005 6.162013258295988 8.188274036946723 -0.2574340180165954 0.8171150965994185 0.7139858348073961
P 4.714907983100782 0.879757889169928 3.8478311708849517 1.447587644073507 0.5626085366422633 0.2726145824117756
P 0.1562706554076184 5.768799950192822 3.8494798925663045 -0.45979912008350493 -0.24816904777490162 -1.9132671341971887
Ni 1.6506656286797128 1.019445947170881 2.53373731217117 -0.3261446931194319 -0.06272360428146617 0.5640640381418672
Ni 1.728550695874865 6.822110549860032 4.840965700149282 0.5359721650016576 -1.5415956602905514 0.14720619750657876
Ni 5.812974790613866 5.624684415897151 9.28576220219478 0.20721086019498508 0.5591498886697015 0.6601749596345275
Ni 8.573879607264033 2.5329906183849045 10.725242480258705 -0.0760192929491078 -0.5765459726589619 -0.7767359214514236
Ni 2.4176709393503284 5.434931538752349 6.958618346369847 -1.571224538900578 -0.7563673850974006 -0.21347046795145172
Ni 0.49781130008264096 0.22292079711793675 9.25314930643504 -0.3953513340220804 -0.8930888810225717 0.6542724781071635
Ni 1.5005819944135241 1.0745759300035584 11.38444319424727 -0.5428920320499424 0.28133987809991545 0.32135729903311755
Ni 4.461295527884844 6.7600859127235156 1.602026068113298 -0.07637204830283621 1.1366600250141456 0.04144618295992862
Ni 5.435140467670647 7.965669358366038 8.351299455121582 0.0134322142455059 -0.7269989592376125 -0.4164719180507795
Ni 5.229100218764601 2.926412855406369 4.490040513496267 -0.25133279021486393 0.18085525301959177 0.8510451736879602
Ni 0.42818074193346917 7.569658219530879 6.792322736430322 2.380842298681687 -0.8576349110903358 -0.12037673601856043
Ni 5.142930665765626 4.694042342869004 7.070044680431266 0.45129365371565505 -0.07456327722887159 -0.5284432036144641
Ni 7.953033700742005 7.5501188237369945 8.568808084868994 -0.3971307945200064 0.16915210565005062 1.4273438062228065
Ni 4.502490860253635 0.3415996898041069 10.398207861219785 -0.4469145508113529 -0.35659426785854065 0.7396621565275777
Ni 7.920686053869842 7.658643770993873 4.547873854854403 0.9000943658061273 -0.664664877085081 0.7962943031993254
Ni 7.380232361562545 6.17026140863576 6.74608222487793 -0.9275460342591767 -0.7226363113935426 0.23990989308990296
Ni 2.230561467215299 5.010024622129952 2.5998415135341095 1.1188091128756539 1.4297336466112216 0.716027033607141
Ni 2.425392225461348 5.053999617498709 11.637011004871717 -0.6735063866361111 0.281970826815695 -0.4490868758723234
Ni 1.0989661102483665 3.2413232384777864 3.63885774164332 -0.6567492217824302 -0.7758460626473025 1.659383038315381
Ni 3.7124306976421177 2.4950563939147674 2.5826375796921575 -0.20867021834933094 0.43528108033748253 -0.08904013068880794
Ni 0.9080623072797221 3.6067580843133094 8.210929198783056 0.3128623741882289 0.41929858886629723 -0.2950276599996532
Ni 3.858008734365876 2.7538557366241077 7.069167178974414 -0.7920956917369456 -0.22498463923863832 -1.2101583513136125
Ni 4.103318536045965 6.918572123051695 5.937802552204211 0.7448406154047237 0.12145582801535212 0.07415807137065293
Ni 0.6367027030342569 7.479564436414304 11.418039872696216 -0.08135278934687924 -0.590250466729248 0.22875104825960604
P 0.0722194599628665 5.796778257512751 7.958905511732786 1.2714444518176038 -0.9543207312498595 0.9724855750843444
P 8.492778851500292 1.9551840690323001 8.28434500389983 -1.058873612862286 -0.3553341701991945 -0.2718028851437577
P 1.5738524576740904 3.129682525178461 10.416569079591788 1.2377347182699845 0.5268935997391572 -0.22433183614598784
P 4.124284098803885 6.068930883261148 3.638405365115874 -0.4520256467856731 1.0353570177975846 0.800780363995137
P 6.836308632438295 4.004876680063476 10.613483676701211 0.35957314798120654 0.5796102134065825 -0.36946289629109275
P 6.503148762546832 7.556413942883978 10.275732820926798 -1.0198810336491726 -1.6169521228446795 -0.612780529510964
P 2.6134191680636865 8.502689349320434 5.938281271943094 -1.0196005262942762 0.9578354292713375 1.3130274174657128
P 6.9668256193125595 3.8820173922381396 1.6549014354015579 0.9841187884478986 -0.4806034584233658 -0.6472793346187821
Ni 5.350151817253357 3.004288838735508 0.3004824786830273 0.6919658788928793 -1.525884677313198 0.21160693238015169
Ni 1.2152668468123426 1.23754048627613 7.313838384873791 1.1312915616133807 0.20550519035778803 -2.1750848831037763
Ni 6.903102299231618 0.6488478318935895 9.272972118848529 -1.0059194292627578 1.7752212630336395 -2.9152224366058763
Ni 2.796468152090921 1.9194208885392612 8.951961011362803 -0.1945702886128391 -0.7641321166444841 1.6302511539464313
Ni 6.7027576343157 1.8688419225790787 2.519418414174935 -2.0567087224550127 0.4735694343947198 0.528045196845097
Ni 3.861914796751451 6.836344967902347 10.468619631846071 0.9317947822332016 0.40399666840190424 0.2986637140903437
Ni 8.708656927298376 6.724604332076878 0.7464848573473303 -0.32955911811761956 -0.04431347720539465 -0.6358461530811759
Ni 7.535993412086834 4.261341469207484 8.355314523899311 0.5747647123888231 -1.0333034777026655 -0.07590744996159185
Ni 3.0725359240909054 8.193202034258757 12.565810869872433 0.8207673486400252 0.25414840528678806 -1.4721159682321743
Ni 0.20173903834890763 4.968020825686007 10.335880731345036 -0.5482345273087784 -0.4088691660028571 -1.098488656150747
Ni 8.648085708723935 2.49334862710433 5.888956787879302 -0.0427679870951457 -0.49776711468684587 0.35002175684734554
Ni 3.4698097203018663 2.701014888026697 11.501639600000125 -0.11272564723120584 -0.8554479307413462 0.07817413450858149
Ni 1.1191050411991073 3.2570474105462273 12.838906400912977 0.2336052910281138 -0.4988366936019409 -0.4475789238682292
Ni 3.046983008996438 8.434006238396416 8.200226587846583 -0.3530376608555339 0.30827449770723037 -0.3301846675167604
Ni 5.955764080471644 7.864783942426062 3.321888046146763 -1.1590574188727394 0.5455143001641379 -0.4381157215728004
Ni 3.173394088432843 8.368048287276284 3.756559210346495 1.5245381905876327 -0.5099114633588637 -0.3633601258274645
Ni 3.279393720938118 4.335638409327515 9.224591448463482 0.23858628918247296 -0.10351595570747979 0.346111623159662
Ni 7.3276458612134965 5.961941109360459 11.863639836096146 0.46843005628562556 0.13724265853596362 -1.2733298417657748
Ni 0.784859649319096 8.832697117705399 0.2704648434431882 -0.4217239104783382 0.042890114495306775 0.41626802957008957
Ni 4.724191694166031 0.40676916135431207 1.733954687765977 -0.464190050062349 -0.8982627119140272 -0.4702686521562611
Ni 5.874899505224239 5.346227587135757 0.37541710619716867 1.0715617498529157 0.7959186650274616 -0.4177507847632031
Ni 7.7189969767840045 8.981990455628459 11.047517153506831 2.5694376006580137 0.3985305030810104 3.6483020548199296
Ni 8.973578795700455 4.815375541204162 5.778248079232905 1.2521712054102887 0.11908244268716908 0.18084651126884338
Ni 8.02102643784904 9.00817015747782 2.4796265391051473 0.4578504809975663 -1.047693942096383 -0.6894495402289288
P 8.676036764445824 1.4353689203064566 3.899589222653617 -0.6886620113306269 1.7849958259219 -1.9521327009141347
P 1.8161009965078105 3.043304043261188 1.6097646135697419 0.6165585084961576 -0.21285211764116246 -0.9623646846002588
P 4.757929172538178 1.0235609384747535 8.332579424042066 -0.007824381140425236 0.8902375276167055 0.7057734741999329
P 8.54426620406177 1.2927249723048853 12.623856773695273 0.5552009313242825 0.6112316969666053 -0.3924038213579823
P 6.725975995844835 7.749328005401291 0.9967162976332428 0.07115219466479358 -1.0490152320109676 1.3516718693107883
P 1.6776719623362544 3.263415200621315 5.834353669275376 0.9690390112966408 -0.30777261837014736 1.199152487121412
P 6.765654322589461 3.9659613980639388 5.7549279784044245 0.32426881625295767 -0.17414081711389365 1.038978673710572
P 2.27111184509717 8.472131224052823 10.353948540844822 0.5868290997525248 -0.7073675581599301 -0.4350280837864121
