# total energy = -340887.1076852869 ev
CRYSTAL
PRIMVEC
9.13685516098817 0.00000000000000 0.00000000000000
0.00000000000000 9.13685516098817 0.00000000000000
0.00000000000000 0.00000000000000 13.37271109558512
PRIMCOORD
 96 1
Ni 6.371476312435846 2.202603402777827 11.42080308341739 0.9789758107943786 -0.041370335416670685 0.7158578550191284
Ni 4.623897434114763 0.43762247009477784 5.818078923076468 1.1663632085055333 0.1409013383344735 0.7498704645191473
Ni 3.0334176436334688 1.8011391233435805 4.523065841485151 -1.4435949779743462 -0.028100872001274185 1.2949996134297244
Ni 4.00744295246636 4.667562464985203 5.006181627170431 -0.5270589216724278 -0.15870417084384927 -0.6603091712195467
Ni 3.9913346767968503 2.954191972430793 2.584570546959001 -0.3656152404102284 0.47131431981195604 -0.3618966539080606
Ni 5.1114857104070905 4.969562939009195 2.0880683547601664 0.6169583150377375 0.5126831125667299 1.0451516352905033
Ni 5.359533054636156 3.155540849872075 0.5567670615470771 0.3965510107571364 0.3796555205533784 -0.7353203346191143
Ni 5.833900301493554 8.232982637905602 12.376297022588965 0.47914641426186505 -0.06723177656446486 -0.6879647281532861
Ni 2.1563160944728157 7.05328671913473 0.42968528400623396 -0.29180041131160717 -0.020747516959996527 -0.6360934932052916
Ni 0.9833631748194136 0.5030597131562979 0.2409909509791724 -0.3201396245759325 -0.29569434704937464 0.07051456108079468
Ni 8.166301868855074 9.214975284449107 6.521964885558168 0.4799270011816315 -0.36068746409130786 1.1688304390991031
Ni 8.996339477021035 2.5700694441143734 1.1394042148302002 -0.1799337696465869 0.4102228518172742 0.8666499701047525
Ni 7.208503614808937 0.7688407795901006 4.5842727206017 -1.7971337468360145 -0.39140546200045495 0.2984693386913505
Ni 1.208979539599446 7.6989608636255 2.604402091111395 -0.5033348385826106 0.39971141076298905 -0.32407084130953867
Ni 8.321728912198253 4.114974600994129 3.8682703744754536 -1.6015612422109062 -1.0743408552599498 -1.8668234980226688
Ni 7.896262114225266 3.9799501552516383 12.408110638614865 -1.1307086925267171 1.3788000929861481 0.8812206688300759
Ni 8.321372574846517 7.431452017878535 8.951398941168483 -0.40502845210052824 0.22317201150993177 0.15982594315311827
Ni 6.90131340704684 1.254718636594094 0.5244509184866755 1.2353685320306529 -1.0503946288569972 -1.2982140066019643
Ni 1.614089424247609 6.8848487940255945 9.422371846329215 0.998787446203667 -0.2660716390869353 -1.5376215061341518
Ni 0.4816685078259204 5.045709490018662 1.2289371723532234 -1.3346830480622756 0.08533182859928531 -0.5523241239971197
Ni 6.689502830432792 2.162492608569576 6.885943389275287 -0.05098240458513801 0.29063673002080914 -0.9377743968554042
Ni 3.482576307069326 4.909140915751982 0.239506212013605 0.6286228958598593 -0.38319387272394007 0.6447843361110701
Ni 6.407996322561217 5.712654233351529 4.165920791751711 -0.2782702380356562 -0.2837153203106275 1.5065553808569667
Ni 5.5344946943386155 2.886012759131939 9.302124436457568 -0.329164196672046 -0.30488938328508136 -1.0222623893971556
P 0.4048101957984975 5.745355038014702 12.439228939962124 -0.44517648507432367 0.5069138141831205 0.6405682411471936
P 4.0561149799714515 6.562116795614696 12.378075968291093 2.1479489461189334 0.13886219641725764 1.1803700643075865
P 2.9085351071326997 8.972556243006437 1.517655400012628 -0.2816826061513149 -1.6851174669670075 -0.9768297109856531
P 6.448326401293612 7.926879715909059 5.695050254490244 0.09936259566073856 0.268786209804621 -0.6001692685048567
P 4.98831176582362 1.2638280812012983 12.762754931087532 -0.5810220061524445 0.011877468163876317 -0.39057396723809507
P 4.208207071176588 6.20975397587866 8.232415239199376 -0.2944010821592478 1.0759953601442371 -0.45773401002436004
P 4.897637615089525 1.3860974771226686 3.7481974785376053 0.9438712537817616 -2.515440320505952 -0.23349241959933334
P 0.3050485289096114 5.912340203151375 3.718804215446958 1.5982609741930798 -0.15062627893172126 -2.273326220675878
Ni 0.9296567401141518 0.1821523447233924 4.494448297398668 -0.3967674976433167 0.07840476246214884 0.14493925584927295
Ni 2.160244942197086 6.606174711257564 4.648220656270068 -0.38235029377672214 0.04483155449239375 0.08463608808384133
Ni 6.295210982309132 5.827111618100221 9.314748829249718 -1.3839279011310168 1.3635966457728323 0.47476679713693076
Ni 9.343073993970673 2.4857088603046282 10.03124547924081 -0.9414024805262948 -0.9901914770045398 0.08750055411582995
Ni 2.462364195338323 5.378939735023018 6.726099590141613 0.0597884329125422 0.22810775824865231 1.698084568650637
Ni 0.5143309376973682 0.2980396473066161 8.95927491032737 0.9275010399538542 -0.9418457387113005 0.46832901193138704
Ni 1.8418986342690946 1.2588941794080282 11.542027223106999 -0.1570085283089812 -0.19105096260567098 -0.7981382983865996
Ni 4.58512062076173 7.224959090975011 1.3011192419032473 -1.0902981499201545 0.1975039173198663 -0.14025290611719715
Ni 6.013156263127193 7.9116668520464755 7.949729163325002 -1.077574531705899 0.5710083306701843 -0.1211472956359978
Ni 5.6659192191430545 3.0698645589174576 4.643793849938883 0.35180687377222636 1.3099508354229181 1.524803014213245
Ni 0.9359063490522938 7.801101767601362 7.0404649702708495 0.04011126619858898 -0.9585630514659815 -0.2872595860184601
Ni 5.421535753838249 4.8182383436385665 7.030863049169836 -0.7251235965917705 0.3796879164532106 0.2861555543210039
Ni 0.7033962270444423 7.714849854770864 11.341984915955416 0.05314675922630846 0.9216209270239933 1.2926413976101931
Ni 5.23355409551466 0.43077987925592615 10.331623247786126 -1.7110169604415888 0.5719431837796278 -0.3537231169583327
Ni 8.3886381026281 7.436258003699388 4.598380938673901 -0.8673117720584677 1.4063718319568295 0.33400326993190216
Ni 7.534716755040644 6.274671331880852 6.684523244363658 -0.24968779841227326 0.2983685514474281 0.7668559433335503
Ni 2.4419981451583244 5.537308845731815 2.340585448539728 1.8128647844180261 1.1026695270013138 1.1953207720801478
Ni 2.384664378949492 5.693402879502603 11.530419762295573 -1.0900778063792322 -1.1816219344368164 -1.187233624196639
Ni 1.6727845818771772 3.6957756856696284 3.5920303499254356 -0.6574855857278226 -0.2576196516648402 1.1364263117367848
Ni 1.8597977335524578 1.3620949585839268 2.4316004039717667 -1.5075131167845457 0.9144154104144898 0.5227199279774416
Ni 1.383941179301906 3.418508678598197 8.105989487859935 -0.6653562467251509 1.6306496749364303 -1.3425207989391394
Ni 4.020883266425434 2.885930527435385 7.178698279550001 -0.07571487433481153 -0.04699976578830615 -0.7261679786958849
Ni 4.183309140830919 7.126536887054446 5.839248102826149 1.3206545949936674 -0.3691484503744675 1.4165274323335928
Ni 8.927246578204908 7.644550891071938 0.34572032602546754 -1.2322240728644005 -0.9690444106132796 -0.1648344521113032
P 0.3427572438929537 5.74393882546293 8.111432312486325 -0.19234191350295263 -0.6057015111769956 -1.6499146938136293
P 9.01750043360106 1.8325059471515361 7.642691541044289 -2.180321706022684 0.5778523501752112 0.6384733062913779
P 2.2258841097579234 3.700892324566353 10.06811360354826 -1.742241465673509 -0.7420103450447801 2.2508812614088005
P 4.328676506628931 6.415579912354576 3.7343295597564476 -0.44876523086684655 -0.49805610668217454 -1.5643638072250028
P 6.963023726883407 4.062044798978548 10.429658049047367 0.9791105366000299 1.0174094321802283 -0.32526486161763984
P 6.527451567089388 7.974893889841715 10.199807665580295 0.998691801166067 -1.5849398316041414 -0.19631349655619093
P 2.545701451368723 8.6577093506096 5.793459666813568 -0.33618845050867907 -0.10294285681282916 -0.06043506535760559
P 7.289017582590967 4.301421267648701 1.7084841024080377 -0.6739283046648781 -0.5953335376791102 -0.9298096334823729
Ni 3.0595399125722818 1.8585551212489677 0.2891997399270072 -0.10626343654562988 -0.6780934917861612 1.6746345651578125
Ni 1.7972194124744827 1.3664623753564882 6.890957695394077 1.0115848550786515 -0.6111874739922312 -0.8117486900811828
Ni 7.2480936082723435 1.1058335815545837 8.882742784029611 0.09916436360700341 -0.6382467921028686 0.4521547161643697
Ni 2.978450322914371 1.9037734174987704 9.136021891530579 0.45960011669882134 -1.5387566481798596 0.8925430358214306
Ni 6.62123224858221 2.220539049481881 2.7128145324778146 1.1860082364299702 1.043731357904209 -1.436530614928397
Ni 3.883117764131127 7.245900763030891 10.307244290814268 1.1853577473301649 0.35557328279319406 -0.8654155834770192
Ni 7.7489211877099455 6.413761678175204 11.298884542734651 -0.7388491737079792 -0.09596745393626052 0.28559736782468875
Ni 7.502646393384388 4.2785974034272405 8.212717093132504 1.9694573082355116 -1.24789880328718 -0.16795088625309787
Ni 3.5275935925053283 8.652419111464594 12.611897229016229 -0.9559158436511214 1.2299535316626689 -0.4794778294593549
Ni 0.27724690599005186 4.883713047806295 10.219345916681643 -0.4938803780379301 0.6154899580223272 -0.8321408805842894
Ni 9.21981781769065 2.51175803440206 5.392438524855198 0.264551345787667 -0.2230300866154288 1.4744528438954672
Ni 3.398224860114753 3.2501529851856152 12.008868442358626 0.4545463563249978 -0.11327457775614042 -2.451763865392913
Ni 1.002203370185567 3.522586595870677 12.091190593779336 1.0070167760919948 0.08877325018066647 1.2468461936529496
Ni 3.2184480977362684 8.66499142418226 7.921432322855081 0.7870648141812574 -0.3411373098735222 0.9174164020243426
Ni 5.950404341800936 7.9402195244612335 3.2326385475050237 -0.03939932773322892 0.2748211031447912 0.8627892015977658
Ni 3.479113438958864 8.523607727239554 3.7757450968833632 0.2981302101843769 0.5622719792384511 -1.1269206862391947
Ni 4.009855082231958 4.577244651602842 9.68067896523173 0.5855913706906818 1.143134834105212 -0.41218846018407723
Ni 5.3289702740833995 4.602215676789893 11.781224609415764 0.0008672330963017321 0.2463944723729821 -0.49974197902502965
Ni 8.085486384852345 -0.24842195529114747 2.4438629772990774 0.44626483304249603 0.8224455076733965 -0.527061235665273
Ni 5.027956580418062 0.568755529219206 1.7260296053962165 -0.9010829549716417 -0.4175592375776873 -0.09050180283599897
Ni 6.316134380654666 5.9228932708758695 0.009254720604450449 0.4839479494155665 0.0428147811726811 0.9819369503052314
Ni 8.038303664740408 9.370667296592297 11.016078774057515 0.47738289460353905 0.27230245048799556 0.7011128354994699
Ni 0.21503862754657188 5.157380133939675 5.692027782799108 0.6048031677324422 -0.6268755741514493 1.6755190246452951
Ni 7.711962608536283 6.382221254118966 2.1827206922364657 0.3280426814730931 -0.20558823698989756 0.5885805352259927
P 8.676622640817135 1.7649206294389093 3.4490093285357784 1.3051703833151391 -0.03867093420763663 -1.443704764079333
P 2.1035690295606897 3.564268929168636 1.4323774759435417 -0.07235752782680441 -1.1043042343912592 -0.642580386481216
P 5.010642239865754 1.0844898878711042 8.082948166485364 0.061590004897655204 -0.1393062259332117 -0.09034059466778635
P 8.50671368202519 1.9354508943825985 12.41578651064547 1.1077356286703115 -1.3596980820493743 -0.3164405784577905
P 6.649638731314204 7.8995331083771 0.9444867697449973 1.38659413510927 0.9360286178088912 1.3651421358830813
P 2.2922633625877515 3.3524583525545872 5.850587853781014 -0.6936633211999602 0.8076400672294478 0.04827580428725234
P 7.114695522750597 4.128341820111822 5.93747020961843 1.4874284302195286 0.36653826644513 -1.0157677828117475
P 2.318732832023128 8.813209488794161 10.171484328230372 0.6356114113625505 0.775225141233852 -0.10327710022379633
