# total energy = -340873.7072058286 ev
CRYSTAL
PRIMVEC
9.20047892626995 0.00000000000000 0.00000000000000
0.00000000000000 9.20047892626995 0.00000000000000
0.00000000000000 0.00000000000000 13.46583090725736
PRIMCOORD
 96 1
Ni 7.292777824804464 0.3375158800984818 8.749786789299641 1.1245730119426245 -0.15441094278513406 0.2163087087311952
Ni 3.8913884591096375 8.064679584902773 10.204594999295125 0.18853745215519788 0.600797903227791 0.12703974986103284
Ni 6.594295884553881 2.7806606707491475 7.2340060870594405 -2.209528666603943 0.2616783951152461 0.5394344125186452
Ni 6.462931449994253 0.28467661100481334 6.3594812677426455 0.9579483007001179 0.7726450392115016 -1.5421355919544215
Ni 6.901665476217142 6.153013325737279 3.649509714769694 -0.8732911295703542 -0.45777154813051485 0.3451366608409024
Ni 3.5147392630035967 3.0186310517468207 11.507872245517415 1.8795910821009822 -0.2535953609967955 1.2794860911751575
Ni 6.064329911763316 3.9996872936243717 4.486181924710861 -0.29332918925130774 -0.38099506530040833 -0.40828912512967097
Ni 8.672518409221052 1.9344650453287346 13.027490467414069 0.6959796280379626 0.3300684536538702 0.08697682040187601
Ni 5.6988408962932775 5.94487089661258 9.678282536587457 -1.4069259046880866 4.204164788097928 -1.6864331004546376
Ni 2.4672371641159856 7.010120718869397 5.459841901779442 1.3914478636571455 -0.24409976280153442 -0.16269503717079725
Ni 8.518318386583472 8.234428416505597 6.889792258483622 0.23461856278397655 0.6456119742186881 0.7261870048592783
Ni 3.3295888300943695 8.774238901481258 12.98689151515316 1.733961485052904 -1.015994811220889 -0.9472021179272074
Ni 7.94685825495666 6.958846451198798 9.27953287064981 -1.1459429929779685 0.1035151843765314 -0.5276551604955299
Ni 9.024280310504022 6.168930153849631 2.322182417284 0.42526200553858373 -0.1826455121507951 -0.7103181561478218
Ni 1.0865213289595665 7.752562546241839 3.5949591566419805 0.8065262653399787 1.6323013516072404 -0.6792394324651464
Ni 2.3497838533169797 7.618079149410485 1.3750096982805344 0.39079302522743664 0.07422106339810443 1.235986111009994
Ni 2.6323857563799806 3.2679732243900808 1.248939219152032 -0.6423770122211582 0.22533019550351513 -0.31836067829863884
Ni 4.076925312123326 6.270383832228187 2.4145175012451268 0.564691130202905 1.4435232441961463 0.9808362610418849
Ni 7.538780223687733 1.1255037571168114 11.096733214992431 0.2574774696600211 -1.5744145065927855 -0.6252956312588392
Ni 2.1605576083535487 2.9441715778085187 9.81158091176513 -0.6030334774265292 1.0892704799865884 -1.8066684257993275
Ni 8.628429715397704 7.969463831067671 11.40689147174289 -1.9132365380695693 1.5337478821113586 0.8816796107443654
Ni 8.576069791243143 4.415723738949474 3.9471442799441236 0.13212102103868212 -0.4981185844889937 -0.292068063150697
Ni 0.13758671828932922 3.41753620577412 7.8981269995925665 0.05634238334547072 0.8052579401505164 -0.882178661867971
Ni 7.915788238462203 6.728530868460938 13.452418255333262 -1.3382980191070435 0.8084034277580335 0.7229080769976906
P 6.972435558205702 4.257668715745955 2.383855986003957 0.33881508949824873 0.7312196821871794 -0.8232003835615501
P 0.8259168503669825 2.14034415669873 11.37893673732869 0.025275486737337115 -1.8574310010641755 -1.550186744393672
P 4.009062581396907 0.8819578860404766 11.27553255747047 -0.5846367200868963 -0.22663117370312583 -1.124335699120838
P 2.9538320804200615 8.209145501099389 7.2266401838301055 1.1072093238531964 1.1676968397152923 0.37316657039492507
P 4.49983451502064 5.466298797715424 4.84492514921444 -0.44282341146111476 0.6453512643581337 -0.06929868639582258
P 0.14745699181472274 8.451449307554238 8.982934279374486 1.1471007607314956 0.23909433916714307 0.6427660201294607
P 1.6997240323469203 5.162452989385706 9.176573073911722 0.14915715058536247 -1.4503916891812052 -0.24023513763980564
P 5.237308083907147 6.7387802017078515 0.7502714347271306 1.426549592456285 0.6850429265208009 -1.151676553027636
Ni 2.636654778486415 5.005658431761026 11.091764036458628 0.5916072378674585 1.2855762632332957 -0.9141230759850515
Ni 7.341687569454904 5.240850268198046 6.120071931879786 0.2506977277340263 -0.8131118889772964 0.4336170623714984
Ni 1.3280154932907833 3.761606506882567 12.636860223909455 1.1872734762956392 0.22397085326214328 1.0939555441670836
Ni 7.1361120738812716 7.882022481715191 2.0608244194877154 -0.20146418751919495 0.9196339785009516 -0.7366179703846152
Ni 7.075131301205742 3.2858589549394517 11.34688778990293 -0.308453703597572 1.25791247876944 -1.2654033878298465
Ni 4.88824192287673 8.990256940354035 1.593452063284874 -0.9579138479177566 -0.5329706591711724 0.02143220173184696
Ni 2.235780722022096 1.619817875031444 12.97022024778924 0.2395237133950778 -0.19430906453165245 -0.26280093875546356
Ni 5.109679043690648 6.790017667463739 11.887096655605331 -1.0434145979947385 0.4000821638388464 2.4259371341377958
Ni 9.160382991582644 4.001913809464366 10.496965050570196 0.8385454985590527 0.35030097865066123 -0.32794523666328035
Ni 8.704950096559802 0.6868313741010625 4.718844549559392 0.5602490352711512 -1.1736265749361658 -0.9910006031693966
Ni 1.1455976025488206 6.181902828785132 7.402436490067757 -0.9118566485483779 1.96889423664319 0.24584219941393792
Ni 5.874772449567489 9.11927525285086 12.582876415268288 0.37273848171857094 -2.0988812420580047 -0.1316834192806313
Ni 2.557815876697547 4.27333713093401 7.367250179412914 -0.5146975718935974 -0.8491384435835504 0.3975293155100057
Ni 5.0589016018686435 7.345110147522994 6.068726820523369 -0.5223543171079069 -1.1718224318478916 0.06512090086904915
Ni 2.5431411132066795 1.767338350149043 6.751039839545833 -0.6775615305420911 1.183338145796975 -0.37133877315756697
Ni 0.6349333139761186 1.360097562439783 9.018820746456699 -1.117185718339618 -0.8854689025834686 0.18952372732786715
Ni 8.04527577537159 2.644061163821931 5.551261538112141 0.3458534844022689 1.1564330938760148 0.1972882017646344
Ni 5.4686817216929375 2.099687241422151 12.345796640606613 0.2299458398986556 0.8419534957993371 1.1615066517441803
Ni 4.553666515763629 4.07321751921623 9.40415887462592 -1.4462229025154965 -0.6645034118065524 -0.14508992249452432
Ni 8.95328021654852 3.6148864734099244 1.2163088014738435 0.8627223529155722 0.27464061170286896 1.3708957505374069
Ni 3.5856933545657097 4.195307871268776 3.0872574222034856 -0.2446484362161529 -0.4124581689056961 1.945069109199134
Ni 2.773631505039415 1.9511639141286874 3.811893563191052 0.017558320598737503 -1.238521732947654 -0.17586499889385196
Ni 0.9733278397883169 6.255929880225583 13.338094027332527 1.8034802578793325 0.43445112823701953 0.4034577651792987
Ni 4.189033144810612 0.5517490261077923 5.539169348986093 -0.35338784510610105 -0.20159711355263343 -0.4741471612750608
P 5.229404872723037 4.7910664670832865 11.333031869014373 -0.7789218733591489 -3.4877045236081097 1.9056404708898664
P 2.0206091271876643 5.498150854897482 1.8022670474009108 -0.6708087851992898 -0.9522628202795664 0.5453811170203833
P 0.3021179584340532 1.3959978302400122 6.70965976664519 -0.0957000592074868 0.4458526852057419 0.35173925375908455
P 6.365489180319156 8.032790725806004 10.675360492034287 0.938099641405307 0.7462238689054954 -1.2783383507239596
P 2.561109648064149 7.0241514488528285 11.81456928218934 -0.005703992363312757 1.0598678584547554 0.425220610777687
P 7.5633915041504745 8.118944008143611 4.34119526142109 -0.15734688548500642 0.2391259637360269 -0.22358930155300843
P 6.433085097163923 6.350869619700355 7.6488207088161495 0.2748252169098493 1.301934649986661 0.14302995464170207
P 0.3841650671378207 4.819330337581057 5.997209659666185 -1.2919124898639687 -0.2352747083107367 0.60085575304892
Ni 8.998086547708724 6.725706321506897 5.195346540754075 0.31142461330043786 0.09257873996968571 -0.20288600756738606
Ni 5.374708032479319 8.44189001020815 8.094755029652175 -1.1648277456976133 -0.9003977559791589 1.5997884665811994
Ni 3.3548993469366115 5.3563530775173875 13.36343674585014 0.5032229955950948 0.5227854911080545 0.377149466302073
Ni 5.415668563552261 8.301444703193672 3.9734300475261977 0.1241544578934378 0.5151295172246935 -0.8726948907472519
Ni 7.356730352092877 4.622835714462275 9.01900935626959 0.21725616024612904 -0.8013151534526846 -1.4503276687124893
Ni 3.141172227254572 0.9953905876573453 8.788150945289749 0.8887005221468888 -1.866146526560302 1.2820759633895211
Ni 1.039433279087303 8.704802888900959 13.30584266937586 -2.0681737856718185 0.30130629391951336 -0.10173675231986995
Ni 1.6123286853878291 8.934078817548244 10.861889156649427 0.04383216669360193 0.6410297541646444 -0.504237552902538
Ni 4.790836455116345 5.022789723058829 7.096479171881516 1.2713603767442299 -0.9355933300436854 -0.7449298326844204
Ni 5.04534929677645 2.010092980059099 2.960530028897398 -0.5916835996313488 0.2728094720314011 -1.1813355135446493
Ni 1.5644125924345762 9.14054675955361 5.786388971198417 -0.07571050345943735 -0.7816585555640216 -0.8043739948836663
Ni 5.544843284186606 1.772739031132829 9.604893998367237 -0.8385339285948269 -0.0802659840406037 0.04936260959352789
Ni 7.552562540746868 2.2814610986566772 2.9070034840465087 0.17675331503607625 -0.1275244028069352 1.4033176185115381
Ni 1.3533536115690585 3.28633737983069 5.057886789070498 -0.7900298103468524 -2.798768175570173 0.23212896359290347
Ni 2.1311528784997478 0.809237302572253 1.7399604857479303 1.3684341763707917 -0.22484888499172243 0.35866529145495646
Ni 3.4535928817118693 6.467485686939694 8.341139248400568 -0.07974636409170782 0.13892364578281235 0.7840836200657464
Ni 3.6315761417311996 3.4814427306691456 5.402491637990116 1.9652748947230478 -0.13996931343850735 0.1161207889556839
Ni 7.256049513923246 5.661588158127432 11.321248815971893 1.3840464289867518 0.7774830840300933 0.24544085021046114
Ni 0.7831502653296162 6.44524812997579 10.595400051894611 0.12232331822196998 -0.15883555421539097 -0.2077667326984551
Ni 9.077376272952797 0.5286530644832627 2.1702613532148765 -1.0302700901929807 -1.4640763857571497 -0.5325178879044701
Ni 1.5939553294685425 5.314334491396515 4.137820520347154 0.6711893084671602 0.9536273047272608 -1.708208030237884
Ni 6.9842489728278165 4.190155603209287 0.045150429062748125 0.3646701028881397 0.22461080083898735 -0.39407272441997293
Ni 5.092391344255326 4.237482865527169 1.2917067242372664 -0.6833020325702942 -0.5108265189739654 0.31976758594849447
Ni 6.795280341267361 1.2875057856730467 0.8578572321443466 -1.971406204431766 1.7667885588852539 1.471573465465143
P 8.082887332205862 9.142644468692115 0.16504278675920186 1.0217322279252985 -2.775177275624111 -0.789151521506957
P 0.7346205004485634 2.27987861632412 2.995918750083149 0.009874578801234607 0.7979562642827805 0.03835186030532104
P 3.2934033474551327 8.359398518384252 3.472716076643385 -0.9179326795391289 0.4991660519169016 -0.2927524908122313
P 7.609163885571832 2.522706850063597 9.077087377922318 0.7066787596230217 -0.9017337011817632 1.5840661707499364
P 5.994314269026325 1.8986751832726376 4.817737734721955 0.5597343004182619 -1.3689198577579584 1.4551479729192682
P 4.310847482502829 1.8576502488489524 0.7632275488010114 0.02333353251961788 -0.19967084306419805 0.38474244815798253
P 4.22245848384655 2.6953446319712073 7.847603490982066 0.20836065752871213 -0.15034680001808945 -0.9773087075046006
P 8.853620631512108 4.889088366915074 12.54382498352096 -2.5248595569373227 -0.19910288637587 -0.1730226443490504
