# total energy = -381171.7880197138 ev
CRYSTAL
PRIMVEC
9.20728621275566 0.00000000000000 0.00000000000000
0.00000000000000 9.20728621275566 0.00000000000000
0.00000000000000 0.00000000000000 13.47579405912336
PRIMCOORD
 96 1
Ni 7.010676167224724 4.01071220195163 8.439404804861791 -0.05449298884155777 0.8678506752810732 -1.3571989697766047
Ni 7.270505778519151 4.464355183825353 2.3638298124305934 -0.41845809524287286 1.8158673186897758 0.6551029444282589
Ni 0.4300622016651405 5.728101225576472 11.801224317742337 -0.7542151146410881 0.17777404299110672 0.838454224396827
Ni 6.655274927112574 8.022731838517146 12.499391639370629 -1.9015056227858866 -0.17750253449727493 -0.10383554383042763
Ni 6.05076135662544 0.806029756545128 4.104160630614695 0.36132278368246157 1.005711684127326 -1.2149256907952688
Ni 7.071867790068905 2.8741279873297576 11.859790022615533 1.3295331284302199 -0.432198584757417 -0.7463845628530759
Ni 2.9857847448126607 1.479445131183952 3.945470293990214 -0.4223417465679952 -1.5782071408659981 0.4757258186160904
Ni 3.378834577433065 1.3219729184990272 12.769163278102182 0.011269916486864462 -1.1075690211854603 0.7992022208747398
Ni 1.3418238271436331 9.110572680984777 13.050133738811676 0.6776628320066459 -0.17414930175432589 1.9251255761976713
Ni 5.733551938896326 1.0232241092265155 -0.009833381462170379 -0.7981138729065674 2.179046695965002 -1.1652062120829545
Ni 3.827708185151913 6.800667180548091 9.124446219549569 0.37273231107098387 -1.0662717050985702 -0.29790678131966114
Ni 4.734119456728096 4.28345042823666 8.080301315043705 -0.4760418071946125 -0.37199106202958515 0.20877846179242107
Ni 6.503815072194313 3.7114201628043366 0.3810978546465805 -1.157452793389781 -0.9386467721580286 0.5594802754259268
Ni 3.8024157704734654 7.064879459984835 6.407928554194935 1.6215945067126978 1.6966830603174197 0.8465326305295872
Ni 4.6248565936086425 4.5038544408222725 2.360029044764316 0.4463247397461539 0.7422751686703926 -1.2611842075421764
Ni 8.714797491704445 2.5395352136075933 1.5423990285710718 -1.5279101923836589 -1.4655473138757211 0.21100169469598498
Ni 6.027052595141274 2.2030365316806826 9.635718525308937 -0.4599163623876596 -0.6492824810917398 -0.6812474640341106
Ni 0.47444500316349825 1.3336845863079043 3.415184021884846 -0.09995137828467301 0.2621067409019163 0.45569126856271847
Ni 1.134899281281445 6.653065178469389 1.3975205416950949 1.3617631921085194 1.0691608537209072 -1.0099833149194863
Ni 1.2921505191020515 3.279874667362458 7.548735230182493 0.8564609453868927 -0.3796642623041268 -1.1477443078527654
Ni 7.826202318563937 0.4294029599865905 5.691447940686253 0.2939084587935455 0.00900297482955869 -0.5683747497020792
Ni 6.793595984889901 6.370355461431991 9.271911953795275 -1.36975855160917 -1.9115938602598244 -1.0907658335851926
Ni 9.154509849840093 -0.03559812991309863 1.5825704174469606 -0.31747133371515 -0.5625892533685536 0.6385270423474486
Ni 1.5532046994362434 1.9658476366928819 9.21748308252784 -0.13554830155267622 -0.529106805340392 0.424486817935456
P 9.178043672890006 2.571806751084098 12.961988706892253 0.7614990498970112 -0.07502350469474175 -1.2616426352358334
Ni 2.4007077550995364 3.320819468263462 2.9369815252993328 1.0454002609661996 0.7815788513660217 1.5602631547930679
P 4.059612097968098 2.905073675620352 0.7647737493768761 -0.5701344127056632 0.550546977492039 -0.3587676213607757
Ni 1.6898776530171957 8.511031044944808 3.2478950008525738 0.8031092692386298 -0.7228517698384583 -0.4045204021158581
P 1.9936812623109914 7.760250528850897 7.484455483609464 -0.8411929634842288 0.041016294511361615 0.41241008927658007
P 2.6358250107343513 8.465850892477702 1.192400623891507 0.04339867870060913 0.7904805247310257 1.3434620798064862
P 6.435276035111545 2.2566321435639165 2.1237443052630187 -0.14810479806144813 -0.5934959702497392 0.13949545912588232
Ni 2.4672396038314117 5.48783709706024 7.630681917157783 -0.6849385397324527 -0.5958752691151931 -0.6265212761358242
Ni 6.313822725310525 5.1604720428584905 4.699265275524869 0.7044609260360964 -0.3313707174050616 -0.18556628534201589
Ni 2.593977895804048 4.807345002391617 1.2188614431650384 -0.4818566141041765 0.00028719222311563445 -1.8922141701816315
Ni 1.695042940470639 4.143140596680467 5.292079147674943 -0.48690163272725173 1.218778745992772 -0.21746570515377386
Ni 0.9419329810153712 3.6251018564299473 10.780487096468004 -0.40719769183770516 0.06576547643158351 0.2739921794855927
Ni 4.87753214367076 3.093832246178362 3.9762751108048056 0.932922982300374 -1.3235416867334755 -0.3140957323746978
Ni 9.08153290089893 7.1046733501341786 8.695471398362596 0.39463142513692034 0.2661963375902577 -0.7653536477564109
Ni 5.369486642645691 0.36524659104613805 6.405934256044461 -0.6679288925483335 0.439216925056779 0.4246058600118236
Ni 1.7635543556953672 6.597766218673701 5.396583685382739 -0.4341107141784652 -0.7685140477622636 0.4146592903220729
Ni 9.061433395531965 4.905688024299334 7.400245645732112 -0.7171809447059261 0.6053225305710219 0.12127353680121694
Ni 2.8946878569973853 7.108779799696097 13.0978247181746 0.08984514308860655 -1.108170145104569 -0.2566840272244482
Ni 1.1800978483205782 1.9694753073821094 5.549035165004629 -0.5539192363983815 -1.169345945282941 0.18880844642839742
Ni 1.5542267081837162 5.880886929680643 9.79295411074332 -0.4509972055211588 -0.06128404362146219 -1.248024530231767
Ni 1.8457017615057458 2.133632009712667 1.1411850954427032 -0.27209470535256364 -1.4038860894204983 -0.45613041298266604
Ni 4.664586032755895 5.311232144039743 -0.019468806275055494 0.395448521721577 0.22102102660520004 -0.2357079391934134
Ni 0.281023862968369 4.040506979490567 3.0994459284606517 -0.3814138980053818 1.1523008168751963 0.9404578572248383
Ni 4.121521889121313 0.7433787788678448 2.0323113515082594 0.08196599745084593 0.16488047485789023 -0.6248384891167627
Ni 7.060331060694279 5.533670966834289 12.44601424016591 -0.24632839502173706 -0.10515092020774147 0.0881682696068159
Ni 4.101008055883751 4.81509753721479 5.7548244525013805 -0.4974750373677239 0.9222508472985086 -0.5599577292829775
Ni 3.727735473619848 1.310021861253805 10.171407632846892 -0.40337009056149886 -0.4598299733214404 -0.005652056079454781
Ni 7.017268584010225 8.056283188749495 7.588529120331838 -0.1856387904511642 1.0919883931383836 0.03284609999574343
Ni 4.854900634650147 6.758359701317124 11.369419176834885 0.7776612614791704 -2.7521018818618863 -0.21584616727247985
Ni 3.6930884563519193 9.023241573148928 8.349332687979793 0.05672830592997972 0.10719186189717024 -0.29696318645946923
Ni 5.568004936377766 8.38648408704333 9.618468674963081 0.562621906378702 1.207357648640024 0.731916708254204
Ni 3.024851259366957 3.7731918446673522 9.593444192307617 -0.30546711016542233 0.3807456682937636 0.4930789651825572
P 8.644472241135103 4.748989223639524 9.70173568675267 -0.03908873847134558 1.3527679305884446 -0.25485237333234817
Ni 8.070499238353982 2.760832332936493 6.2782374855978444 1.005315991350804 0.4691684771135468 0.9714877299474495
P 7.8290381626560235 8.683059976816711 3.6345163063785146 0.39735653737756726 0.24155282800996464 -0.43349647763323407
Ni 6.552926735789085 9.064959786075047 1.6321341587849845 2.0326815063024797 -0.11795964193663555 2.402652709688559
P 6.843379780363642 1.3571079219256583 7.64650187598578 1.1435652367744111 0.31202805121239163 0.3254296693302783
P 0.31731530151826676 8.017124601335064 11.634380008624504 1.9336852928422243 0.8209833213055732 -0.9027166339203226
P 8.786908955760362 5.267681681196985 4.874060076115156 0.2761346797498922 -0.5053760373823554 -0.3037763527265607
Ni 0.88200367708361 1.1703565397185405 11.281786070017802 -0.7321658481505326 0.9175310732253359 0.0138279070220278
Ni 0.08352297434076066 4.583700025129334 0.5554737237232646 -0.17806457764833203 0.4076489204425109 -0.4188327049734722
Ni 8.04714035373832 -0.028189026858221753 9.494936359980263 -0.4311693721619542 0.8463086874442393 0.7083903429974897
Ni 4.277972093058765 8.6570309792572 4.164100983289671 -1.137000953293332 -0.8000581411171317 0.2530736841653706
Ni 5.795848436062098 3.1878570509458566 6.074133131441521 1.340348473878169 -0.38904184686428483 1.144076629193191
Ni 1.4631850640845205 8.996696967572676 9.430063664187978 -1.5988559274646013 -1.0616316352233974 -1.8055597661161806
Ni 0.8137123159945989 8.638404639652359 5.497126327919025 -0.18947950435349303 1.3218645561413687 -0.11678439068161177
Ni 8.746249580725769 6.736142520167108 2.9584888246977257 -0.39176078845734463 -0.15718619153742605 1.2745467448920116
Ni 2.375562656997301 3.241710466837462 12.565355398555488 -1.1440421764108297 1.5335293383426492 0.5691118849784199
Ni 1.9877517701184466 5.700479367536667 3.285722214709485 0.42162158057251903 -0.02751774580429454 0.8452925874748991
Ni 8.57721301680818 7.245443545991035 13.529157525309571 0.3023712448489179 -0.28618769311052 0.578595398988823
Ni 3.599846270895553 2.650262035203156 5.813134194823408 -1.5078854125222998 -1.555662937016895 2.0758531565939475
Ni 7.873012160655392 7.199269006634496 10.90705137073499 0.09421550424216031 -0.5188457897340161 -0.568538271863137
Ni 8.434619778320696 2.5151266983864193 9.470949538458497 0.4335558701162598 -1.0475628158351573 -0.12798051650774733
Ni 7.636071862389949 2.657977740882275 3.844509640668925 0.10004008134373739 -0.11043016632880981 1.1310889586842714
Ni 0.0749233692043682 0.6467492328871971 7.510922747983204 0.03521717133108128 0.6130180994430668 0.4727471956037407
Ni 5.942281112817115 6.016804885808508 7.051694626413833 0.369669355874944 -0.12359858538996779 -0.6547938978282722
Ni 6.292701211196088 6.95429074767947 3.0324445081420994 -0.5039099943597901 -0.1865566742797432 -0.9163339675934412
Ni 2.927161954766182 0.29164078447026853 6.212475365976679 -0.3381365753739854 0.22084824847276155 -0.8430364444508708
Ni 8.60572798159127 6.893955402434524 6.264061027323216 -0.8062501288604567 0.2664441919350056 -0.5909006987187372
Ni 6.344713169885039 7.75693590588612 5.182992143718343 0.04857919446028408 -0.7034396838604337 0.8338234104930349
Ni 2.8255319317517285 5.295782318109479 11.521695718022523 1.2383641243238672 -0.12438791406048254 0.5354175780497683
Ni 4.5771536447739 3.0089963128521093 11.508624134069485 0.7105009615825892 0.8219374576887264 1.2222988433308886
Ni 3.8550262027532796 6.9010173908067 2.2947116370575906 -0.6565412195366822 -0.2394638066914198 0.334732691898759
Ni 2.534406755298203 7.865719990132884 10.86946722922883 0.4885337690140361 -0.817918052116688 1.2908531953615188
P 6.670641887468719 6.5527241754967935 0.9703457449237152 -0.19847399454261946 -0.8563069363075317 -0.8767312656001546
Ni 4.444043910880082 8.80735833799583 11.833741689755396 0.37607320251875875 1.624734595003576 -0.4634498294622147
P 6.343405735271155 0.8530449211146791 11.289615946043483 -0.2321053094438196 -0.8845803293309282 -0.089814032740355
Ni 8.016065763443539 0.46232453185563205 12.95649103641373 1.7502039150536954 2.2634547271984373 -0.14970556688966474
P 4.3514922718747115 6.5027838561608275 4.411692270015262 0.5029825974495145 -0.46108210056098653 -0.8590832135010882
P 3.3799118298966166 2.2191861113479545 8.068092453790111 0.6127432485151253 -0.2286060380413095 -0.7689989578184822
P 4.875598613607974 4.76740379566606 10.335664694594994 0.32060088048306723 0.7945840053764379 -0.6861639274991215
Ni 4.943097227371243 7.938319440347503 0.5156107789288201 -1.2022655788290972 -0.6426467209427771 0.21541139372790646
