# total energy = -381172.10854097165 ev
CRYSTAL
PRIMVEC
9.18878429754109 0.00000000000000 0.00000000000000
0.00000000000000 9.18878429754109 0.00000000000000
0.00000000000000 0.00000000000000 13.44871463599850
PRIMCOORD
 96 1
Ni 2.769545559228442 7.788119608314834 0.4351422358411781 0.6373214520751217 0.34287846093434493 0.02643479715276093
Ni 7.127151969535052 6.264619156364549 0.6156476352872372 0.048109711023033276 -1.2029782886254057 0.25746589969579525
Ni 1.9000476474899157 6.3005473033315305 2.238726943677723 0.4282054044376238 -0.7124933094222696 -0.2878401411122785
Ni 1.1899108234363942 5.133378721261704 6.789637811207964 1.2670980019234501 -1.0154571935498642 0.7524078862290202
Ni 4.503303775602892 6.269020584087614 5.859416736703043 -0.02843537252255748 0.1634861656135249 -1.8140030117875274
Ni 3.396974134982781 9.002950415018352 7.222201674149158 -1.0502249360483527 -0.10834217345152954 0.9611392968335898
Ni 3.710366815406282 4.5357769396390335 9.762812345801242 0.9565149106877011 0.32282642737947626 -2.521422763341632
Ni 4.03924259752783 7.110814310888685 2.6885997197753637 0.6223710014128765 0.5319103362274582 -0.8751392385226864
Ni 5.473584274536779 3.2601071914858 2.2430842652357135 -0.47073839270382795 0.6069868056473223 -0.5862387744666936
Ni 1.9902263774986018 1.8683095862050167 1.7554069923985443 -1.2836813602034278 0.03852309577586269 -1.2895514458309596
Ni 6.242768227083863 7.591479622357439 5.160311967188794 0.39326771202017435 -0.21051395642628903 -0.5668945656121269
Ni 2.496078146981805 2.434678689684267 3.779922237728857 -1.7258154589070018 -1.149627383808091 2.624778025101531
Ni 8.971377751852483 7.486212908379499 9.831400189127491 -0.1862298870679438 -0.2498289519758278 0.5897665851142939
Ni 6.00320742923829 8.016764130304454 9.819014626647492 1.8151052437127706 -0.9156531394763326 0.5694209315784063
Ni 4.396759820594668 2.3240181592690847 10.864691858141017 0.3771378963378473 0.5554133044454047 -0.7833171742133671
Ni 0.36159612445779515 7.897365065933875 4.403014626129304 1.7719523624743807 2.413336157544334 -0.13242672520455903
Ni 0.44550075248462534 6.823361568799657 13.391154558466996 0.1688446017119608 1.050757668623371 0.27703456585634223
Ni 4.819829831503564 4.409477098191165 11.97756023773343 1.18493171553634 0.6341453683399854 -0.43535229989505025
Ni 1.8958759393766142 0.493106006655096 5.113711966030648 -0.19078793875227143 -1.7139102228289838 -0.10874043733121272
Ni 4.007623990440008 -0.026221115136823486 9.893183737612555 -0.25037505428728496 0.8363140381253725 -0.9410306990091728
Ni 1.2567867962306896 3.95123242063531 8.996369407637854 -1.2351034512947245 0.7705120520288988 -0.5348923016739175
Ni 0.19575878153434303 3.927451846632612 4.897632187816642 2.319353595248586 1.3479725660823303 0.22258528576852635
Ni 1.5445703345577764 7.656481083136066 11.40319229744222 1.3040162151060382 1.6264297233178115 0.22153704700967006
Ni 8.97688183370241 3.4136425898672074 11.300148350408351 1.5674730422779455 0.35704523935303023 -0.22163577737106344
P 3.7388979909388853 8.534974814792923 11.934295765309047 -0.07649263304110053 -0.48250144677702705 0.984005402798486
Ni 5.809195435616587 3.4277657514754556 8.680594075421887 0.1755567236248138 -1.786381650525833 1.47155906728744
P 3.5947351526358213 5.338389689798875 7.517401480357844 -2.3125687111162687 -0.5440515995756824 0.9521036689938828
Ni 2.829254280198122 4.476830887773768 5.099725717309818 -0.919882604176648 1.0540754201426943 0.2615657807967818
P 7.699466216514977 2.8509122450066076 5.1576894881237365 -0.09609035266737 -1.9005260324814366 2.031623754461927
P 6.4227397581568315 7.251476222338956 2.980437349775553 0.21456678633942403 -0.5738234315214762 -0.639313542804486
P 9.018065965340778 1.322817400861056 1.532332711506465 0.024097407268835917 -0.5719138732035892 0.20492874902902772
Ni 8.24914848754102 6.373101944879175 5.076028761245073 -1.5620899235891612 -2.595083840471208 -0.05820000537949977
Ni 6.728992753108888 3.1672361476506885 11.17775098569114 0.7295361238371695 1.8397220138201864 -1.7729800324079465
Ni 0.154135426002109 0.8058389323593566 10.859918284650135 -1.2087072206893827 0.2787078397937071 -0.36624721756727247
Ni 5.666502802816009 2.151131180961216 12.755231870422048 -0.03794716866773465 -0.6723509328754291 1.8811031478701346
Ni 9.003584441141298 6.9209188926739404 7.230580007756446 -0.37877286083810896 0.4708733756197955 0.9283664732779432
Ni 6.039742035975046 9.046192834360198 12.333681684451346 0.7725056854201598 0.45706295209926445 -0.8719844949437887
Ni 7.329654399933606 2.1690584993071447 3.2696111511809276 -1.4532432996973874 -0.49977231804233285 -1.9404151553668905
Ni 8.17562902363237 1.461751820845907 12.719579386986783 -1.5539639520479172 -0.503959616650803 0.20213884498871637
Ni 4.824506922758346 5.698130598688221 0.9923979029618984 -0.5426259228727494 -2.1182015396531715 -0.6537173769346419
Ni 0.9987473529757565 8.70904714628717 2.2217947706812886 1.3066734502232271 0.1194331411583685 -0.13616948007644292
Ni 2.3168692850132504 7.06240779471936 5.916816316155382 -0.39588560925899563 1.1008656410233555 0.9392517527318792
Ni 5.752004441569913 5.251353524051751 7.429446436171667 2.270236011786329 0.8740922853154107 0.678293009391477
Ni 0.1722860318087278 1.7558664316180708 3.9799859647501643 1.255696702065044 -1.2737183354534451 0.02206160778572975
Ni 6.200986824460111 1.0229046671384663 1.322470983689533 0.1157646911678458 -1.0015639805075396 0.29667573712603745
Ni 1.127454655933945 5.491327817194898 10.963876515730863 -1.2854160835063475 0.8751310109925702 -0.35315541738032086
Ni 4.044847756006055 8.3252591886478 4.7310698498047765 0.30712572881476785 -0.2539874542288916 1.239707268615323
Ni 3.7818739355334063 6.746056325722107 10.399366303333816 -1.0685286194535468 0.7441510455368667 0.029295149419691486
Ni 2.4404676238503025 1.2433252270985595 11.341234162053738 0.2606394123277705 -1.4397722617941462 1.3490976808257087
Ni 2.0751858779734653 2.2494052300179606 6.496885897160917 1.1104954508036358 1.5198731810117954 0.21275081617660777
Ni 1.8959402608673477 6.88967702574613 8.694123641558507 0.5002711120556222 -0.347761242947943 -0.20685810484125666
Ni 8.873021003736223 4.747082225483719 13.212985866891447 0.542207347278092 -1.6068901106229874 0.9887028082741554
Ni 5.874693090752303 9.016016866421689 7.193475696387476 -0.3982371402103077 0.35773532344151937 0.6402656223051102
Ni 1.6370830158016574 0.15415564132776816 9.355288839202686 0.059300437532530136 -1.0912250326097979 -1.9190567442957724
Ni 2.337727825579759 3.6987613807210398 11.142973274529853 -0.33301699475923296 -1.5766961035381104 2.376265220833966
Ni 7.981479198244809 8.80858924758981 2.9135567825890627 -1.587356411465434 1.1736566568431528 3.260707739035449
P 1.0293276274274485 8.80892923261226 7.266004609338827 0.1849379077293976 0.4414105902739881 -0.29618568486349633
Ni 8.190514854345032 0.043419762880583135 8.397646594319538 -0.16907574388616042 0.32597577164173536 1.293824619285017
P 1.8369298875113482 4.113634995953581 0.6497132156582582 -0.5384411953674404 0.750799918311952 -0.4250552888444164
Ni 3.1014076962769135 5.78852985952228 12.560669468615352 -1.8309560947020984 -0.1441003048877454 0.6302339491007211
P 3.051163423229482 8.935927421673808 3.0307891316003546 -2.1731285307083543 0.7020762278540038 -1.37736875985626
P 8.368180000535979 8.360902483298677 12.008438228799376 0.27674763074354275 -0.42984165448946615 0.11202013652374902
P 1.232565160577246 5.974887595746669 4.468012411394174 -0.18917251463603552 -1.4488960784722853 -1.3231601350243407
Ni 5.3457039621737374 6.78096451762174 12.076394802637996 0.6299272164935796 -0.8063262335140308 -0.4656252398469788
Ni 7.717898918002384 6.172575103124585 11.66737903745442 0.03265301014833086 0.34870072404307684 -0.49861660717133477
Ni 2.6986908427930465 2.2793055344247537 9.259050105888443 1.0534177319540374 -0.9613282729159445 -1.778941906418336
Ni 8.03188886941127 4.606163028070513 6.7976936184831445 -0.1496312620083036 -0.6724373219416483 0.7266433756704067
Ni 7.860683438646869 8.431169117533077 0.8510936954827291 0.30499556984564247 0.240045904447135 -3.2501818998034606
Ni 5.337636209478851 5.419315313926295 3.4617660914773043 -0.5355052526675681 -0.30614279607620826 0.512457369709169
Ni 0.9285266626633072 0.128423369520521 13.321611081564129 0.3072928505202514 -0.5227515525463255 -0.36325342504627117
Ni 7.129743206733181 2.028947914920306 7.214253375651348 -1.3971333440776972 0.0026073557158600258 -0.8326802980275273
Ni 8.079302996866417 4.82476420872128 9.391788528558758 0.925482981082561 -0.5295603479380429 0.12294192564257538
Ni 3.57797480990749 2.94689828675011 13.22406754086643 -1.7213489384952159 0.14150451913611112 0.9863502488815789
Ni 2.9926768105837427 4.1583751871510835 2.42819232678299 1.2621805100171746 0.9634494330240052 -0.43600715987022975
Ni 4.52898642797443 1.2233028659115892 3.172618937546662 1.018990146403787 0.5723270494816078 0.2507067265950908
Ni 1.1692084922045245 2.427630892056729 12.883989711694383 -0.20277493591081852 0.6572868394534551 0.599566087703219
Ni 0.15436882112562852 2.016184693401856 7.546114593821381 0.29817520448969936 0.16644087736647464 0.9591744597977352
Ni 4.485027283450123 3.3711628396297755 6.547493127191774 -1.2773101665697615 -0.3570238991967916 1.4372191563549894
Ni 0.351188907257078 3.9563138184032747 2.546393173669044 2.094654605571167 -0.4183153990174215 -1.5377253787018677
Ni 6.28415451197882 0.7524943634585594 4.839573772523501 0.8167517997227288 0.21514297055786819 0.4085462354457996
Ni 8.902085128763478 6.5486444818759075 2.4102916559117937 -1.7262209218755367 0.0567856415304764 -0.0071795484675747315
Ni 6.1603723974539575 4.17349073747351 5.31623644951174 0.05732685874592708 1.210792385353186 -1.0323215734053706
Ni 3.8576078964801748 0.9014905023510436 0.9423061637353498 0.6334205743588188 -1.296112129767613 -1.1258850458858287
Ni 5.388468564727276 7.839273571016928 0.5620568069647737 -0.8707776191198809 1.5819025874397141 3.2768190427750143
Ni 4.601816733053791 7.163521178152779 8.209418021593235 -0.8535715396542397 0.23384491784274564 -0.19926152344092132
Ni 7.629319036477651 2.876236534786915 1.0202279742455043 0.7074596036531041 0.9329695192675932 1.1744598694707387
Ni 4.126673881003747 1.2233396210491514 5.611288316291738 0.5876878482083944 1.5526943413068743 -0.07768871023173073
Ni 8.009312026163732 8.8201487383531 6.166235760773556 0.715339006401181 0.6515995592606907 -1.2673098608239401
P 6.53436511093302 4.174933376622823 13.32143649466071 -0.6775376192826912 1.7635266003045305 -0.5334406568290554
Ni 6.296357217649447 1.0312480833650697 10.33111476951626 0.8938368149321896 0.7102489934727833 -1.330297003179438
P 4.604150684288986 1.6172628078712787 8.113112210152943 -0.0964438793520468 -0.19574785386070806 -0.1582161754638372
Ni 7.562452252467747 4.654514411533494 3.1099073218381563 -1.5851861432869927 0.3114665222819668 0.46927466367410803
P 7.342261412117417 6.698063304850356 8.650105688814099 -0.9221073797421085 0.26047357617386757 -0.7851894515354154
P 4.316560110434101 3.2764907940541192 4.222277669316603 2.6201544102865904 -0.06364225944099362 -0.308147742321379
P 8.351364525101303 2.5743482124203614 9.515181038625464 -0.6954373823812474 -1.1312229131589744 -1.5344654770036732
Ni 5.928585311202776 5.559425898313133 9.941088546154155 -0.6838296229389901 0.1444440613804093 0.5475105046585603
