# total energy = -340873.76331447763 ev
CRYSTAL
PRIMVEC
9.20914806467272 0.00000000000000 0.00000000000000

0.00000000000000 9.20914806467272 0.00000000000000

0.00000000000000 0.00000000000000 13.47851906760005

PRIMCOORD
 96 1
Ni 3.9107476603102826 8.01038415910185 2.542358489245883 0.134412131065704 -0.0566732843223282 0.9665396419135547
Ni 6.686725662615546 0.8459799799817819 9.278558458671093 -0.3996607600307117 -0.5818786977257849 -1.5481074932671404
Ni 3.6641542992838394 3.7762204235819605 13.228021377963156 -1.0095539406915517 0.17535026404096252 1.0011274071907532
Ni 2.8872245124146643 7.342407804443298 4.731809527125341 0.4873333209480316 0.21674399649640091 0.8282099209609995
Ni 6.070108727400713 5.224018237640677 5.09221138328705 0.040415427702569104 -0.3290394981687236 -0.7235945615417538
Ni 0.48862543095543765 3.071950815915035 7.3126631767113155 -0.002237116860634857 -0.476272949368812 -0.18503818075268777
Ni 0.5194024041992803 5.3462512615382 1.85518382336009 0.22364689426382126 -0.6152588158481276 -1.8452532280510607
Ni 0.6671291130252686 0.03814889636822803 12.745637907649453 -0.4422893933345157 0.4502294741171988 -0.608751610857229
Ni 4.1215726897750615 5.476496244359166 3.0146192638714857 -0.21436315496905017 0.03234782020308623 0.8421609838244528
Ni 0.4568722880036814 7.846194256060418 4.938313624260374 0.5425647306175108 -0.5366249680943082 2.1850427656474367
Ni 6.366624880753569 8.08783309536179 7.761362345698268 -0.25328271485238313 0.06923518014773881 -0.2171175777857358
Ni 7.811079774020091 3.3389332310294098 5.527810538976764 0.7575930299743856 -0.835835041606425 0.11796067037790009
Ni 7.175547248427384 7.633877344589206 5.313474982222773 0.36005163027952186 0.708001077978871 0.2719967463221187
Ni 0.25107361161983943 1.7938039297731556 1.0021698959924175 1.255121032067232 0.15799377504038598 0.19347525577644745
Ni 0.92485633421084 7.478334831696176 10.336730105708732 -1.1257346363508935 -1.2944254860938094 0.9031979444321155
Ni 3.6289845623543853 9.000349171000892 6.741497071462868 0.5970762314018297 -2.1085563032539234 -0.7948547425393214
Ni 8.942994596086873 5.343074105413388 12.373321255562285 1.495126570194735 -0.8439720688912625 0.7269670775584125
Ni 3.7522490108489492 5.074047259401306 6.156192161001594 1.306353862100279 -0.3896005475812322 -0.5563949516323837
Ni 4.4322433038926645 6.811214927819096 7.700480667028296 -0.213365052721839 -0.3702391123354849 0.6210008605382272
Ni 3.8137108658547563 2.04397044029649 6.595282504769328 -0.7349575519630569 0.16118914204923207 -1.697710987361302
Ni 0.6011409616851267 8.705085461801586 8.472165844004483 -1.0866422983351223 -0.41368612777552627 -1.245225627330391
Ni 5.6588650059234435 3.1828842149860486 6.432636975878999 0.6689172246035319 2.078298018590014 1.1473236753755789
Ni 1.8364975407720945 2.6437714709202824 12.309109548907584 -1.2810518930003807 0.45480372375144257 0.6445758196446899
Ni 8.489462466130929 5.665900795138971 5.687463094706038 1.2276253977501246 -0.2801180898776724 -0.7268884018016772
P 8.426379801044058 4.704198659028487 3.6490126178333524 -0.5029165200982693 1.0831746515014957 -0.13670221265146132
P 3.738030086046887 3.5075343160528307 4.514805159226507 -0.2839089243786723 -0.39061767599183694 0.5313012418885495
P 5.361262173084419 3.6591905684105805 11.474815977976201 0.09124356609802994 -0.22134807092731554 0.6724877155636095
P 8.750274751959436 -0.16049427187364337 10.721838264628843 0.15814521301658568 1.7465172102307278 0.137233402564583
P 4.948425268970649 6.991364284670098 5.522634997695185 -0.09210874231180266 0.05729163463261746 0.3255255714781943
P 4.6390439355993465 3.243277808802063 1.77075435277375 0.6342728950567851 0.05754334563210735 0.2845452724110906
P 8.738634388649976 8.264252747196707 1.041338245065042 0.7361004073182484 -0.19144562694092834 -1.1223263820002927
P 4.942881361761554 4.5632066002722835 8.2805418885114 -0.3442187770123233 0.14375526284350082 -0.6066793017092326
Ni 1.399569504998871 3.023768552596129 5.084515298146451 0.8698967591768244 0.7860584844039301 -0.637551822918373
Ni 3.3906886438452077 3.456948465056892 10.658826509983019 -1.8356905240632901 0.8508844797403797 0.4834105888548578
Ni 6.831226406831325 5.414187147720076 11.707401303694084 -0.8811383935289148 0.02866882868960224 0.6705663301711806
Ni -0.14103349992304842 5.192854480172945 7.94438771952834 0.7699096425582096 1.1999690694854366 0.8030984706053523
Ni 1.7790416652280088 0.9093573378106642 10.63890528062303 0.19999094540777815 -0.1987295621968513 -0.051996447671949164
Ni 7.194103682025931 1.3748153146698916 1.407493977014528 -1.0758318379831793 1.3871947448077464 -1.5399941201313867
Ni 0.19640074065812643 0.9483304529417061 4.748374942885672 -0.7630170292034343 0.46398333336818154 -0.5068487652731399
Ni 5.758526407612511 2.7772396556070005 3.9955454968241377 -0.4341911897074135 -0.24555115053608034 0.06009079464430942
Ni 5.355985331172773 2.159849151944387 13.415061940403138 0.7146355525762531 0.01632779062574607 -0.5739478729144825
Ni 2.1416518751251674 1.2710926786299757 8.052754528999396 0.2861694382780749 0.0010109577630176138 0.498165121456213
Ni 7.53420673375195 7.488335966628197 9.862030748642981 -0.28052766661126527 0.3285828702472793 -0.42919810736819636
Ni 8.979674633319137 1.5702426483645606 9.375779436090376 -1.9716432601432368 -0.24925328197801588 0.028605579551834605
Ni 5.649655857735579 5.939817698838809 9.80094554779806 -0.3701601794684335 0.29969498356833546 -1.4362022850547007
Ni 1.942080424745959 6.920011804510525 7.756241138390997 -0.04836502156694896 -1.3668804587304266 -0.8168818975426899
Ni 8.61403461366817 7.015390952292237 3.141263469750996 0.5605933059844475 -1.8871449831888403 -0.2425876970323822
Ni 6.145789507208582 6.930224749850867 3.2555075575955468 -0.5060195845036253 0.6749441475239021 -0.738835032640592
Ni 6.7719747473906065 5.3915694797706815 7.445021659041396 -0.663372897746535 0.2500284695811436 0.29932885847816837
Ni 2.8733923718364918 8.428958362536662 9.311864264007323 1.4715328420351947 0.013797310894408494 0.21615881341689225
Ni 1.4023138311588543 8.856345720787257 3.006356816117334 -0.5193327566727637 -1.417100274117927 -0.17632008415339956
Ni 6.33233922205015 4.657305676455882 2.637207190091973 1.3021516510934736 -0.9695205789187495 0.3979944280718823
Ni 5.687229182342065 4.951252477464323 0.45076754366994615 -1.136834860029113 -0.8028871259254946 -1.094250192589367
Ni 1.3609831740917193 5.403541372414905 3.993443048292848 -0.6379953382136948 -1.5447349772504817 3.6599049291661805
Ni 7.6335550244026305 8.925386704751677 2.720720350433621 -0.9526693116893657 0.2561860045421072 1.8701232518198632
Ni 8.566312807758658 0.7731089112860301 6.93324258771203 -0.7688498338351275 0.07467254911322624 0.11426162425975805
P 7.073473049913097 1.0573667674860199 4.4192289356735746 0.22981085698268808 -0.008822997608268676 0.35209355177470975
P 1.3899091085498012 2.8045263616876426 9.357178798580529 1.4157507020685682 2.1345293302789172 1.4739131693419132
P 5.684273045773761 7.501707649796977 11.306671666702899 0.3198231217767782 0.7802431632737337 0.8488826188190026
P 8.245797614228227 7.269756834389238 7.2680485374003885 1.2507193034551105 0.3685979771876362 0.09106204621484318
P 4.641088366497052 0.2076837890178978 8.541674652696846 0.9994291935527239 0.7857226983310662 1.121140589222308
P 2.760635561424281 6.452334422938023 10.26542919677901 2.232960672374638 0.2060543779930387 0.2463952437039305
P 2.12409002953091 6.717696027971333 2.7366788833283704 0.922869968939746 1.582959825059635 -2.5692799920342266
P 2.919686759776886 0.8593516631505609 12.65968616486766 0.580368945949478 -1.4843171382840565 0.40478342596925765
Ni 5.055988119804904 0.8225445396733047 2.507813132563566 1.7107002005321184 1.861129275851369 2.506564872393193
Ni 4.734358619343742 9.109256557470575 0.6268860563591201 -0.5882738026188514 -1.544755803186088 -2.9335605727934317
Ni 7.508605301789687 6.268575079997378 0.9822901077992746 0.4341497949465168 1.461396010711509 -0.13039863903093674
Ni 1.3277749857262806 5.009601640382632 10.124969426788066 -0.9915569898934987 -1.8347808677648272 0.060054027869103015
Ni 6.635596471876522 -0.06346944931076103 12.66782705186573 -0.014740134423652034 0.39159083853838367 0.08442834294840944
Ni 6.871249364855784 3.752295056589889 9.56531383585963 0.04284537730030041 0.3624355571306661 0.4280848196993595
Ni 5.269308828428594 8.945904686914238 4.7683633990274314 -1.138438199960491 0.33392279440295397 -1.5512457817858059
Ni 3.054738917951916 3.612141030318782 8.03140496075547 -2.902654370132878 1.8711213540670744 -0.02422082022057764
Ni 6.705475488326037 1.8975910298503864 11.207591362264486 -0.17592979069351639 1.2333396745260825 0.5295402933333848
Ni 8.917641811125682 3.2753072261994554 11.22373776178227 -0.06428760633447637 -0.22878061594596083 -0.4558972139259374
Ni 4.624125115535006 2.531650091733034 9.144325914684782 2.8138818912831605 -2.760525587149207 -0.6814079008713748
Ni 1.6490177019635524 6.796038251605496 12.579906393201373 -0.7277620626558822 -0.981336340606755 0.30596461862713115
Ni 3.5749544899361854 7.751146637613469 11.803556782668032 -0.14184107653992345 2.3788700054466645 0.6275072941981774
Ni 3.095351261460398 1.531324788122646 1.4946060724679933 -0.9588731265072324 0.2523653452444363 -0.8138248558839211
Ni 3.3487501829976734 6.3883032155878015 0.7853276091016885 -0.6568842046983977 -1.189900629505841 -0.4519053191577249
Ni 4.76476722666007 0.5694688592374235 11.176442339433853 -0.9468958995406984 -0.026964958624618077 -0.6205894840324215
Ni 2.1723183385907556 8.516463688617748 0.8601721982540996 0.14205087855788437 -0.22209163396155943 -0.8207436944909413
Ni 2.6086293614353924 3.6907687375467675 2.5339348813984435 -0.7752624222296907 -0.39338495432432896 0.1504100491558571
Ni 8.247197404752782 2.66853487039745 3.1938163947998626 0.38385001825070025 -0.9916783459627114 -0.5596715655011264
Ni 8.274428855944297 7.545985234284228 12.2722324359041 -0.24604325968115046 -0.4104174843265835 0.5851565971461083
Ni 4.249902169772951 5.5772535346825896 11.869669257508711 0.24556426316220287 -0.028551072164815342 -0.6319920694424084
Ni 6.139251011995198 0.944536283888306 6.524695304824167 0.5978521903359059 0.3094808593105057 0.5892083986179788
Ni 7.929002916565693 3.9449596458281984 0.780220215516699 0.2198159505535053 -1.1493803007942915 -0.09581730151164143
Ni 2.9285643786299875 0.8592669389872325 4.400507658322465 0.323405696921714 0.5008017877481117 0.34847703806804503
P 5.362017323235825 6.997276557806707 1.0672546298953298 0.7697579474716937 0.6813685629930072 0.8272848380435688
P 1.6917021038143036 5.2294884716642684 6.265354640876081 -2.286978778462306 -0.44609051224816076 0.5636626889383906
P 1.5023528079236248 4.564311698054827 13.454796652089318 0.3804607900634931 0.4652071784729537 -0.03634074341256322
P 1.3079016439368694 1.7280506117118042 3.019579311085469 -0.010016503695737589 2.2394385667894983 -0.6036852520779152
P 7.890324494176664 2.16358806610866 12.904523341334677 0.49448561572209665 0.12529731324862936 1.2908971612255769
P 8.314857016489022 5.471679859856913 10.065772101321656 0.8858440265347003 -0.7323381120623388 0.44067834009365403
P 7.478951844624763 2.6443884838488696 7.833418404779393 0.4983039610269225 -0.9780784957910897 -1.3070040940897685
P 1.6262618967913396 0.2211779538575754 6.254895811279124 -1.327211936496211 -0.5207604902582257 -0.8317243618721611
