# total energy = -340864.40413709555 ev
CRYSTAL
PRIMVEC
9.34172635344312 0.00000000000000 0.00000000000000

0.00000000000000 9.34172635344312 0.00000000000000

0.00000000000000 0.00000000000000 13.67256079443591

PRIMCOORD
 96 1
Ni 6.300517845935029 0.2619036995782481 3.297123936130975 0.5745507966058041 1.373567640942615 0.5770069714557805
Ni 9.175275252771016 2.5516644669405917 6.896221037725046 0.13219146926530137 0.008776460641049401 -1.2571154367894415
Ni 0.274552396756828 0.2931228141285407 8.410279431727187 1.0490208884379222 -0.05048849566785499 -0.598004399643054
Ni 7.982533002354544 0.6936960305373338 9.81084145829843 -0.9776190396561679 1.5311904057968275 -0.8494405482050016
Ni 5.679956320915912 4.166811547729181 2.194910485284801 0.853812194910136 0.9295414674226506 1.1949798438009613
Ni -0.3432607924351552 7.307191595315344 1.6108330716622459 -0.8010094492868076 1.0156006611062638 -0.3730812097699704
Ni 3.7395303363177583 7.851468584765566 10.298035830237785 1.8163105768747814 -1.4957395211883853 0.22503194753680603
Ni 4.0688448658150245 3.396175192448701 11.716249048329653 1.5902743564431772 -0.3556529869911939 -0.4973557381810402
Ni 2.6186166181066795 8.947159642428518 8.412179538821814 0.2949009046138018 1.2141870128570313 0.5400121393989861
Ni 8.339480357741204 7.238445832732501 5.280630224945332 0.12451415522570171 0.22217802302777867 -0.020043548914436448
Ni 2.119348065145673 2.3685666348134387 10.806231336687603 -0.8318927691292253 -1.315467137255457 -0.213073232513033
Ni 1.292652011365446 3.5726497407504385 4.181876015284703 1.930111716558353 -2.0276238892739147 0.004412527245398852
Ni 6.499963698787821 7.65092040822956 1.7973808032488154 2.1186946772395063 1.3241039869948485 -1.2470984188730714
Ni 6.654933593540747 9.039437213130151 11.891873499553657 -0.42202704354105386 -0.6263502977755988 -0.21427162369650843
Ni 7.23740890113219 2.269805906178323 5.30277945759704 1.2740770043444445 0.4025208551873261 -0.4436227674339586
Ni 0.6069739843645784 8.619143612863173 13.44745586619892 -1.0668548312955497 0.4003377314930783 0.7908502493656187
Ni 2.60411825915457 8.36833694975349 12.535591295301181 1.220518097281382 -0.08474947373325403 -0.6918324386388085
Ni 8.412934350293032 8.03544453914884 10.35628055847909 0.08334282319371453 -2.9458548167797525 -0.010054041801892361
Ni 4.925481151838492 0.296633434807795 1.52142808174526 -0.9556188812359928 2.3310091772096437 -0.024004847555029626
Ni 7.326678436020306 4.165914742020803 12.853492103814112 -0.7543310713936621 -0.9682406837650616 -0.3621941305438214
Ni 4.103810946715633 4.908862221055115 6.92765407780369 0.5226970451593063 -0.30126772737209406 0.5867995320661701
Ni 1.2538558227519732 8.630064090707899 6.484116394582694 -1.3480057333131108 -1.0154155416786514 -1.1501110083127288
Ni 6.647516262994371 1.936782711407869 11.12852088813591 -2.2203766650620405 1.0554656156220015 3.083469256832838
Ni 8.978174173176587 4.474976409270535 5.051409488401781 -1.9508008694765888 1.3028872437079173 1.2985780748096023
P 7.472670931963324 4.9507131541127505 6.472179536935139 -1.0531295112896573 -0.3997517770826212 0.7205053810934688
P 1.723763330489732 3.494253975076404 2.132345208708862 0.16326710762418334 -0.09156006889718425 -1.1079531439977564
P 6.365424159078879 1.755936235277789 9.173945925142867 -2.92069322991246 0.4359454533943589 -3.832197637327742
P 1.7748065220582405 6.372010075999779 12.168660437200526 -0.8991173466048386 0.5621945890332962 0.17279433038832823
P 5.680217889247523 2.3843261267929545 12.969230485515958 0.67975056777361 0.9224840463552371 1.254069450874266
P 5.925540959119521 2.6924816466081793 3.796624163899979 0.27931950523577703 -1.1137658940247914 -1.9689929670045832
P 5.275169986022969 7.102392933390672 7.708083364585135 -0.16632826304801032 0.8276404216107746 0.38075518137546044
P 7.657216731640463 5.046335062768543 10.806764749249567 0.3621226538759377 -0.06716492788227142 -0.3294776141474068
Ni 5.407598295626771 6.31982719384354 5.687224183844225 1.357560209770765 -0.35639089359848297 0.2881468737194198
Ni 4.624724279117385 0.8801531473804528 10.165808367745756 -0.8980089440320083 0.7078771508064969 0.5711638824114421
Ni 1.6547746830275367 1.333008268242451 2.6362201668240473 -0.039309339122583914 2.843142587920491 0.018416297723658607
Ni 4.804944859596826 4.2063083658023235 4.737979630014158 2.4954340525873535 -1.071936102473199 1.9660439116785882
Ni 3.7071799387332516 0.33552210650994435 3.7515587428813766 -0.14268414126650908 -0.7893078445791633 -0.7616952250682172
Ni 5.376677182139993 4.0768320416552655 9.277297177997744 -0.488945402630158 0.39563312692855734 1.2612723963806085
Ni 4.538658956291494 1.7679310116273435 5.468190599644278 0.33582489652167324 0.25276592311696466 0.9812260402811359
Ni 7.163786757510041 1.0448160171647631 7.187514741877541 -1.381593082350253 0.3579793211315254 1.372852102932829
Ni 1.3686562951504726 7.2837532044578435 10.160694706862774 -0.2142016896905214 0.09417590925347652 -0.3433556576810797
Ni 2.4573036913122053 7.290077553047134 2.714276827839601 -0.18797000968750208 -0.11725515967044324 -0.9107611014913539
Ni 0.059624501190549496 5.134072554571514 9.276681558245846 1.0571933969463858 -1.2137902916392451 1.7669286840075442
Ni 4.229821490468857 5.7833131788064644 12.41091101334872 -2.692996076838665 -1.374553144784336 -0.21159253420244847
Ni 3.139511267056173 5.1060100092801886 4.003571422834307 -2.813179980120129 1.8210766308048572 -1.7574562257407347
Ni 2.6145062586099472 4.146026207092297 13.380049707142968 -1.2741950179795476 0.7343096339664128 1.2582279531273297
Ni 0.4123288445694466 0.43949271580716787 10.946197485104843 2.5979567911436288 -0.03836420160049522 1.7949801908281218
Ni 5.8790004795451605 5.670119483302143 0.3266362566161 -0.22294986819679666 0.7751400377192134 0.4729659964827661
Ni 0.755473799600603 8.944749477087251 3.5591313288692548 -0.8564858850875573 -2.4852643111432036 1.461769592000844
Ni 4.294587677720773 0.8607410404845229 12.674189815013145 -0.16732867928806666 -0.7856895311002855 -0.26220110038793554
Ni 1.6076176495286658 5.4558109441782126 6.027425560972153 -0.04501024616210313 -0.619408833460759 0.11939123217683954
Ni 2.2059645498131712 1.6157262678085826 0.16104201673673468 0.07173249264829581 -0.33465144503886235 -0.1276267327127544
Ni 4.282770394167668 3.1070020601274746 0.8265363102634222 0.015249469959902768 -1.1326347059048363 -0.899497869872709
Ni 6.05229884096306 3.105161740080074 7.370849853848369 -0.774835361994601 0.3745644791837162 -2.3201858613418946
Ni 7.70625145209125 3.4955244498299396 8.930013838291467 1.0360033931323318 0.2285859834366515 -0.09129241705809438
Ni 9.118328090289019 3.0323336431788857 0.8145275213246745 0.8161391058393945 -0.3747313437788836 0.740150409017906
P 7.679907784407649 8.760773522703978 0.06757337595366149 0.6762806069471385 -1.4120488277369487 1.8237248670609818
P 1.016660054612149 6.675765642808275 4.290312903844171 -0.19512179024093493 -0.4080860079799295 -0.40817368259772924
P 0.9392918788122976 2.906098897998568 12.624996285218167 -0.8480706644406685 -0.07877474420705788 -0.8825650986731123
P 2.5532245352041243 0.24362567823437117 10.530155304399146 -0.5517065450177788 0.02411309099811976 0.2733460612611615
P 2.435173142112755 9.13922553163945 1.4726988357388888 0.7104937624937377 -1.202920953024909 -0.8748435616591386
P 9.215211131972218 1.3786706255606924 4.541122369471695 0.023508110424269195 0.8272997504419042 -0.5314207981855493
P 7.698012049645528 5.155315639788715 1.3080294267462882 0.6056770856969633 -0.5854427609279595 0.13726374158188617
P 8.478793519502034 9.068732866270496 6.624697228579219 0.9735271289749814 -1.9175397934306138 -1.1338390106255827
Ni 8.36736541023608 0.48903188946891757 1.9699421024751416 0.32268655936750235 -0.12211531597622195 -0.5588776088449213
Ni 4.996898648094211 6.395607276201472 2.8547483636404176 -1.7554636207907381 -1.1530940022004528 0.5474961064808571
Ni 4.885993675491478 0.3909512384959885 7.826747574910562 -0.46360949496853054 -0.4334481408938019 -1.0089512741105462
Ni 7.987073081253207 6.789613259141624 12.33118685421915 -0.3510579114213438 -0.274116877988915 0.47670463758959186
Ni 8.617518152516737 2.8101220037498758 11.094079812243745 3.2801239387785315 1.6281662463929443 -0.37084614979186453
Ni 9.50100255943477 4.9919008246152305 13.190521030748654 -0.08182484388729133 0.35002792749493267 -0.8614596841530647
Ni 2.0123479340648354 1.4803086058435204 5.281286014119583 -0.5773836380689089 0.3680174220938178 0.09395582282287045
Ni 1.938398830028175 4.594102100866732 11.100778764050807 -0.1201777326338769 1.181213129034172 -1.3682264312353598
Ni 5.623663079262942 8.689682986862772 5.512134079354796 -0.09993518033475692 1.4736555448051523 1.3828117852487025
Ni 2.2917122539506787 4.475406128672465 8.325536897321154 -0.9520206223617732 0.6349416389890354 0.932317230395575
Ni 8.098688025041739 3.392765462411639 2.9649900736879964 -0.27292234346018157 -0.4707407066966731 1.1973609424386282
Ni 3.062955821429539 2.2989520917006043 8.594899965213358 0.10439501587832344 -0.8964583117154367 -0.7295680055163694
Ni 8.29858228074872 1.2297448276131884 12.894072562118211 0.34365776230253076 1.1996152856904436 0.4424027789839284
Ni 6.852520442893882 2.3171871411042884 1.2960019543552828 -1.2378964406588293 -0.922667880231269 -1.0551012903040475
Ni 4.473304240293455 7.735051993746762 0.6331065290376651 -2.37286262291032 -1.7619769964292233 0.21666789184282684
Ni 0.16052822179964318 5.316021354384808 2.5435334285179656 1.2428455571339887 -0.9224827608036564 0.8035445570038355
Ni 6.986219227251219 5.358432791010179 4.1379045103958 -0.14778546704881645 0.08827445616737702 -0.42417185779819855
Ni 5.853525592391551 6.337632523845293 10.762984749746305 0.26269475219490235 -0.41844858216117614 -0.5845526450135222
Ni 3.8547418446659307 2.646445620244781 3.1440055714968045 -1.1392378130436511 0.0026384660641115853 -0.2978155071574355
Ni 6.2119209153281965 8.53089232612311 9.592544936290057 -0.6185832522356701 -1.1403585569116552 -1.4525516729470016
Ni 1.6286645584971595 6.349057454900983 0.6043377492509925 1.2141967830490443 0.8293442916757587 0.7715209529093874
Ni 2.8963367941938296 7.0393362820203516 7.1404810191635715 1.2751823215934812 -0.440132494892513 0.6182788336213739
Ni 7.383354688444563 6.096550597635831 8.812662140487156 -1.3328372531027886 0.6291751688189035 -1.206447992341561
Ni 3.632464813154018 7.456425670225104 4.714011563285147 -0.38460412280790535 -0.6246883366921435 0.10624312483065573
P 3.8072018003957737 5.366373258219775 9.983074862937631 -0.2696331311859485 -0.10119502088378701 0.47726899473349416
P 0.7066165719462656 6.588000125826918 7.973918996691052 1.260435759411926 0.8348598221773493 -0.8188217948778802
P 0.5349492759104787 2.4588731013018665 8.843603805771417 0.970623067954309 0.79118089323216 1.9144449565553738
P 3.251042135309545 9.116581187502907 5.954304133870516 1.9251705705029942 0.9657068615996142 1.0934343815562912
P 6.415374368690302 7.510859908378416 3.961706477187479 1.0676408175319547 0.1611004389901677 0.7245399561741587
P 3.617620810335138 5.465404896912631 1.4011636337339455 0.31608576622153306 0.017611285323859995 -0.3193004165040888
P 2.7957170620590555 3.256058642240784 6.4197042587510635 0.18534902712488724 -0.018441751644955335 -0.20222754804778076
P 5.09018512521777 7.612170928246732 12.34700613324589 0.7270884336276252 2.4064263177983785 -0.9707768199233539
