# total energy = -340870.4713141834 ev
CRYSTAL
PRIMVEC
9.29723770213007 0.00000000000000 0.00000000000000

0.00000000000000 9.29723770213007 0.00000000000000

0.00000000000000 0.00000000000000 13.60744715625554

PRIMCOORD
 96 1
Ni 7.772193182063537 7.515979906302614 4.325916364955278 1.3650452052939008 1.1898366090371248 1.0321567656927322
Ni 3.507680423312011 2.32170619141511 4.864866076107385 0.1751983118441305 0.9468503910147434 -1.1633527038139835
Ni 4.429018082117291 3.33050296499951 0.9267096027320766 0.20215709982116153 1.7460850077893155 0.6231618727452881
Ni 6.391823007685863 0.6471026175412378 3.923829430122983 0.4615783234711147 0.6013578894963192 0.7107974097770855
Ni 8.615052857680707 2.9796345125014527 0.4692678445253368 0.7256018217797697 -1.6412968702376316 -1.5136361989631482
Ni 6.272046694759382 6.134912439099551 6.31620950342445 -1.393727917940574 -0.37141333514924424 -1.0181542807660529
Ni 4.344701433671257 3.15679337633861 12.198531800283801 0.16783775771400125 -0.7807542985821972 -0.507458630942997
Ni 2.84354154746087 1.7313501937277933 0.3905592898429644 -0.04230724540864327 0.7263543836750781 0.4054789093743855
Ni 3.8572565597736803 5.308769196816373 6.787734717256512 -0.9190613938269333 1.6570165949657334 -0.47988663486199934
Ni 6.97239831134239 7.163930704620231 1.3403009394595222 -0.0693069139259387 -1.6021790783005634 0.7280001468086172
Ni 3.2117679426922763 4.064966146600546 2.998400986742088 -1.6455949833923529 1.435227579846257 0.04004930261240199
Ni 5.624670738430591 7.536229289951909 3.7955796147823757 -1.071472018352587 -1.5559056491553205 -1.1207855198757344
Ni 9.391697606598939 5.643320997200329 1.4371781560002297 -1.3494211256033986 0.02907377743750477 1.8641009568851832
Ni 3.040670877817167 3.295498865164984 10.160952911015585 -1.1594199444184807 -0.019620859554721048 -0.19410877559538828
Ni 5.318670754936896 5.140991245790115 13.03001537588569 -1.372559768503391 1.4611160175772449 0.5935304230321004
Ni 6.204734694015166 5.6538826591955536 9.059362267675954 1.2809035403479747 1.0324359874960478 -1.370294369507982
Ni 8.57382890584371 7.563414412904407 13.091357620320808 0.9620921476651623 -0.8246445722072443 0.4931177888402926
Ni 0.25974901524752825 7.987321964552541 2.554390018076107 0.09816111915346966 -0.23538372308477526 -0.22777737149242708
Ni 7.330248989332008 0.05033617447917886 1.838107584742379 0.51341896229149 1.2786319707049785 -0.569279778014852
Ni 2.314147537187893 6.69623316353767 2.797037694350029 -0.3379082614132632 -0.5289198861405665 -0.6952990570311702
Ni 7.50461868186761 2.3767923246208382 8.530276925693682 0.5646139971080663 -1.1425910457866 -0.4046147616018773
Ni 6.9148484101536205 5.311781501822053 3.882980156964163 -0.1426964825616833 0.9011786000092415 0.037340645431987306
Ni 0.4677272922431107 5.179714240693382 12.851893318225729 -1.018998116823587 -0.02033511201292627 -1.1942262534643884
Ni 5.4155107825269155 3.6553577464917226 3.263963564705826 0.9332294577971991 -1.7521229864532792 0.4158836496474773
P 6.3309353981728975 2.052597647003327 11.590632844833463 0.19669401982406123 -1.1724484954676648 -1.8531241461587054
P 3.659922690188602 0.021720206648982776 8.381901379964814 -0.5053284719738715 1.6845176285994794 1.0949832141006497
P 0.8629407792646047 4.818042398020633 10.570128989572668 0.9136852171166844 -0.7612493957800502 0.901303812733196
P 0.7000912939281964 2.644896767364061 6.247859001232289 0.44293808266210816 -0.0924527559147827 -0.1775480430232297
P 5.196532943641765 1.5759375688050998 6.0594374636794495 -2.0283687378597386 -0.8416405925446085 -1.0234859773916116
P 4.200733708322614 4.276125008603669 8.6209575333261 0.555376023449566 -0.8313556656788328 -0.5719969198356988
P 5.071931364363592 7.673428626275443 11.873899222771945 0.5083873134048535 -0.24663204230508493 0.06058238956874728
P 4.598804236480669 7.453855764179293 7.725002263088745 0.9547472772643171 -1.6274586788029584 -2.079680500759838
Ni 2.952495875737314 6.830708409223352 9.703619930489603 -0.1522746131684216 0.05293849987024432 -0.628350358924763
Ni 1.599515363540919 4.5628518184036135 5.585706945071624 0.6816704105041421 -0.14886275927339523 -0.2822960713655977
Ni 0.7179196768877414 0.08428224866664821 6.252064141831268 -1.7923653789130938 1.2243505836535948 -2.211771954112165
Ni 9.042484062406471 1.528149767171776 11.712855260991411 -1.3468613352960224 1.5262166067313199 0.5934748872038166
Ni 4.792837586692239 1.3090324697215465 2.2266819143424024 0.16603155774319792 0.31855453947699974 -1.4352787447991666
Ni 0.7670630157736216 6.782111747912576 5.671039781595191 -2.065746921397881 1.4022189861307204 0.8400583356591532
Ni 5.557572574152829 8.64688659946913 5.809685768100464 0.11184118774372352 0.09383832340839968 1.1477725899875393
Ni 1.603048313856223 0.10698052471870992 12.84219165071515 -0.14499350612597608 -0.39902338355702893 -0.3072694534814837
Ni 5.952500635977797 3.4295278434424152 9.909391972985658 -0.7181260822280149 -0.23243466775878033 0.8121322986728464
Ni 1.6701371808963137 7.159886406232976 0.4386845812037766 -0.44580511979725806 -0.4479458202893447 -0.06444084408288903
Ni 1.948440693365559 8.949335038172178 10.220049872552949 1.1594078602336226 1.0301585043157806 0.2525216683166425
Ni 9.102153733784425 8.723058867714622 11.041232108814427 -1.1800232224911291 -2.1171142201262634 -0.8170613605433478
Ni 4.000629261911325 7.256577678020246 0.1343181223690262 0.4292726693598736 -1.0830756640297863 0.15661309264277545
Ni 1.371779526768882 3.561576510095742 1.1946113656940527 1.5413542337037065 1.0411772240237875 0.5958109915361609
Ni 2.6153687405182557 5.447707116584543 11.766345988212649 -0.48263642969299464 0.14493359942231815 1.0204960415253523
Ni 8.313738681973625 4.213006062049461 9.735121760893144 -1.2168609601447689 0.8686420608341168 0.41490997288029835
Ni 9.05271102384551 0.7282470484936355 3.746960640101188 -0.4975354582920142 -0.33441413221707567 1.8224804531309193
Ni 4.514227265379823 1.1346162909975859 10.543008947283871 1.0396569307245191 -0.6964694231901876 -0.7467162351608817
Ni 7.05077402491611 4.133895866699664 1.4243870164112944 -2.0599966491776653 2.4756257596121753 1.1282687156266569
Ni 8.113866666504132 3.2524061685559453 3.839559267865309 -0.96666614018909 0.01320955671173854 0.8363811439178821
Ni 4.42339325332582 0.17243307792855442 13.21260010762814 -0.08095298280529928 0.5363460034013086 -0.2335728951282816
Ni 1.791661374505103 8.256802398471198 7.812130396206748 0.5993675985391678 0.0422239416662176 0.7177213905904285
Ni 2.863632878069744 3.165820994117979 7.115320097452949 0.38180599123747794 -0.6546853972748661 0.3147289950833225
Ni 8.541483815983334 4.902972664153009 5.843242288029483 -0.6792191207501722 -0.6915383044371575 0.12460542938792735
P 7.082031337968879 2.2586895144752903 2.3345345199547323 -0.7031671469253374 -1.8583452853483284 -0.05261762619571583
P 2.967957181985606 5.280914672751502 0.8427945949534665 -0.03371924662931612 -0.2798586655686987 0.3100824974502466
P 7.537000960678673 7.521353709676945 9.474906024314489 0.021896285852459067 0.24450625421133376 0.3403040153389494
P 1.7738013809374737 8.757774753181321 4.196073932801482 -0.24391464337392185 -0.36269909520469795 0.11585262289596177
P 7.788946804348216 8.706705026649832 6.363154975324704 0.26339460647540447 0.9006484385373844 -1.2924709334706
P 1.3973376331288057 7.385074799882925 11.910081282619494 -0.03523208372941675 -0.16366151484912458 -0.9142462318264772
P 8.823041361637728 0.3387271898223844 0.06284188887158822 -0.5230438869757638 0.7701330714229253 0.3427082539050678
P 2.636399092131987 2.085853866155545 2.686831028159186 1.148369857251906 -2.040251348229938 -1.2174713400352581
Ni 0.9713196085291613 2.936876516448601 3.6077698354683436 0.6067188966979165 0.34756815310053046 1.214186498636399
Ni 6.71489271954508 9.19811982103329 12.695598385447976 0.997742035658288 -0.5990739785581489 -0.8086181148720009
Ni 2.8155568620685925 6.918567305222361 5.034388188920883 3.00829405705158 0.30334440739546464 0.12028983273170896
Ni 6.480686005353433 0.12105003448752494 8.042369049360047 -1.0798545859893274 -0.822516470120648 -2.691336172637739
Ni 0.6736183393813623 1.223730314082296 1.7773640824133279 0.3690049828180677 -0.02212794224729092 -1.316430786720307
Ni 1.021152802450293 3.7886150540423906 8.648825073523712 0.22217853724841094 0.02633221013662562 -0.8616124076808452
Ni 6.96969281517988 0.4793107206584723 10.046446272401509 0.8166170739170775 0.5718580802649893 3.2772756706964588
Ni 6.2696294129647 2.0181513814291123 -0.001537763110924472 -0.19405015444331097 0.4129430789619146 2.4141607103281584
Ni 7.097911019912404 3.9881709634310414 12.086093797051712 1.1841465006308833 -0.5902275839111125 -0.33189342267775096
Ni 8.0452716469612 6.893557735885077 7.366378054924828 1.6406679784043807 -0.5629687481951594 1.3378259645666315
Ni 4.452530796189407 5.251061242587182 10.4731485736938 1.0884089033172417 0.5145353352841203 1.4265837881283303
Ni 4.636485940764689 5.848055467972201 2.219211583873069 0.8680483931141759 0.31946599554767563 -0.23210916609856155
Ni 1.719310270942744 1.4220125019099032 8.328465506445841 1.0625292073370023 -0.18628336601369852 -0.9802173965109635
Ni 5.0477399519414305 8.08671873250232 9.712914378990156 0.8098866971717794 -0.17815508047960932 1.1064022545708687
Ni 7.134755972805958 6.412713900734516 11.437930364692116 -0.7880109801446107 0.4877213004150697 -0.6334537415895993
Ni 8.870513057190209 9.080788681614505 8.439665117620036 -0.15785133592525075 -1.1286595233071723 -0.32440714160303485
Ni 1.4437494435866953 3.0108174476528475 12.525206051188393 0.3819998524158389 0.4441817252612221 -1.1813491403914043
Ni 0.5663784217316077 6.664873580870511 9.356494545878236 -1.1620147017288505 -0.26358641077123635 0.48164218410052534
Ni 7.223191297540622 1.7119375614689643 6.122453210895501 2.051211189675551 -0.2606101017517318 -0.2507509495694649
Ni 5.57579515998966 3.7170821073951545 6.264011092239599 -0.3954364375367189 -0.48605548267687254 -0.7798204739140183
Ni 4.965924260429125 2.015362210127556 8.181205629237596 -1.080442083061681 -0.07814379549127833 -0.09543626402313887
Ni 2.7847179247110563 8.975320817465006 1.6145917641495957 0.21407621985625067 -0.019949446538733387 0.7401671211884544
Ni 4.027991032379588 9.199133219939522 3.8580105657488675 -1.7202639329611533 -0.06686873679809129 0.8676089915839124
Ni 3.0433205905536456 0.47698362206920747 6.196885965972588 0.8999853510320888 -0.4328418747683706 0.5658879787244835
P 7.382908543505383 5.599586791191932 13.522345948179826 1.8192028108209122 0.6908520770034102 -0.44159956635634273
P 2.764087354317215 1.5719304593685315 11.529766618967145 -1.1929219328306682 -0.46684497118669277 1.1831604825685302
P 1.7785336749124467 6.202382492884188 7.637234480018919 0.4836913533200701 -2.1881424876186832 -1.3336756898436837
P 7.232748857867287 4.23638861479417 7.508384992848477 0.7353367896793465 1.328767453908789 0.3382746436137465
P 9.339726048013281 1.4970319126840843 9.488935555961316 -0.9690387541863246 1.6109449974186516 2.1110381891355128
P 9.177405575500401 5.866529079226173 3.797035562201788 -0.11208261433056826 -0.34928950666701136 -0.6230559432950431
P 4.443744906589506 5.250243085672059 4.456520240874399 0.514374898446856 0.8965038202413915 0.6788607089694889
P 5.175697834019142 8.257546177484945 1.738800070274249 -1.0625757443042216 0.9307072055959779 0.503265933017888
