# total energy = -340889.916089357 ev
CRYSTAL
PRIMVEC
9.04989029827677 0.00000000000000 0.00000000000000
0.00000000000000 9.04989029827677 0.00000000000000
0.00000000000000 0.00000000000000 13.24542922845566
PRIMCOORD
 96 1
Ni 6.432209452756799 1.9742335450142747 11.51409293511988 1.8554635929251593 0.6572169054474681 -0.9888190221370453
Ni 4.809908037462969 0.34896286074900723 6.024842220675661 -1.3421464463188564 -0.14592913056636805 -0.05698438780484379
Ni 2.8041899244766357 1.6315504030683177 5.184433218043503 1.1669589331080032 -0.987358635541435 -1.7986974917787086
Ni 3.268793187066335 4.30537665935366 5.115557218772175 0.15463000077447564 0.4804049692593146 -0.6143437602330258
Ni 5.239343426773157 4.426599938452749 2.6656026210694157 -0.6457461858037072 0.6580041772354538 0.4643988236390454
Ni 7.164327469371811 6.052774706748027 2.5918785956231436 0.6090809691721897 -0.39123551208149393 -0.518787682802571
Ni 4.89667838460758 4.608321733474003 11.587061294735264 -0.3001585534683153 0.1162514009962772 -0.8803637201464193
Ni 5.550324803382488 7.7558011425393465 12.293638711255205 0.5784043660239393 0.6795587634777781 0.11163035728449808
Ni 1.9873739855705923 6.451621467214995 0.5721974070621937 -0.4778117546108416 0.653675725063429 -1.639360829557183
Ni 2.8684984441689183 1.6185457108648544 0.42451858396979647 0.32316144212139186 -1.1597253914740415 0.764793918598199
Ni 0.36716399989974163 -0.022612960618506386 4.414926485096279 0.25646856877953245 0.16858851983709675 1.1147082033334026
Ni 9.01626984824454 2.580585237654666 1.292749664014 -1.28889195787009 -0.8440080643355206 0.24997961862107912
Ni 6.890133896386055 0.9444736899304366 4.885139774614946 -1.1820556795401256 -1.0566148987350965 -1.758461012856165
Ni 0.7121322391187498 7.33450160451024 2.602660634795869 0.5608565869481631 0.7812152973790158 -0.8856190550080876
Ni 7.639274756449025 3.9263944078544037 3.8481019978400677 0.4267529882618134 -0.4827577857622073 -0.21450379431197253
Ni 7.659428861902826 4.1320712622093865 12.406489936939245 0.4235943880281737 -2.2891449328756903 1.1446656689274415
Ni 8.094746679836708 8.806782990119443 6.708836541214725 -1.5516597293947727 -0.4701547522862161 -0.023543848758211066
Ni 7.247206363734592 0.4509877027983904 0.45170264412342415 -1.1444581809023258 1.2111235434403593 -1.0127372235155396
Ni 2.0556916066171786 6.658384308392814 8.991831524774652 -0.8637520797316672 -0.348163106372052 0.04052469958692376
Ni 9.000921234481789 4.9400454583995055 1.3307284331866192 0.2046189310980928 0.5443866143175979 0.13554213090508915
Ni 6.187265124866098 1.9926953210024896 7.154902913727631 0.8630329421774556 0.5797356832408531 -0.07486178230589688
Ni 3.6298928555495555 4.2584348789365665 0.3915625038527945 -0.8960317657009794 1.3979653530606893 0.7234909460843539
Ni 5.840482382663934 5.492242608141132 4.806885374139409 0.4909452066690061 0.580231391930349 0.7085325250023088
Ni 4.926895967952997 2.911078177514287 9.282370104433108 1.2342616721197197 -0.17125886758040826 1.0553010650196792
P 0.2794642290325868 5.499482520293374 12.38131042746277 0.26190336664185865 0.8147270559832163 0.15203447213315752
P 3.843343565578007 6.412471642251751 12.580111175251163 0.02110207208593785 -1.508891228078995 0.1794540017966909
P 2.4927198537970288 8.53417314791699 1.3730348598482407 0.1355822401144052 -0.19061207529603946 -0.4353052487071987
P 6.164504651037491 7.757457272444171 5.770133061269625 1.3742361277645494 -0.8681689778524404 0.03120213663441723
P 4.933221841196017 0.982456079059132 12.511353729541327 -0.45033000425080505 -1.8512842647364889 2.2416432877503008
P 3.9344488101237722 6.04624973592082 7.931693903289028 -0.18250924368324695 0.49001575287620125 3.4641467908928276
P 4.842442392697103 0.8371917666695072 3.8605655066101505 0.1965760061889582 1.2176839702666964 -0.3531639020207531
P 0.21560005894864806 5.608524647196317 3.6518044496783135 -1.0523134431462653 -2.0066017784962926 -0.6495743013005457
Ni 1.4522901781788253 1.1994543460421816 2.6656958349383757 0.8661912853007793 0.21537385562175168 -0.32929815114674904
Ni 1.6778858408426616 6.459657769703983 4.896980650939936 1.152100527938932 -0.3562420267254446 -0.9799160632204608
Ni 5.8303646054311775 5.768780102686176 9.192618723459812 -0.5018983632464001 0.4543645793314948 1.0859766397266652
Ni 8.771850413984879 2.6433462261244074 10.272982849520762 -0.7744342699014405 -1.3439122799700274 0.6188478187509665
Ni 2.0438091007973127 5.180238593940297 7.026660539796944 0.7253668229508282 -0.29668730709026325 0.31397669029833025
Ni 0.42031219500934436 8.873951275111859 8.97844040226006 1.1493743872570206 1.2138609969761802 0.4866951731434005
Ni 1.4720641882446341 1.228757890478378 11.461839774150098 0.4453374361322201 -0.7000789949183169 -0.31775312662162697
Ni 4.130831427253315 6.644338878817466 1.7330983159046718 1.1572440198130844 1.0511520758483122 -0.704869988549057
Ni 5.721521576112421 8.041877221344967 7.907083631905522 -1.0619368251686423 0.33600744484612455 0.9009202041415322
Ni 5.164211238413273 3.0371250480848064 5.166313527904481 0.5822425088231069 -1.2267280827468356 -0.7936249838972784
Ni 0.8928259666143858 7.467191094480441 6.84491974000629 -0.05704583717039853 -0.1158096854731683 0.8063540014281726
Ni 5.291298846355677 4.520990293137594 7.298456796871289 -0.5002801109166868 -0.8785798887731191 -1.0199825922240433
Ni 8.257889050297274 7.033221710184913 9.057475808259023 -0.7231068232720579 0.742829755622282 1.2560404585577079
Ni 4.7647581353035555 0.3105786564958624 10.393158151335813 0.2364964965329798 0.21271276384982074 -0.6244548805250988
Ni 8.089280546161767 7.033140261173199 4.887801347319914 -0.20810740386732549 0.018564650376064803 -0.1388475411292383
Ni 7.115331363881518 6.227274689397421 7.193288022969794 0.0956794903821965 -0.6461912437609258 -2.250643948587014
Ni 2.328753943329146 5.333308436619058 2.562010338039072 -0.7718595671957288 -1.1975339776813827 1.0356020439288551
Ni 2.231051328834651 5.427128648221912 11.317967334871744 0.4227009296796268 -0.31184910243236613 0.7705593603270665
Ni 1.4100181410999268 3.3828218034641337 3.8828581011159202 -1.3940868439418894 0.3083374897346819 -0.02893802319058887
Ni 4.070577258366288 2.487380418584751 2.5898659000448205 -1.4976349384388852 -0.6848516364456011 0.4688074942297023
Ni 1.0887922887951749 3.2723950433620748 8.36762801874487 -0.416080853259948 -0.10878723140874813 -0.4983785230185997
Ni 3.4262974759383424 2.9986811145564056 7.3371333125775795 -0.11795964193663555 -0.8561182173354933 -0.534331286964125
Ni 3.931245148996405 6.589777090860138 6.041796284958172 0.43212350854510745 1.8444785546685654 -2.286643506610075
Ni 0.7689212050519109 7.335325144517558 11.108226174832295 -0.48410504381872105 -0.20750242329347487 0.479358273162355
P 0.10001124148204102 5.666543493206339 7.827810213794556 0.9446988918893795 -1.5103508433436568 0.6758224363637974
P 8.426488504542592 1.4703628088888574 7.927733671341752 1.1989845940849804 2.1274425986354646 0.15607007565511186
P 1.9580885409147768 3.3176625940939632 10.69414754418603 -0.9755122777258102 -0.2344696959109381 -1.6031941498286388
P 3.956050898008022 6.089517260920652 3.8010145141909097 0.11179439366618811 -0.5019716396864968 0.40081492823981296
P 6.622899688956642 3.9464308647357313 10.424616474626319 0.7274509591733666 0.09973052052311855 -0.20017426506317784
P 6.507622187712582 7.806933022114549 10.11513647479956 -1.3397154682798604 0.02022943967299742 0.1848322353894688
P 2.409044569097501 8.39733880823963 5.530258481863531 -0.33841554006698493 1.2901777665610488 1.112897118266593
P 6.920197631598237 3.950032721031471 1.5119126647305696 1.6319894767937766 -0.22137969549619937 -0.31267468365745504
Ni 5.381137106274801 2.870109324622792 0.3994648679669658 0.578513637908294 -0.9867425992239909 -0.38541299186244593
Ni 1.2213098308517598 0.924256235245303 6.841488926635146 0.30789397443936006 0.41757697818950024 0.4153745712215427
Ni 6.97372773207387 0.8134674795356319 9.13575645341611 -1.2523249573793336 -0.7665900912666733 1.91595213722852
Ni 2.5991827619957357 1.5132592883908866 9.307271782280743 0.19026497636926587 -0.14142610048969192 -0.17140079247491127
Ni 6.378606953159643 1.856458274077691 2.3869854617586412 1.5695090988713678 0.26128218811809195 0.8586834069595082
Ni 4.042033904706076 7.084688435697157 10.439596757858325 0.19444276189603932 -0.9930315175564963 -0.6878798817489638
Ni 8.370768330640905 7.234654166040643 0.2031808946404973 -0.6062136749267236 -1.2209544134878523 -0.058434232877492914
Ni 7.451435235659126 4.024866263015075 8.404145230651757 0.8042945477959825 -0.7913364449734178 -0.5312194808080206
Ni 2.964092434249073 8.50508680084536 12.193238324494981 0.4735095276910619 -0.03168961779379703 1.1576620811871094
Ni 0.02593698528540413 4.921031639109682 10.068817326827558 1.0126930005411656 0.5019173894097937 -0.1816569229852807
Ni 8.457122382836761 2.2325174110454795 5.8259229193257775 0.9194712276708422 0.8693773963382446 -0.13629057903533948
Ni 3.7277131186165247 2.3699942929263496 11.575352546807052 -0.025681721036820288 1.6144231857752391 -1.0904236197544253
Ni 1.4864535136472135 3.4790040364066583 12.8976175226877 -1.0340624673558771 0.35801763056862856 -0.9635941861319856
Ni 3.0386363797465865 8.620454800991324 7.746549439797801 0.43202554951466243 -0.5058385788410708 -0.05418599912410023
Ni 5.829007121902633 7.719782579581946 3.5532982049349195 -2.059770906320104 0.3965466398817622 0.9936976903855854
Ni 3.0349983238900857 8.559340892536218 3.4530833409235964 0.6542681072317894 -0.5364676165808374 0.7959592884574098
Ni 3.276395094826188 4.513931378789159 9.328345356577879 0.024550435645854494 0.041365193210348115 0.04531080812165745
Ni 7.316664270945156 6.013199536945839 11.18147327106554 -0.6162772298103129 1.6396847885555053 0.4486137928906468
Ni 0.5560931274685521 9.087537733493164 0.6739245077243158 0.6515985308194262 0.8444873179647843 -0.7141323876875895
Ni 4.749138024835095 0.1157055610500619 1.6715599675996407 -0.2726405505537047 0.23063232444271892 -0.9873972020888543
Ni 5.960782572963613 5.489437142182139 0.3072021424658609 -0.12804196587330208 1.4169362377362371 0.30870927125180375
Ni 8.062746268123803 8.794031694841307 11.353372315274239 -0.4156337384202003 0.8725290545933488 0.13738484054078273
Ni 9.095320639056824 4.643860652251318 5.890030531455835 -0.9046688725506871 0.39183175090459615 -0.979428582061081
Ni 7.72948406186595 8.493448642060631 2.6311777437745274 0.9904647852705845 1.6784665373093932 -0.13329704362465433
P 8.482742621965507 1.7338322619991053 3.3086289937060043 -0.6023325947047627 -0.7870488733416574 1.043063642413223
P 2.0941988893769117 3.2246568726082345 1.803788818159155 0.29855187110282777 0.15097620607197224 -0.47300327747860477
P 4.558936482705528 1.085317130962099 8.286313850395992 0.2614814486130916 -0.44585242809542563 -0.779925889143631
P 8.814683544255574 1.6468356675997369 12.506493033520117 -2.188816630867572 0.37749656522884667 0.24305075271172982
P 6.329475099316496 7.6667411731765895 1.1173066828067768 0.27516537385808737 -1.526432579396868 1.0905406049482638
P 1.538246035206309 3.0289258475723932 6.106036930474028 0.48440663421953994 0.6560236564703154 0.5058185242364127
P 7.013845895287478 3.9398877941281434 6.090314556246417 -0.8631021048524943 0.014891058179219518 -0.4211045317267845
P 2.304880333007131 8.475231213107556 10.099507314440908 0.36910062785566755 1.203854520582772 -0.01780488939190482
