# total energy = -381169.68240786437 ev
CRYSTAL
PRIMVEC
9.24608463451260 0.00000000000000 0.00000000000000
0.00000000000000 9.24608463451260 0.00000000000000
0.00000000000000 0.00000000000000 13.53257947116482
PRIMCOORD
 96 1
Ni 7.952233886535585 7.027458981309217 10.844684731853263 -0.42407312743680514 0.18469468137033995 1.2122314317925573
Ni 7.570573999935833 1.6547440507073465 7.26055370264185 -0.44119821715286595 0.3308133022396948 -0.35938134368537467
Ni -0.07062806763335257 4.655745780289244 0.947839263652723 0.4403068156868481 -0.9815872802752965 0.33458691034951404
Ni 6.986988868327796 5.1636054777373905 9.727894535261173 -0.13559740962305677 -1.0202749266534816 -1.950521647673273
Ni 1.926958032038402 1.989239658961604 10.82190885127133 -0.5889772564437792 -0.48371886412389603 -1.3230662897589536
Ni 4.307048185848224 2.3587501901906487 8.891797904330787 1.1621394002321728 1.7421810447492188 0.6776229799076459
Ni 9.043595500828955 1.3504646474389894 3.3060772207478335 -2.8063225908786635 -0.38617969482514136 0.22249375449598457
Ni 5.633436028579966 2.569080126243053 13.47204847797059 0.5034505382248684 0.710802037762776 0.23521891537213682
Ni 4.740430670578676 0.8629222966358912 4.721950520974845 1.2652925732835951 -0.3147295093039547 -3.138314743917808
Ni 0.3257885702385835 8.119717465824017 3.6030901260056583 0.234327513906119 0.3021331606961829 -1.743022566813908
Ni 5.957936619211898 3.4456644377158985 11.108786198418521 0.5149261429646358 2.05814674045312 0.7421041903101672
Ni 8.637868055606713 6.511453483190147 12.978934436492919 1.4473832413721845 0.24455227695792078 0.7516218999926152
Ni 6.717918555814123 2.060203359471636 9.557762877298334 -0.13664719104380982 -0.3298648222834964 -1.8142387819474175
Ni 3.402355776714076 6.591968389254168 5.933318918546366 -1.1775156255779269 0.4145415337972861 3.104053508742093
Ni 5.688200588595721 3.1238729499177693 5.582987540928782 0.4063577124349131 -0.36660742912016864 0.5802334488128781
Ni 6.7963346006383025 7.049686569065063 0.5718647945700546 0.5833709660005953 1.7231307129859872 0.5240844124251361
Ni 7.71295445910899 8.736394334777385 2.269954490618252 -0.1579230697034506 -0.50610494512858 -0.6878320592301638
Ni 5.091735660921173 8.216875324450651 2.525084481143785 0.43264338560431936 1.8645868953826663 -1.745370498220794
Ni 2.142576728571815 3.453911945319149 4.20459971752363 -1.4975974003327304 0.37694532071106696 -0.10305032892497092
Ni 8.169461401816717 2.8284512958466252 5.089061693209446 -1.3477277970613757 -3.3948524753723794 -1.57976240116826
Ni 1.0834377196566154 6.420453517011681 10.868028322039281 -0.21130097110395868 -1.191720456323399 -1.5923620922101416
Ni 4.700367385326563 6.471075831056297 0.6244888859645623 -1.4987986197296832 -0.17170932485426557 -0.7838676474001984
Ni 0.7464410454755873 7.375222721189781 5.561740962765654 -0.4899599599376013 -1.800879329921376 2.120360237867387
Ni 2.8191959650048606 4.055240313575883 11.20113239453761 -0.7792841417945741 0.713843395692261 -0.9486506774482759
P 6.665992543818769 1.236543637147901 2.876755616442659 -0.697983545841869 0.5745870491603782 0.3441367588214783
Ni 7.503327225498118 9.148732730600887 9.873424210902565 -0.7499997910081599 -0.005552811497429147 -0.002367471790912052
P 7.920473585395265 6.311580868997917 5.483482101382344 0.6497535071908874 0.7090698855630175 0.9646054010053193
Ni 3.5703016602403586 6.625004650090956 11.601060695400257 0.6024045855932786 0.03318188606860737 0.3586745474263371
P 0.5102303935798431 7.495366346522334 1.1952802100943285 -0.37280198796665476 -0.27849238134879134 0.06775962404347685
P 5.561593950018018 5.92307887967798 2.507560376703829 0.7032725621549502 0.6375888468038955 -0.5384435093602856
P 8.958337353284591 7.633364161520671 9.19352076516383 1.5886363066191223 0.5049250658878659 -1.1897671892517705
Ni 0.08438809096873101 1.034470454783504 8.784065298567564 1.0716293698660575 0.47684579115314657 -0.5567865306438475
Ni 0.9348531376115061 3.4581836364768868 12.598073411616172 -1.0384264007515278 -0.8517969642523201 -0.2995882827871421
Ni 1.0068801378685939 4.908931319190378 6.568443575806914 0.6630425109903098 0.4598659687656983 -1.3902813541528702
Ni 4.931371566895636 1.179051482128829 6.911372537968038 1.5274299103131306 -0.8014596494503486 2.262568725049058
Ni 9.234083338992823 5.559023538455571 8.474670036603154 -0.7181996157784276 2.181905505570036 1.0429392010202168
Ni 7.276936840222791 3.4888991300396652 2.611490067806495 0.6006469794722236 -1.7787125640163497 0.8739945833952818
Ni 2.9198211054153727 7.950356931329913 9.872869445817145 -0.337927801797289 -0.29843025792329897 0.3804937001839576
Ni 7.870840602419649 4.369838347433061 6.466867937883382 -1.0361607446458028 2.20857915820648 1.9972766444406247
Ni 5.913851287090487 8.428120622894 12.067258459541803 -0.645787580564604 -2.5017203998166977 -0.7033018727309889
Ni 1.5159048419961234 7.69522046854505 12.596977750572467 0.44998676197877335 2.3493683964431216 2.1558895411222485
Ni 6.492221626895572 5.092993128448125 4.23473640618062 -0.2563271581056618 -1.6502548507618675 0.8647573810677299
Ni 6.061520506744652 5.925205479172092 11.697778440392456 -0.271587426698842 0.6916923135165185 1.787951566116114
Ni 1.5677661313981777 1.0897805337999222 4.385638057065836 1.828809737783057 -1.191718142330554 0.12540478536077113
Ni 3.799142257976292 4.626463429863802 4.98226294200668 2.0898391864603942 -0.8945119866223433 -0.49766632744292355
Ni 4.48657016749028 4.688587873346135 12.609021700576944 -0.8340447824752216 -1.5188439684163326 1.7596480911857308
Ni 2.9090586627582162 0.6806459063447226 8.437238187072884 -0.8217628797840751 0.13410334157603354 -0.6655861033477699
Ni 9.094569166094338 4.520373853361899 4.217171618967733 0.8782914109984228 3.7917760389775856 0.5242643896464262
Ni 0.8552434232451964 2.569995488633997 6.286302997880735 -0.5213382171385667 -1.1231918153243818 0.7290147041160606
Ni 4.492210279192054 4.989002413186062 9.937730730387553 0.3365977701319558 0.5102660184848051 -0.7841941775016817
Ni 8.31046419436108 6.271628536762889 2.5270196866834267 0.19217324913557227 -0.18304480447174284 -0.6211576978310658
Ni 2.4085033722681057 2.2878234740196444 2.2097615542416578 -1.0564752878334387 1.5278055484849944 -0.47475934093776306
Ni 2.1381663461427225 3.1731083512488336 8.380280455752768 -1.2686092963616538 -1.0522923601003427 1.6581424810400605
Ni 8.760397170806575 1.3393138692220385 1.1184572656737808 -1.1641170927838338 1.5920219352619032 -1.9068110941592
Ni 2.8926098779754996 5.854140071729733 2.1533715325256213 -0.15312847652828465 -0.3764007610615066 -0.6319496462402471
Ni 1.5385022731422493 8.110591580168851 8.005968432709409 -0.3718321678542177 -0.9199119147526866 -0.3722162906665138
P 2.745652606847624 4.026337052625479 0.7406067659939157 1.1732951597386763 -0.6949614711860935 0.7009575408685282
Ni 6.766747129415879 7.343850755609254 4.0222752475917245 0.19143662807986386 1.71983712983638 0.07981552676674641
P 0.7895878999941625 4.31193936468468 10.305411461443185 -0.2757037628600607 -1.007446921650878 -0.4788846759600463
Ni 8.435055186461755 8.520775638243972 7.218332381207451 0.27150309451515175 1.2070545155773085 -0.9945296993685776
P 3.0589007123302783 4.205100855317459 6.905783279732427 1.067973004060393 0.7809784987778614 -0.3882694874746345
P 1.0100607910250043 0.0972096367012732 6.216745626862244 -0.4164387508199989 1.6941096431632887 1.0095236016742486
P 7.929886099677898 2.9218367518924 13.122961623361299 -0.16374404726060188 -0.6274697560920226 0.6188154228511342
Ni 8.687020242174965 3.4318692792584433 8.610266643390094 0.14653154003705732 -1.6180738951539488 0.8377589981020153
Ni 4.243795720025536 7.391468092107843 7.901064204273355 -0.4723635870120768 0.5676954642468675 0.5601657315287256
Ni 7.032008055009665 6.918651055888755 7.914529277504984 -0.21198796986865429 -2.0149936021044135 -0.546138306901382
Ni 6.071016235790099 0.17893023221760757 0.5158224256408813 0.1556296456835836 0.5206609885658839 0.9392746355500144
Ni 8.164986296794327 8.956987424910066 12.923653944947722 -0.06862017227155925 -0.5430326713928648 -0.3778858302474653
Ni 2.307120052907519 5.654702023521082 8.539003369733935 1.3565428242498443 0.3880108344966092 0.16165888259679903
Ni 4.709946329134822 3.978386857075638 2.4357016551893187 -0.7344636430457737 -0.5676810660691642 -0.33420355886816633
Ni 4.219460024945092 2.079980734766875 11.445205916910712 -1.0688695477327335 -0.41712754935690743 -0.45539456325790606
Ni 3.1265358223277873 8.895685882971108 5.904765159599775 -0.21715794410536793 -0.4461792153072251 0.7178933973919184
Ni 5.677133025141583 8.239408033003478 5.993755026952069 -0.10694015089768034 -0.5944043409966215 0.4951628442947796
Ni 4.267937247326082 6.877358041363959 4.000149366768206 0.154646712945024 -0.5872271065218919 0.1359607064997465
Ni 5.197020828049215 5.337820206728924 6.99235159748686 0.3683915176037849 -1.2614022370902533 0.3838227645571906
Ni 0.8007784363755686 9.044575585813199 10.706530658022535 -0.5391335934487747 -0.758497544066526 -0.7646365670847283
Ni 1.4991416903316688 0.17457532629705705 1.7329280188041256 -0.482043533304002 -1.1307755412089107 -0.11743050890604291
Ni 6.773311849593354 4.737610614727789 0.7990974981667447 -0.8451509196907122 0.126068387086699 -1.2735625266018713
Ni 7.338118183059909 0.6362388104737674 5.169472118515713 -0.7689894447367853 -0.5411573087470228 -1.345535160285431
Ni 0.8513998258117085 0.9939910957173255 12.709798476777472 0.19003949062202108 -0.29263679116997343 0.7657747944542295
Ni 5.673083240018013 7.24088635575522 9.909894467618106 -0.7724354943038568 0.0474687350049247 -0.1078104693177756
Ni 4.454486253383464 1.470839424890469 1.6652513014252097 2.0540203769895724 0.07952679188173402 -0.0015264639468554357
Ni 2.0176158930808596 6.034087373270611 4.3079339607679445 -1.0951701333004753 -0.8556952708654617 -1.4532155317832458
Ni 6.30999978850447 1.283772638086695 11.666192890254043 1.7394330496904364 -0.5421916635488082 0.7633967811403563
Ni 4.696474783643862 0.18302254933105902 10.055883673671923 1.0256719292993366 0.6314691070594028 -0.053542966223462635
Ni 3.0942947247801027 1.9971543075136022 5.841121584391866 0.4689298787401795 2.11950997405195 1.3015780379781907
Ni 7.986943688713391 4.656522451408833 11.83846316762118 1.307738915373264 -1.1726274442476903 -0.46807755804221324
Ni 1.9010227642949964 5.459674357741526 13.064379354949375 0.21882556161577796 1.3991321196752806 0.4378704383312136
P 0.43169414965382213 3.254288975415359 2.746423730316358 0.24431187881234054 0.15965959277858308 -1.6541385020869899
Ni 3.460051345597802 8.576131947684175 0.6627177480008852 0.2510895638558063 0.47962978165618686 -0.8777540504377143
P 2.890187403769164 0.1104352363376966 11.76135451918164 0.03942812408863532 -0.3212050897259694 0.07512506326961255
Ni 2.8752734690561113 2.0201863046433077 13.302038868326543 0.38933495262467144 0.20571113572100702 1.0490568838821805
P 6.4166533761765505 3.4519702675201778 7.959430114301964 -0.9544816823077561 0.8397613732440247 -0.4493257313560068
P 5.951547574644806 8.723412831778546 8.223464084448494 -0.2951585291505627 1.383676704352159 -0.2579402682290525
P 3.2958501263981077 0.42720794932972217 3.043612311184566 -0.19726069096080867 -1.31151406614498 0.7905964814835997
Ni 8.556363818473693 2.100349859486562 11.024491492905836 0.7080625273444258 0.2809503559709806 0.577777788183534
