# total energy = -340884.60812552564 ev
CRYSTAL
PRIMVEC
9.16251678859330 0.00000000000000 0.00000000000000

0.00000000000000 9.16251678859330 0.00000000000000

0.00000000000000 0.00000000000000 13.41026948149999

PRIMCOORD
 96 1
Ni 6.7947848454368875 2.045999111053894 11.241453088681899 -1.184851497117708 1.7492567206490777 3.5192303621305325
Ni 4.81496659151817 0.5105207628687077 5.997126389759189 0.7495830151857155 -0.7794924011506381 0.28074466771807777
Ni 3.1947221376012402 1.9645443388080508 5.133182624257495 -0.22589635241963033 0.6984129200698036 -0.6078902912981983
Ni 4.037261348159907 4.691886506526222 5.234711554041406 -0.5147374239925974 -0.40484924621018664 -0.06149281719815862
Ni 3.5821316629216855 3.192394858394216 2.8302912875693607 1.0214098115888732 -1.095729348238055 -0.7170742439247328
Ni 5.123972462608279 5.188036778417383 2.4738061719009905 -1.020195479565798 -0.17091305420521533 0.6620932597031629
Ni 5.275786199542068 3.2617276212270956 0.7564601162034332 0.228784986821335 0.8864464360053894 0.7986743733957277
Ni 5.87688393614683 8.266908056594952 12.43744828693318 -0.07065751441656219 -0.02492633092803449 0.5697847426757284
Ni 2.2034936082567973 5.499516528979527 11.629572709035983 1.0881661911788163 -0.47670669447212094 -0.8607325761790531
Ni 0.5933838139102978 0.6611864364771418 0.5291170064851491 -0.4148531515004339 0.26625315897012214 -0.6425801293708997
Ni 7.9225165465382 0.0853928218646584 6.777576723079752 1.615105556554244 0.22436706025929745 1.8296052371011586
Ni 8.75028578039717 3.0560016368361027 1.4469950094837989 0.046477574736248986 -1.6953856816622348 1.0775426500266991
Ni 0.9234808818769776 0.7140706495759674 4.898798120560479 -0.7706897152573436 -0.49708808634195034 -0.14077278317640915
Ni 1.7643983270039778 6.903516429491041 0.25954202542428445 2.817640329884328 0.4600762850042915 0.7171444350410359
Ni 8.138504549479851 4.271418621446159 3.7992228328575313 -0.19097640061399368 -0.3156162827842822 -0.38733309170329416
Ni 7.720748769302461 4.216058696371987 12.998306083296173 0.3702285708125237 -0.7586600377863193 0.0037694943447612508
Ni 8.51348970234075 7.674734611122638 8.919116143091925 -1.4158327202594132 0.3465487106970806 0.900495715009604
Ni 6.838041086131221 1.253533053512498 0.5008817954443402 0.5115400001012222 -0.5323463953236122 -1.2770425147306717
Ni 2.247693588157129 6.415566609923841 9.37171330875211 -1.1380142250491951 0.3324814339707371 -1.1899229981033441
Ni 0.1649839382415701 5.3229731598419665 1.4428379757191263 -0.3005172223593147 1.211916728765616 0.23757713119166826
Ni 5.416027678056679 2.811041756521971 6.931647187843031 0.3809307877213762 -0.25124177316295443 -1.0857858638720979
Ni 3.2542051951288014 4.840475037629804 0.3688765030682892 1.0442239812699114 -0.4750462760505626 0.8547776441471989
Ni 6.333891937280484 6.016667288833285 4.723713424059761 -0.6101598040586652 0.6699371812276139 0.4333995470440536
Ni 5.434160298335028 2.8015035767797976 9.43303803210885 0.07588405292282414 1.6598635774962254 0.6004924561722303
P 0.2741278355410627 5.91751969710412 12.534122915441968 -1.3932993150435873 -1.4027764012960873 0.6775980402069814
P 4.1384521810826405 6.518883146689211 12.812733970337348 0.41364139058051985 0.7727810505687337 -0.4466813517546242
P 2.486230544360536 8.948681751537695 1.2018353863085922 0.756492083600723 0.5828410616390544 -1.4801280399033734
P 6.553480809231427 8.311437887091554 5.5947370661097535 -1.587398063336647 -1.8390674109553231 -0.18670811225594297
P 4.887973523492848 1.8029083841186326 12.73494145596177 0.34452859494325827 -2.029324416904789 -0.8956777247956703
P 4.157757603481064 6.682864705618779 8.259827263794998 -0.5426678318542782 -0.5751380365678418 0.7691190283361141
P 4.758672089754564 1.1520490200597464 3.554633118212549 1.2515502839968382 2.390720734137663 0.22813784015563934
P 0.44773003686187246 6.475571930895498 3.4033920385639527 0.5390752294070135 -1.5579234509162976 0.06950643153125449
Ni 1.1712444922594136 8.347629827515748 2.6427620610726588 -1.7934948645318467 -2.1722651542667943 0.6196399756349585
Ni 2.3013126350843143 6.57557163666503 4.97979659948148 -1.7462971238001215 2.0098390544866676 -0.032406698465479666
Ni 6.653508002550648 5.96824338879737 9.370157513439697 0.13114708716118703 0.6484684698308767 0.3355420751739318
Ni 8.877837173471905 2.428387577297768 10.260947452471237 1.269479357671433 0.9823064178295083 0.2822037687621075
Ni 2.3938998649543084 5.504620050705166 7.089902173920669 -0.6107424160350127 1.3856813934870136 0.4178459155801707
Ni 0.6576332125539767 0.18113195743235466 9.608163043682445 -1.0074757180062843 1.6202361929125904 -1.5055387666669942
Ni 1.6515619355295612 1.2038538887074404 11.680893796809146 -0.7164746626675209 1.1876545137841419 0.49580124920972685
Ni 3.875552093337984 7.185117213540957 1.7322443076291367 -0.041167732487561365 -0.24897071774059057 -0.5142095765135853
Ni 5.592754297525501 8.29266389065379 8.294251754774173 0.6149106884800893 0.11897059969965317 0.12920384739188717
Ni 7.282743827520649 1.0345397451381553 4.718537518453274 -0.30023800055599903 -0.2984441418803699 1.272042233302603
Ni 1.0331012300377507 8.032567532977438 7.076437855831212 -0.4315498954298245 -0.2958524698937937 -0.752367262799072
Ni 5.567942202672661 5.225025857782566 7.027088541622426 -1.5178705487594697 -0.03913784654172614 2.151364913779018
Ni 0.7108371974808539 7.3271820328516215 11.042176599699662 -0.6367126148465292 1.2368186342136185 0.014046965011369357
Ni 4.804851173232522 0.6439462453120371 10.640378258368546 -0.10568108167959864 -0.30453225705597875 -0.0814692603200855
Ni 8.43157680426675 7.478345231109431 4.855388865839541 0.41455233243056344 1.2557440103632116 0.38025201648679674
Ni 7.337929664780122 6.702096827884699 7.134825992629485 0.4525493804996271 0.27622929634622756 -1.2990511577912789
Ni 2.59620823066727 5.391554596316673 3.058118178162176 -0.6824882784197472 0.01587990445505007 -1.5464241920274462
Ni 4.456648056285526 5.050076766526983 9.580712144059436 -0.36416770933042447 -0.8021834149902508 0.4870718397565289
Ni 1.4819179413640051 3.3049655368883033 3.7998669577719166 -1.2913728153104147 1.2591129268354444 2.085877116488853
Ni 1.4829624682521971 1.4787477106331772 2.4952217218638935 0.9549352249054068 0.43768968977897527 -0.5359842491865157
Ni 0.8980603959243488 3.5170319827409524 8.295284370390833 0.5458112625792665 0.709640670464823 -0.5974683246339259
Ni 5.67051657559642 3.3311245216759167 4.059168009010592 -0.09756822276447713 0.34344744606393757 1.5743615418676629
Ni 4.268486616145971 7.134466821980212 6.1660547913811685 0.8717631229616019 1.148801802583002 -0.1121882866704971
Ni 8.867914168034082 7.716671449431887 0.2846289957740167 -2.7575225386568247 0.09509019353762978 0.07862227778959362
P 0.28802462441229676 6.099862939226115 7.944055790474706 0.7853650578813313 -1.3932846597555681 -0.39726732009787064
P 8.684920387236108 1.673222124684699 8.075234623856765 0.7084034556236123 0.9707593364218573 -0.19349145372636356
P 1.8496647061400657 3.6784663620659828 10.327624001752477 -0.046055913817798104 -0.25468962250223875 -0.0836474989183269
P 4.241521329900806 6.597131038137974 3.9864845138705913 0.3858171692794001 -0.05634958243432231 -1.179059315915963
P 7.226357700591412 4.18071886998816 10.667587267554287 -0.8060624383296826 -0.021934852399878354 -0.7569332849031997
P 6.838993987853782 8.005171608453809 10.48823833584511 -0.2981366379422801 0.1011399992761355 -0.6872605029974098
P 2.658889006475348 8.890059970567064 5.72275208252258 0.053978253988668325 -0.2671705285780689 0.8756760848627628
P 6.939351031769274 4.330104540032731 1.8418069319355623 0.872761225208813 0.11459098257471877 -0.12390840332090272
Ni 2.8812632834614704 2.1536128680873516 0.36711913239148913 0.5680430773942733 -0.968431459619629 0.8868218170669373
Ni 1.5682746599711004 1.550664303136847 7.109025262239488 0.07181913882483115 -0.2043268537789707 0.1250839116862426
Ni 7.15861921564051 0.9114834826892714 9.425756580196165 -0.19392339905745956 -1.8415076449656995 -1.8819747518418106
Ni 2.724254399636411 1.812923014722087 9.491144879648637 0.3682565346878174 -0.30396635725017973 -0.14644206564704457
Ni 6.767407245946383 1.8948817253789 2.7502319665960755 -0.784776789478029 1.009190386704546 -2.3568158538601023
Ni 4.028593607491227 7.16874379644272 10.629300775843774 0.9996821901037944 1.2484225370011337 1.0359751109975577
Ni 7.258683059025983 6.183883216109623 11.863622780878446 1.6030252283509425 1.4587431464696943 -1.521760113621863
Ni 7.635546527782315 3.927201199204106 8.279111612405329 -0.31769013459417544 -0.37978176171859757 -0.6497907881867261
Ni 3.429410836848151 8.918793622508904 12.542222580083735 -0.30255816404874347 -0.777674631215609 -0.08883881331127925
Ni 0.030948232195139022 5.04855578877751 10.00184797659695 0.07985537886574635 0.6393680501915053 0.4795140820139291
Ni 8.949726278425885 2.8696727000091653 5.855393253548109 -0.3640211564502311 -0.3557712577366131 0.3005293065441727
Ni 3.609701675260014 3.180062111100301 11.614526940587737 -0.4891104674531125 0.04789399546780139 -0.5527007906102481
Ni 1.3467891470915978 3.6279717332868096 12.897325988254392 -1.9160801781659518 0.10931096512270207 -0.7235174284469152
Ni 3.009620977993756 8.934883001593684 8.03554076960216 1.2809251376145294 -0.41414969767550613 0.6264490281369921
Ni 5.848727522748463 8.29307620389913 3.409078296343005 -0.6465717670287962 0.39957565651607313 -0.029719124330987525
Ni 3.218929506360916 8.924840883440542 3.4386878848682767 0.6848446944670656 -0.5683816916806147 1.20928186224593
Ni 3.4368416377808146 3.6519317140992826 8.0328451572293 -0.011909606953392392 -0.9882266399686852 -0.35313510566534667
Ni 5.401111101091972 4.760916906312519 11.898181044599443 -0.5727955044775942 -0.3326786375832077 0.06317097623152991
Ni 8.167393964203264 0.03640909206673889 2.44636809980117 0.24584554184804758 -0.5076882304552998 -0.09515292845476515
Ni 4.540759958334665 0.348188456920495 1.1948013223431102 1.6263027108216443 0.8051576671272264 0.7781520850726598
Ni 6.23545902184324 6.087658467164084 0.529051036365895 -0.6965609544627294 0.10847329971275511 -0.028636689900086162
Ni 8.257828002680933 0.18839874931853898 11.707151736775641 0.5777284230028372 -0.412845891262418 0.2274395285370341
Ni 0.04869327802286966 5.350039233769325 5.773067125977116 0.16556567385037294 -0.10525067901039939 0.5515985586850048
Ni 7.438360008828119 6.5571091657904095 2.7118785885146495 0.7298767950060397 -0.12968155835925407 -0.9131195744212017
P 8.850945187359246 1.9867359539238476 3.588225652687795 -0.7032957020834016 0.3535228280220685 0.08266610884166409
P 1.7366267393012613 3.8286583335681046 1.6643482273933492 1.1485470062597187 -0.8170549327854445 -0.04216557762445641
P 4.80905676833498 1.1942515713493251 8.315801993730554 -0.6785717169741604 -0.4926367354388161 -0.5831380240541828
P 8.728543128592966 2.1995354011015436 12.81088405824326 -0.4281776365234819 -0.928390127427027 -1.6191851259402565
P 6.758409654681432 8.097703863224424 1.1506187512242483 -0.39073209008251414 0.9142066368377934 0.23908199787196888
P 2.034784190780676 3.7911561532753897 5.970895937342384 -0.446268946807554 -1.4420260908253293 -0.23087272258829913
P 6.891568507892775 4.241374729635797 5.8182328351231964 1.740824016500692 -1.514697807458443 -0.6476174346844911
P 2.389959982832181 8.758486232721134 10.428321891284115 2.36699305150342 -0.7416542472569421 0.8080720125605438
