# total energy = -340863.0778123404 ev
CRYSTAL
PRIMVEC
9.28294467093308 0.00000000000000 0.00000000000000
0.00000000000000 9.28294467093308 0.00000000000000
0.00000000000000 0.00000000000000 13.58652786033634
PRIMCOORD
 96 1
Ni 6.114072213627691 5.510959303260961 10.398109371179624 0.2042353225064289 -1.7363922059815837 -0.7642748128699354
Ni 2.680338856602568 7.468258888268112 5.635637603828061 -1.1175127626617336 -0.20196323864280055 -1.1643531200540398
Ni 6.335349763949558 1.60148431866335 7.534721058393734 -0.3264187727164249 0.38668105994159213 0.5662924132517537
Ni 4.414495019424165 7.070976708416413 9.248675677186702 2.9161482908542555 -2.4136405761586306 -1.0398276519744285
Ni 1.1583629583992923 5.651948665776736 3.88206523409061 1.2505982044962138 0.45732237640823814 2.565161084769847
Ni 1.0261923932491999 7.70646852953209 0.04989025743381487 -1.3774106688377892 -0.05570320709957503 0.28766916275205295
Ni 2.740742977085195 2.9299386708851696 9.790275155191647 -0.2716599318079902 -0.93429466583692 -2.479110632836982
Ni 8.443952062918035 1.767082767301677 6.806252192504435 1.31218615251134 1.1945041897161233 -1.926530169854682
Ni 6.5053111965477495 5.8035948486880935 6.9426752745737055 -0.08811119111663536 0.8082381058247629 1.1433790889055342
Ni 8.247951970729593 6.203299877079208 5.3617870250842925 0.00439118708916018 -0.5363593731377472 -0.011838644506140902
Ni 1.3787771948737824 5.857222419616039 1.68608814741187 2.3439166292999314 -2.8164717634975234 -2.557569645575834
Ni 2.533965386221429 5.98620893476989 7.786058639904605 0.23324533658553379 -0.24510763524075854 -0.13868736140229018
Ni 3.299037830945067 8.327813143084295 7.756928759764066 -1.6019823889087248 1.8206631974165224 0.47354629446626834
Ni 1.1701522980355203 0.2863565617027664 12.065910117738447 1.5417062177264869 0.6220874087341868 0.1374069520279698
Ni 5.1433732631701226 0.6131997579641515 11.889842364185366 2.2618534441495886 -0.2470267066403423 -2.8085201127506148
Ni 5.037176376998114 3.846146736567415 7.01824308505301 -3.242200681370197 0.6121480381332878 -0.1581747807029405
Ni 7.695607484355407 8.40356197098321 0.9465094534307308 0.3037699249686575 0.06986972840794418 -1.1532716654288977
Ni 2.31796054842978 5.684309010636492 12.950066960615965 0.20943897819455543 -0.4833995331112642 -0.13680942765328696
Ni 3.986458444127722 8.45760727441795 1.8851441849611368 1.3949651327817845 0.5212094048701862 -2.2266946368602683
Ni 9.246119154245113 4.529352892903733 6.911657243502451 -2.1334342974425256 -0.5166294988089877 0.2566081796811903
Ni 8.354390213461082 9.020859220691795 7.985304977818079 -0.6135768001600143 -0.07792216639877547 0.9629994899707802
Ni 1.2550541093055543 7.194235646754867 11.19327433739835 1.0983755276116505 0.798840980880579 2.8477842004575598
Ni 0.2423498345535511 6.418710606416746 9.425110107051303 -1.8494438690936406 -1.8921486070510187 -2.5202701377944274
Ni 1.128304783799208 2.581986058613719 11.314004601629003 -1.224531589316149 0.2957725085854777 0.634320717575585
P 6.857329738552009 7.725155097002742 8.90883543019722 -2.1531384607396724 -0.9370686290376313 -0.15442996894852756
P 1.6566064436711636 2.3463106612243005 7.963308112304687 -1.846047698927898 -0.48413589705665644 0.9898222665905791
P 6.45077389704945 1.7872453229630059 10.074424232669614 0.48555437467073786 -1.982147244998354 0.1182712596397834
P 8.153767214864104 6.0393723584680625 0.429348255367781 0.3414705248432248 0.387620541036726 0.19142068724026387
P 6.6013525413323295 2.6952472656228688 0.10368492136447824 -0.5181875873247268 -0.31643363647925504 -1.0664671089388276
P 7.876587772188404 4.732315193538767 9.117063017006796 0.3849579066028983 -0.0922457821102992 -0.5056426607801807
P 3.2311516571185024 1.338906947836302 11.173125706153915 -0.799516666791365 0.22133701518372204 0.6646152547940682
P 4.356448766868783 6.058820127395541 12.068926146437512 0.7510631992756678 -0.18902416198362929 -0.6651148201383061
Ni 0.9762037366026731 4.306246602496561 9.02140041636171 0.0042461768708636554 -0.832823765583927 0.8889779441779916
Ni 7.2000282041824315 8.527173661216292 5.696056577022041 2.2691134681461116 0.2361519687093675 -0.9101728330880519
Ni 7.699719828811194 0.8146127351462044 3.385001611076821 0.3367435516812007 -0.1275231172553546 0.5881336774965613
Ni 3.8353785208366866 1.7710280187547456 2.265349459935037 -0.2257755105710499 0.7032350240487953 0.6914107777203576
Ni 2.899444197889099 3.647083272662472 3.851685869607523 -1.1140497438137975 -0.06801879124213446 -1.204220645672939
Ni 0.9419218222116568 0.774062048269877 9.492159887569816 0.8095511682092316 -0.5736809924063411 0.23366005552544916
Ni 0.14704926874768806 8.628942582816268 4.278098857894221 0.552516442513584 -0.44168029899560707 1.0401266712720862
Ni 4.992349037546661 7.289302282356926 4.516026297642497 1.902760321128594 -0.008355313943230771 1.4909199883125548
Ni 5.129235338551244 3.219111677978197 3.751987972946793 1.11012392639683 0.6283917536856596 0.9400973885616262
Ni 2.8890844317205704 5.637736477601094 10.214093560463915 -2.086349942360213 0.9994060536242725 3.547817429739606
Ni 5.309630800874727 9.03291776572129 6.563719483942354 -2.437586031230634 0.025742913292058894 0.4811143366215133
Ni 0.8964864498892009 3.0792826835368543 5.086741731371088 -0.852112695720526 0.11326789288792107 -0.38709115089581725
Ni 4.286362535173096 5.939766362958827 0.7077846087417049 0.38330108772576565 0.7612306267269728 1.2493874720175644
Ni 4.673294231800862 3.678348230059965 0.13719449476515272 -0.45033668911902436 -1.0512847447714346 0.9507728659976014
Ni 8.12818341955903 1.4121586636390397 11.511430554107308 0.007506849900006427 -0.22954809023960468 0.007688112672877082
Ni 7.761191487922299 3.013095288571258 4.300135640069373 -1.139947694626482 -0.46966392869272655 2.0668087870034926
Ni 0.5492913258967396 6.940514205071883 6.82262452188744 0.027017923349740566 1.200857385627661 0.2374480618129717
Ni 3.9599370714185063 5.357567926765658 4.998972418515518 -0.8927916614971271 -1.7265099138708655 2.496449381225746
Ni 2.23874918219676 0.8203616627341698 6.375369466395026 -0.22724078226266672 -0.7565771871153616 -0.22700346944088
Ni 3.427773706594841 7.989421963746163 13.061815975950516 0.4436806172550875 -0.0270559756765276 -0.5182888887892816
Ni 2.8981167368119483 2.979296087299205 6.427419865036202 0.3942601578404307 2.6995624172022734 -2.0905089588339094
Ni 5.073101372582526 0.050677451135509484 9.043831723682167 2.309065840169333 0.596191000583399 0.766005679518113
Ni 8.657664013394607 2.3616275198068015 9.031332238784387 -1.0982166334362828 1.0578474855906168 0.745455109060271
Ni 4.007595708971573 1.3107610598228814 4.925347528340043 -0.1988933414682252 1.654178868406622 0.20734815710379773
P 5.1753065925784885 5.4776520980524674 3.25734255700012 -0.0809720089686928 -2.2677052749446753 -0.6891343229813551
P 6.9403471120691655 3.6618338716246503 6.619369808497648 3.850964119301968 -0.4230541992539875 -0.884701942510457
P 1.6223059633909562 7.977214891603139 9.236841779416414 0.9248034385170332 0.5824679945703518 -0.8355864159307287
P 3.801161587057839 4.5494968826758715 8.90429792687896 2.8437725081950056 -1.7134625937686039 -2.585910401502056
P 4.431631335147375 6.8203000725607374 6.722396569090309 1.8838259461179363 -0.20966240705927117 0.13884445580544474
P 7.513132642442542 7.455643366562888 3.854239607665733 -0.5814063860750568 0.9214430066852324 0.09631378153208574
P 3.2909709520916164 8.82880437995642 4.1024794705651 -1.414058916188442 -0.48363273216799285 -1.2874534256513506
P 2.222698970991218 0.24450533428861582 0.9283910021693211 0.10181671362818594 1.0929690118840985 -1.393072286634446
Ni 1.9401354204501542 2.561777088229413 0.146222158384233 0.237762507729597 -0.1378538097574013 0.33235956368089214
Ni 6.776976570133748 3.334953543584884 2.092773950138766 0.18722336132946465 0.5906500161605118 0.208556318479286
Ni 6.443347541373085 5.079599433799346 12.93324719330346 -0.6224869581654505 2.1591031629635395 1.0260673649655425
Ni 9.028341274035732 4.1710683632975405 1.1800989731695508 0.4444907718612087 -0.2385757476595117 -0.14585456857469076
Ni 6.544522354518953 6.560999581175885 2.1269305447777436 0.19050357474263319 -0.004788936748211107 -0.7370339748761113
Ni 3.328966044320815 6.608416862169471 3.007337078038697 1.1073515058580155 -3.0556172676175763 0.9907864302760614
Ni 6.19285656440932 0.8515375038635469 1.7055303465725917 -0.6256008212040839 1.1606952115864786 -2.955438089592813
Ni 1.873539575922358 7.927022010175512 2.3308907619567893 -1.0882908896821388 1.1368004072467517 1.588732465877354
Ni 3.898632505310119 1.783541428069419 8.064500563045286 0.6476770842778329 -0.6671724739982833 -0.01416112199173045
Ni 5.76060553226654 3.5069572239940743 9.191951315941711 -0.03858145981762388 0.656812728030514 -0.7511866122274095
Ni 0.36999217932998035 0.13948181231347292 2.0219060945081413 -1.7206606541789398 2.666945145387884 -0.6125910392079772
Ni 5.319136536140473 9.16676854384316 3.476425619219622 2.2002053323204884 1.6652184140502353 1.6902884696449856
Ni 8.277833769382363 6.328721741508403 11.725770959932992 0.45188757854591205 -1.011658388629064 0.8220757830388036
Ni 9.042247125039724 7.078830079544168 2.4032940166235024 -2.0323431491264548 0.5309909097369823 -0.30931810848039626
Ni 8.433796521530606 4.937978831051079 3.3306963851934075 -1.053266551088154 -0.09093271972583049 -0.361453652833371
Ni 3.4803523047834997 3.5452865022287092 11.690854092131646 0.471892046692297 0.8788010036449898 2.2300321858739336
Ni 3.540700727598554 8.533560327097966 10.56340333923522 -2.2954420787383114 0.8779481687263911 1.4902517586009365
Ni 1.8588168257939661 1.4570231348688751 3.5860553383030296 -0.556449716129719 -0.7241319221024625 -0.01942931236920525
Ni 4.1288123994990285 1.0135954374331668 0.14091788384238985 -0.8111848471579126 0.7571726546075153 0.5792618289282281
Ni 8.481334480803934 1.9454638306479457 0.6692835960320541 0.7180268376459893 -1.298279312622261 0.023983507398790953
Ni 8.273424370699521 3.6899519108042846 12.486371810244998 1.4068251174441644 0.41135722253203344 -0.5859788359370877
Ni 8.420577608426678 8.20459133652422 10.237516286267168 0.11664092312521201 1.814271692067882 -0.10082683891109087
Ni 5.956874829848251 3.383856095713742 11.617269118617932 -0.26445004432311225 -2.2339785721161913 -0.7533226847338058
Ni 6.1694171293057956 7.484791812592618 11.19758162369064 -0.6991947925411507 2.620406635506713 1.0381654337806572
P 6.10192083915224 1.470418423920117 5.0825430555305635 1.6354231850656737 -0.4083981399037096 -0.15173005351886124
P 1.0202048939851311 4.751475191183787 11.528250321419815 -0.6610164816992163 0.08518219039529847 -0.6976030225739985
P 0.36527458688657 9.244392526550358 6.401930755766003 -0.7308985514023347 -1.4085400432527417 -1.6746867585519867
P 5.691234087304703 8.455713553720477 -0.001930852475854699 -0.8727247155439228 0.6017479258458863 0.3772505106563116
P 1.7937897989028018 4.988645142653073 5.935097970121772 0.12318335222942009 0.0603335067827348 -0.9051866927273701
P 8.567368811314614 8.63451234957354 12.274109855714238 -0.3492825646884759 -0.4230246315676327 1.8627575554834113
P 2.9641370387748265 4.194721306126761 1.4438265008319757 -0.6754249438150626 -0.3165539641072032 0.3774945083463176
P 9.310422111457832 2.6093428963365257 2.8314865453891493 -0.07182813768589566 -0.5558149107591975 -0.07560714511235365
