# total energy = -381163.7020980855 ev
CRYSTAL
PRIMVEC
9.32770028899300 0.00000000000000 0.00000000000000
0.00000000000000 9.32770028899300 0.00000000000000
0.00000000000000 0.00000000000000 13.65203223134074
PRIMCOORD
 96 1
Ni 1.6220590968134807 2.501847787886055 2.8425718895107077 0.7465298301816886 -1.4090861455641992 0.1450035334283051
Ni 6.001684884881917 -0.04768693494740702 7.290731089898031 -0.7359695381673389 1.347820613885498 1.8885665461267154
Ni 7.5394775373023775 1.736314097629299 8.440177999648443 0.5589277453565665 -1.9097755761041626 0.08343872534163049
Ni 7.550605483744803 4.472445733624662 12.036232190645066 0.06476788840500458 -0.06530653451729398 -0.31501670152707034
Ni 3.0783836149270303 8.124380311500817 8.893589115670663 0.8189200110186412 0.20124101576479536 -0.02598896786459395
Ni 4.022085708366328 0.7731068501197953 8.170960048424154 -0.21051164243344392 0.31573532486064976 -0.22901792876774751
Ni 4.2118391153053585 4.685620995984421 8.51149573050301 0.12703409343407798 2.1988699013385165 -0.04844369732368431
Ni 4.118944548146836 2.6842789500997686 2.1693218020436724 1.110603951357042 0.2343401123116093 0.2562443685838684
Ni 3.9882168286241253 8.659463838466236 5.840926634285116 -0.2041599891838032 0.3182292949270971 0.1489370641547564
Ni 3.389257210093133 6.21331174899403 10.318424250385231 -0.07266426043394582 1.6407623378904002 0.3070869051570324
Ni 9.172310127947377 -0.25267247645515617 7.428275492790504 -0.1336045475627441 0.7048854151680247 0.3878714807052675
Ni 1.7782141273186332 3.2425138291775926 5.200673286583445 -0.5598289170145971 -0.8874129136837169 1.550482164146904
Ni 6.538279499293834 -0.18798487496461008 12.309531943514958 1.0202983236922494 0.9008168457944488 0.18636178466011774
Ni 9.491587981072092 6.723257123685905 4.251802714415105 -2.362883657320737 1.3346161993800822 -0.4889526017190095
Ni 0.06569312758148779 2.8335781208939546 12.91042612708548 0.40652226303723543 -0.3077970438501796 -2.2209199391600207
Ni 3.18676216456202 4.079497703632991 10.741118316592239 -0.7515403960224024 -1.521285745088606 3.203505321682528
Ni 1.1860170914957366 6.091314756939979 1.8029278692291164 1.7915572811895015 -0.48288736936153603 1.7100805646702486
Ni 1.2672986717969073 0.6011973338298509 12.602245438992243 0.14802560808408055 0.7911626383997149 -0.3509938909526278
Ni 5.332580960192466 4.7424360184327154 10.461879616949595 2.440761343634822 0.9140215174101808 1.057645653992456
Ni 7.283926532538644 0.2004672034887123 1.516891141617286 -0.41181770710821974 -0.34526573021959894 0.43334683942924723
Ni 0.9144466942590596 4.577261101750007 3.6221978693611074 0.40710513212389887 0.06951723016453189 -0.42507148679433243
Ni 7.704596487783365 1.9332125229881938 11.722208631092034 0.13545497050792155 -0.4554038192292867 -0.24748410589273506
Ni 1.963201079410992 5.8143100415160776 5.324715843310443 0.7825342733007555 -1.041444361642245 1.5618384696999874
Ni 9.223108783710536 5.336843719223639 7.692415443978533 -0.36237539331669205 0.5247243600019802 -2.227072846135293
P 4.776295570474631 6.162634353334601 12.423212357993094 -0.7780525833803181 -2.8911034320704854 -3.0683326583017156
Ni 2.6272027520434382 1.5132887837664355 0.7539580142005534 -0.13631089075031363 0.2251450760759026 -0.8943366373867436
P 1.2269936788566547 1.7006636271322741 8.42778148596698 -0.5848902308585991 -0.08392286406690064 -0.11526666848550471
Ni 2.1241692032642514 0.35661197352354895 6.9928575106219615 -0.6071112470403287 -0.07196517748439218 -0.8094372683391866
P 0.3219008024454279 7.121419338138025 10.125520879059271 -0.11214817746118105 -1.046743148147339 0.04179353899701835
P 7.760870503615011 8.688472986358896 4.0858480019884 -0.02071769216332561 -0.2908269916547443 -0.6611447797469646
P 9.239544191616282 5.950848918317608 13.80971344283806 -0.6670236071252447 -0.8504908438463867 -2.4028175174011976
Ni 1.8677880331749726 4.240978851002037 7.332110633911349 0.09842208612434018 -0.0788567623979029 -0.0546750229453768
Ni 5.470043279322412 2.469256803083176 8.717955981426137 -1.0084241979624826 1.8240521684934132 -1.2599320803026302
Ni 2.75811702557189 5.784545349900169 -0.23284924780516217 0.6480259829768195 -1.86913723375751 0.5554963510775143
Ni 5.82027044199949 5.542967240166405 0.6624635348551148 -1.2101773774770062 0.9502023382061119 0.26514115685286593
Ni 3.90716844083013 6.502796927401976 6.978686868345908 0.39406449688985684 -0.44086191685936976 -0.4278040552341471
Ni 0.9708550289748386 5.509751299444294 11.78963577815688 -0.8184584980011905 0.2445533053991853 0.9974782404739402
Ni 1.81461081383862 8.482200222211537 10.854362194696941 -0.5768845869453033 -0.4838746729754699 -1.6733359009510471
Ni 5.566715565097181 2.2434145237336303 10.993585583641078 -1.4934291278876537 1.5008238776898282 1.4115965706908786
Ni 2.9111566041811745 1.2042993840583132 10.444733438281977 1.292517213327503 -1.4761798538889028 1.634460049821456
Ni 5.436995237205469 7.163375334029081 8.827185217327305 -0.016513938494623175 -0.37542554163243086 0.05681238100335377
Ni 1.653083027968139 6.877108212220161 7.628346269017017 -0.7409186546424982 0.15599114278806037 -0.021297218815879447
Ni 2.710564409508616 7.840286543858776 12.720021646666414 0.6224069968571345 1.3755260502205664 0.3444586609372713
Ni 5.863224501821258 0.39979176369226355 9.887962075379189 0.8428628949874839 -2.01060395767715 -0.8224007704783901
Ni 5.9140791237861405 7.634125712114861 1.780211187950086 1.4315565587525734 0.26454980312577014 2.869858149538464
Ni 6.131041432462435 3.5226713072985083 3.462633564401046 -0.16198644113954683 1.0517100052343111 0.7054783115570172
Ni 4.632751590757541 0.25978671346407317 1.224792341588916 0.38649002697670853 1.4444051325804674 0.7485797707321818
Ni 3.3911227501505383 7.612914521662157 1.4107325846506091 -2.5298804071906815 0.8629833198864427 0.7055191920972816
Ni 8.642039694330066 9.445042756639818 10.346425073876865 -0.260872354274183 0.030535449584695798 -1.4870003415431747
Ni 8.694610613147761 4.5380008112419015 5.399624738775516 -0.49209140445830735 0.18084188328315307 0.31934335392688223
Ni 1.3538970412616842 4.981700858495296 9.566088323264593 0.01649825476533933 0.8553985655606494 -0.45587510243875035
Ni 4.447055733443369 0.8869103902417212 12.578300299585411 -1.222843660090765 0.24091905108070766 0.14184441897403313
Ni 7.074538316495417 6.852492411162692 12.976693841004648 1.6120737117064559 -0.4049536329985349 0.8267508199169697
Ni 4.430834862644225 8.259575999461015 10.99978384048181 0.28034743227965914 -0.09692287587099437 0.4788430240888334
Ni 9.09682104952445 3.421027357270753 8.805615843183578 -0.7505435793267718 0.13089203372758745 -0.24666469531523327
Ni 4.4432220486254 8.831960999874262 3.491248150571565 -0.6833552544057327 -2.4438271270443397 -0.7261052437787494
P 2.279811210253617 0.23280540761381313 2.3909759439643428 0.45904372997471904 -0.9644642474417648 1.2078389591518166
Ni 2.300332150885081 7.552424385300774 3.7277697139797303 0.655639019437387 1.0108916856663686 -1.0485118100119877
P 8.674154966418305 0.6295973828937682 13.602857697422762 -0.3166645215431385 0.2691739321613429 -0.6265783546260048
Ni 4.867175354371154 3.775386691174985 12.857770326195173 -0.37213504380661716 0.01227264671976596 -0.1419428922251104
P 2.903703771651838 4.508609227637472 2.2653905856098704 -0.9258077114118314 0.12102696800804963 -0.38310671232677246
P 7.160101311228334 3.3267522904697513 9.933123069088868 0.45593449492177607 1.2225664951699782 0.5684991910950855
P 1.495137079007877 7.944579560768046 5.706085398935825 -0.3953215092254095 0.749622095953767 0.7257910549724403
Ni 8.988013425676257 8.031448433541147 12.083823050279516 -0.0014346755639975293 -0.6441983817006132 0.8193630120933307
Ni 3.947939818784734 3.5131010868040167 6.684730923190389 1.2163660227862212 -1.489852723390305 -1.7359180945586423
Ni 5.009469422249782 7.752624816561277 13.558733943984999 -0.5536618689719368 2.3249786547448474 -2.597333298627017
Ni 6.345364001957499 7.814616712668872 5.779478543104255 -0.8795499659958722 -0.7743972460159179 -2.9799013648415
Ni 0.6279482454830214 1.2844336572241792 4.82692166378248 -0.07906219354048964 -1.2632287487760308 -0.08019270760050705
Ni 3.036977953352909 2.859770303299932 9.003692357088724 -0.7973427990684978 -0.7236138448154634 -2.669539902698254
Ni 8.108849690522915 7.122977064085959 6.689250193979455 1.5438266065035993 -1.3719864124984242 0.43916576010386954
Ni 7.974875931300317 5.649666803749729 9.459793581873726 0.05475832668780247 -0.1499631914264256 1.9607950045748228
Ni 8.3594010479328 2.5859370059736215 3.513172910096227 -0.10345270656971216 -0.00926522735200985 1.603346102025471
Ni 7.6281280008303005 0.7669496351603274 5.734222406851647 -0.6408078679618255 -0.7679088100780967 -1.0026808677208021
Ni 6.2116141075417906 1.9732749957209832 0.5220536624344674 -0.23174046990523314 0.6052104304731899 -0.7647725784419603
Ni -0.4768152488124055 2.3613259830619633 6.6920895459468275 2.917490406704446 0.9333585271758957 -0.2238376701183887
Ni 3.7076116208894323 1.4781606644854846 4.3622613412141025 -2.183951075245155 1.305058026106991 1.0259992307317685
Ni 7.1332188790011175 5.896888172157145 3.23510856791972 -0.9596015200328246 0.05211394708641992 1.1594957919617386
Ni 6.771136209259225 3.053805124670709 6.1506230736749945 -1.0219417728329432 -0.07896217762751562 -0.40030739247577507
Ni 0.9612381699789118 2.5216878063965655 10.461811524737499 0.18335565084394229 -0.393073079510865 1.6987584547892098
Ni 6.664791098286808 4.822439703794563 7.753890585490226 -0.5774746551208184 -0.12697033007567812 0.050896529739551055
Ni 5.801876217033469 1.2578217283052855 3.6401229110026914 2.5543154003045943 -0.1105180980569258 -0.17048393708759674
Ni 1.4265318433967789 3.718366459320377 0.7248378666744777 2.27204632552219 2.0231098034536448 0.10086232013471662
Ni 5.687975668828557 5.160205058888169 5.503338505496962 1.1792076685683692 -1.6951056885279707 0.4059545634592234
Ni 4.424258833941869 6.0994578392905545 2.6621601744091365 0.21027047295691528 -1.2382481675712933 1.4520405376385381
Ni 8.635995344544071 4.582130161299835 1.9640088582558488 -1.0475620445042086 1.5005225443993255 -0.5947601816741435
Ni 3.6003897060900343 4.192708002016662 4.285959820096177 1.1308436754426845 0.3328277615665623 -0.36071034690944326
Ni 0.8431187029341776 7.936716309426081 0.5518659253218408 0.6824129450971215 2.091451268142521 -0.38594032512082566
Ni -0.02444790245230299 9.362306055093871 2.6087945355269864 1.314666752841349 0.06409271671485091 0.5736784213031797
P 4.718016099081273 6.734030617517424 4.818266490686146 -1.9362206576695684 1.886054835448455 -1.1367032195472553
Ni 8.232488357827483 7.136362313997846 1.6101616150973754 -0.38399579979994514 0.5295693467991073 0.7267454484659097
P 6.565077982218467 3.878010049732878 1.4082075761829107 1.0509322465280224 -2.2079194131352944 0.8392484381633483
Ni 9.0119296492122 2.5193838644256696 1.4095862102853336 -1.6212402086970723 -3.5213913743375933 -0.16815528895442008
P 7.376606562590564 8.190746899043027 8.546936327743575 0.6117502884742367 0.2718702480465834 0.8187312920466029
P 5.140234452573641 1.58291073870882 6.033952198484836 -0.37072453661233573 -0.010099807438163251 -0.09384269428377387
P 2.5836890302044475 2.610133060518175 12.400563768926158 -0.3238183589791004 -0.157367968530929 -0.34713132267342794
Ni 6.984647268829319 7.287349798543985 10.81561772601471 -0.2756662247539059 0.8988514945379616 -1.5833349490108668
