# total energy = -381181.7957028778 ev
CRYSTAL
PRIMVEC
9.11415568390962 0.00000000000000 0.00000000000000

0.00000000000000 9.11415568390962 0.00000000000000

0.00000000000000 0.00000000000000 13.33948811638456

PRIMCOORD
 96 1
Ni 2.1601733581873264 7.721257417113297 7.368999860746089 -0.20937135818141359 -0.1812054372701589 1.0940946408481094
Ni 7.715652211427173 7.448826192456517 0.31079908543218543 0.2764892348758335 -0.6836018231989002 -0.26122562384854364
Ni 4.39772589730992 0.8277093309753837 11.079845624967252 -0.591066277762324 -0.5804386228451487 0.5127964982161427
Ni 6.357360490112243 6.221732740819227 7.348523998803902 -0.11355097134597864 -0.6418157404010495 0.09906306214244874
Ni 6.624122709993789 8.614225924924098 3.4523263866526746 -0.22547212039801814 1.098349045249089 -0.2849633337851157
Ni 5.3069176020659246 3.4885433067095026 10.594621652738487 -0.46541466649806945 -1.7115185826683554 0.6456081175639462
Ni 0.9786233420192394 3.922623194860734 6.702759644400089 0.14924611075474295 1.3091599640905067 0.7115535712168197
Ni 4.666493231420649 1.202011295461335 2.77816141202361 -0.28261103150285516 -1.3261130470050773 -1.262672876272561
Ni 1.9099168740741868 6.268278733403021 12.764382191187984 -0.4824703364287756 -0.6102204820932716 -0.4996612463857653
Ni 5.444896803500437 2.04347571004891 12.610644614743215 1.0692539276553457 1.0981114753169863 0.362057347855641
Ni 7.623644810774462 9.44053349877017 7.9599926971486665 -0.8612254566550717 -0.5909968579769692 -2.2987351476672866
Ni 4.447735269016847 3.365693603549731 3.3869760682613843 -1.0358342145443193 0.9982444292160033 1.2926843350329866
Ni 2.408998919873277 0.49828638001632847 2.31390728896986 -0.6811865288891882 -1.3034629137057294 -0.5776608029896955
Ni 8.906635378628005 7.443731379483276 4.258138047414269 1.2551783676677286 0.17237266946987734 -1.283379255581977
Ni 3.41926661009125 7.869863723962476 12.161303984476787 0.6676614978195597 1.4182084195804414 -0.4347915422955738
Ni 1.388085895929463 9.395236145501823 10.848645017355814 0.6335352455598121 -1.419363102010175 0.16924980757017946
Ni 3.9573207851811767 2.7085447574019557 6.07030742564693 -0.3598855370153028 -0.24509169440115855 -1.0444785204828786
Ni 8.549342251298873 7.480443198188489 11.107911755682453 1.9733126774258594 0.519407575774757 0.7055130214496946
Ni 1.2232108213571453 4.911372363737345 10.943996401693468 -0.7835503732700958 -0.7116808408233034 -0.40897818077689563
Ni 5.052268094959758 3.6753196971578443 7.877114034732087 0.358428235743486 0.4848120971880747 1.4176142376398684
Ni 1.8141908979419008 1.573021226949192 6.268705275884502 0.5043635369574411 0.957342291685003 -1.7249507969138616
Ni 2.6534679151885494 2.093585337467296 9.821558064417237 0.39572851485584104 -0.5214048087104439 1.1211038224471015
Ni 3.314745473817323 4.326416743995724 9.663098443962744 -0.16257908041822325 0.8708429251401777 -1.1073821019856347
Ni 4.240825708876396 0.36593425824134956 0.30707504145925846 -1.0978407381541029 -0.1081323714335686 1.1961514955115593
P 2.648847038305843 3.0133403485488572 7.99106011929873 -0.19967675660146902 0.6711417430586764 -2.168698262851142
Ni 1.57552761973567 6.0757421966235725 5.657716893539182 0.19190071220047594 0.18760208482512206 -0.9285076268414976
P 1.8604178950801427 6.862412307820946 3.3907912537901836 0.053873610090004 0.7123231023929926 -0.25848019989292254
Ni 7.234652650313073 1.5255729329622665 1.6947152551805078 0.1452922683133175 -0.3198722298471588 0.2354444011193816
P 6.023827966398923 8.689135169695236 1.2415612622163994 0.4954680342400241 -0.437639296157014 0.9530554913841908
P 7.792010606936675 0.889360213613832 5.580828054174506 0.4261680622926209 -0.07019934383322103 -1.6546635213525245
P 2.9008352119805494 1.3565691459089504 4.303412615293649 0.7217809053717827 0.5354031798720651 0.07690246688500949
Ni 1.008381060011424 3.9996469237281 -0.12523396626138136 -0.9439113629910775 0.6930472848825161 0.8619386806720123
Ni 2.709984793984732 5.2108544021769125 2.419836562282008 0.6150826952815794 -1.967323806832276 -0.5548188653945154
Ni 1.7384066942343925 2.725232776282106 2.8827837154245555 -0.6155280103491141 1.3089776728763716 -1.1866445844623885
Ni 8.209630330097436 5.413589679058429 5.386898874421335 -0.924069388564486 -0.1946556492377938 0.9342779536663717
Ni 5.940314958753476 4.421805496371283 12.729859592654815 -0.5863027949354096 0.5968456034482624 0.2966202012977537
Ni 7.057929173477405 2.8433157760697756 8.951489783934816 0.4917962418153917 0.27366667782537385 -0.7305877050301354
Ni 4.139394271346528 7.973054193520672 3.1877907549810796 0.20474311538078285 -0.9275874290200734 -0.03732496170270346
Ni 5.049707017239756 6.758219281148157 0.21053881689527107 1.3268494109504698 0.4423984081085542 -0.5013031528645625
Ni 0.3160962326594619 3.2804215638759553 9.051189531903118 0.7286130978022678 0.5464815491734137 0.5016744201610521
Ni 4.208525141475384 5.549554652108172 4.331651914965007 0.047484932954840804 0.6662376208888398 1.3598016975067742
Ni 0.6440928182691213 1.0632482766463245 4.027644698276398 -1.1238423044241872 -1.5227049940336355 0.5101004394412183
Ni 6.249558257826927 1.9402032130904285 4.182929858339871 1.8894564049308362 0.7426814029698757 0.4205586865256435
Ni 6.073308717081792 1.8359099307061812 6.547114475190921 0.23121930729444048 -0.3643556569715144 1.200463749733668
Ni 5.527060916118979 3.1305301610889824 1.4238434625446967 0.5875405239972527 0.6890114242502456 -0.5018523404998131
Ni 1.5182633801813379 5.627006746288136 8.641294055602502 1.1937341443193181 -0.48677333467950357 -1.112117045567459
Ni 7.68215768964424 2.8060206514069828 12.937328761948319 0.46344263037336314 -0.4140558524101192 0.5353774688404521
Ni 8.32958173178048 0.5244868430828316 10.01946283883754 0.3851180863298464 0.9406139231867284 1.270147330272735
Ni 3.035077609624312 7.190758877005153 1.1913340621909387 -0.8260365674587644 1.0317119648458297 0.7740084952179315
Ni 1.349651501818271 0.8635534820686955 8.314142352215775 -0.9466279905912921 -0.817234138675786 1.206015789900149
Ni 6.1495486285686605 8.757035628819823 12.333437572558745 -1.3149917402809355 -0.5551389677380956 -1.042084052108773
Ni 0.6632343678333438 6.268233162625085 1.328850264521621 -0.9163910460836217 0.9149905661916694 0.4344948369907614
Ni 0.5521555966144316 1.8745539503958786 0.6791750259553438 0.3231025638589984 -0.9092608627967437 0.8614344873420842
Ni 3.9734710688816826 6.611189723215563 8.600928371922384 0.5803182952172006 -0.3142553978810136 0.7478549767510152
Ni 7.528082889442745 6.6393251215132265 2.5332886596158253 -0.24787259958040536 -0.6862215202099343 0.0474417384217312
Ni 8.49987061477159 5.819415684889363 9.390319058562534 -1.259642316976353 -0.9691865926180986 0.17528110136592395
P 6.588386105936407 1.5565975185810708 10.618312077356277 -1.2707078307618953 0.08084833890663495 1.4907271555754584
Ni 3.281096011389407 8.886210555957106 9.415077662215143 -0.005536099326880788 -1.0494651750641926 -0.5624339587376119
P 7.788665711836175 4.467066393017283 7.507970682308486 0.5872875274461822 0.08403187884093916 -0.03371796107773548
Ni 2.2912531438423334 8.339142480991445 4.908251676864289 1.9144858370956384 0.13276122572584234 -1.0764031371056173
P 0.5532976003095067 8.040325775909743 9.0760812022273 -0.0024690303657828446 -0.8875700080868714 0.02077039977813197
P 2.3433678854899016 1.2423232056234887 12.60209462538687 0.25389900828014333 0.2862054337223329 0.5424734564552851
P 3.9413254421256534 4.747581873679903 0.2772571700401985 -0.43156609337974067 -0.6260085981654638 1.512866410676659
Ni 0.39228510487504137 5.125354508613458 3.360297112026554 -0.1758552287018391 -0.848503895323345 0.2940431845991968
Ni 6.623120152879198 6.459903854623749 11.627978233305496 -0.7343865099509352 -0.48890735030337085 -0.228363068792568
Ni 3.723980173837867 0.4958100639432882 7.164531982887447 -0.15699284457969737 -0.3624525264115306 0.1308318699136134
Ni 1.1884312036364177 8.583903129285508 13.177866821958835 0.058380753931738166 -0.2755590097520802 0.7575503496619082
Ni 2.820165820878306 3.3011198112144697 11.916965321586412 1.191200065043555 -0.26232862710473537 0.2931201585642952
Ni 0.48286978584059187 -0.5017725445284297 6.071241626594618 -2.112442011461575 2.223611112838938 1.2120095455897384
Ni 7.811779210405295 4.1596732675280315 11.12134419818686 0.5513319352871795 0.7722025523574443 -0.6623884223460786
Ni 3.835984031848879 5.4778535901037255 11.61441181271396 1.0869513449351087 0.44887296008930433 -0.8356332100082642
Ni 3.4696861187996 4.990820457990904 6.768509162806097 -1.0147897351691941 -0.8567872183780599 0.2837754841246016
Ni 3.221744630205608 2.524092476628348 1.1000831364519643 -0.05031134666004238 0.7411305135429881 -1.067175190749446
Ni 8.1409825102147 0.4519372531932182 12.650623858226437 1.5075226298662423 1.1228853398275565 -0.22811881399224587
Ni 5.206233525294206 5.657621194905517 2.281625861295582 0.17124009852733088 -0.5448270442891263 -0.7578041175439271
Ni 6.79950640595814 7.775860323236169 9.326369585884995 -1.1663498387690947 -0.6478861149648455 0.4287885306346034
Ni 4.138965906033929 7.078818818083251 6.287687327725949 1.0338508655657033 1.4748179405443698 -0.9652448343615312
Ni 0.6163502400772652 2.336158588420432 11.337631313010972 -0.8332839930497972 1.0204083669075523 0.6449167479238764
Ni 8.779529364809013 2.0738349623098493 7.030457285706489 -1.1064876151958234 0.7538405049104888 0.06861605850650118
Ni 2.2784477552423272 3.8404864247089523 4.750285132227064 0.5626913261640567 0.6206565898249311 0.227281405692615
Ni 5.9063282725688335 4.251662439869568 5.669148778892198 0.006756601997543203 -0.03588720081491239 0.4187013216019305
Ni 5.09005538402426 1.2773033347671345 8.923250484263457 1.1039941593500084 0.3838073379382229 -0.5920533242659417
Ni 6.0250857198699554 5.321955958784793 9.637259812873051 -0.12421487881772801 0.7113234574838846 -0.9028449319680709
Ni 8.820041786394086 3.1425517323084895 4.675410521247158 -0.5452713309153964 -0.2521619709843786 -0.08947284735085236
Ni 7.196400539313625 7.825486900408434 5.822886355336966 -0.3054851078875513 1.5012545374693436 1.3783784320676973
Ni 4.717632758420387 0.21379439327101632 5.101246655669773 0.34631319764750673 0.20468706533186684 -0.2883708168047679
Ni 7.609563440392249 4.697672757684435 1.174199449687016 0.654369408696344 0.167237405125841 -0.6407045096147417
Ni 9.006426268152179 6.780758587915285 7.3031828975887345 -0.7928073730919895 -0.25034574371124624 0.218243720970379
P 4.838477347350977 7.356034974423308 10.513463742896771 -0.13964998242587562 0.008970578929726487 0.32493910284710487
Ni 2.147285942187036 7.074562507424032 10.445072942201595 -0.6998367970005238 -0.5347478056762532 -0.8453972313735634
P 8.83373124808605 5.7396759376570134 12.611458508837151 -0.45193565817502807 -0.30636853893376914 -0.28846491918047096
Ni 6.839371722496521 4.313328816572515 3.4988805819764965 0.2867070559490998 -0.07667980935124213 -0.45528554848386754
P 8.676402694339927 3.2085382187597653 2.377603388122074 0.1772978746856366 -0.5193862356185184 0.2392306076346912
P 6.323373803927601 6.632735587023687 4.391439864201433 -1.3463761681294877 -2.1460980089531234 -1.0572232217430566
P 5.555670250507178 8.471434449339549 7.461843029466146 0.2963301808611606 -0.1335886067231441 0.11916317532643349
Ni 8.794093785437349 8.781024086325314 1.986716394714108 0.546914265835458 0.07753238715952454 0.10624980969887508
