# total energy = -340887.6622307046 ev
CRYSTAL
PRIMVEC
9.12010616250777 0.00000000000000 0.00000000000000
0.00000000000000 9.12010616250777 0.00000000000000
0.00000000000000 0.00000000000000 13.34819724329038
PRIMCOORD
 96 1
Ni 5.369882041244812 3.0448021704662187 9.40132192308029 -0.11925470659897526 -0.16613594453154612 -0.4755764375224196
Ni 4.680511454940535 0.42328601629608675 6.189892676584081 -0.7700381977162738 0.564657448751492 -0.6036970791524571
Ni 2.755029036653368 1.4604208436005242 4.920599162268665 -0.3588205860858982 1.863126765897372 1.0392614950583134
Ni 3.9569404704428806 3.0989482408859748 2.826160392831883 -1.7460179019968058 -1.4506603694615596 -0.47018252020035795
Ni 5.459769807803193 3.241696142892041 0.3812441508049314 -0.4048132507659286 0.5139002728032827 0.6820475913379028
Ni 5.419841982925698 4.703019877004871 3.185907541348385 0.44054181451578966 0.6518155319262388 -1.3530260693458376
Ni 4.865768171874424 4.624696405088943 11.36404082290979 0.4921047741947461 0.9051018463230477 1.1639134614134599
Ni 5.824227491164197 8.283728607002041 12.766256236827658 1.0329718053948596 0.06429711941617314 -0.347757129182885
Ni 2.2913081175759054 5.627561521392997 11.560753305222532 -0.4672694603186211 -1.401753873568844 0.5142717972100885
Ni 1.147446159653286 7.693785418325552 11.701202940470004 -0.4958860956140491 1.4533070630557874 -0.27362811127795456
Ni 7.656994909975663 -0.04505879661712056 7.052800643374648 2.338504457145424 -0.9792100382923717 0.7277234961084628
Ni 8.655090210745014 2.8109535277791795 1.7890857582282658 0.8741509064674879 0.5976112779696934 -0.362121368324357
Ni 1.3382752614661486 1.2329653953491 2.7638645955252996 0.3317363282745965 1.2554683881043216 0.35376374038828107
Ni 1.6370590601896815 6.807384058002681 0.5426846224475702 2.535382053735201 0.9359779670766138 -0.015990461890985366
Ni 7.4215046481753415 4.152110742799756 4.430026826561618 0.8586109018503599 0.31154314115617315 0.8149815951961836
Ni 7.6372772404039075 4.266923759561472 12.762905509815326 0.4950114063185797 -0.24110674161148155 0.4448337570229242
Ni 6.9841590761846115 0.9232648295222409 9.560099323716939 0.4988775741422054 -0.8805316131828511 -0.3215434469019946
Ni 6.910495978529168 1.2844301545504946 0.8589334245151881 0.6978128245919595 -0.7237930507058051 -2.1752463483823057
Ni 1.9784702352214403 6.797534343322988 9.361304721162185 -0.5364583606094568 -0.2130755465058782 0.6085644345470873
Ni 0.02201776035158735 5.615595942078407 1.5177033185372673 -1.5725815671491046 -1.9752440901206174 0.2671031656752432
Ni 6.554547354238678 1.9240961621470623 7.3996528737563185 -0.5976395601044675 0.9897914133526436 -0.4979779451460714
Ni 3.2804748343902386 4.428395239565139 0.3390417714449217 0.4169876813449334 0.22171136780400524 -0.38093284460390525
Ni 5.680211894398429 6.091355401319939 4.9716298044156595 1.2473737840216452 -0.4816146732966996 0.3828534586653858
Ni 6.419788665250584 2.4973039559742585 11.602012665603024 -0.04460298342135544 -1.4843639323615918 0.2617570708719815
P 0.13228987624384062 5.98053699106721 12.518927165188718 -0.4967695266602671 -1.0414772717627094 0.7350074313643858
P 3.998391353053255 6.332719011503337 12.869210379517147 0.46934819722452065 -0.31159070656465687 -1.8705359138772495
P 2.258557816265927 8.883056384942792 1.4852539807313903 0.22311853256417705 -0.9872575911871965 -0.15343906579016803
P 6.276530037298164 7.927953264729064 5.880708308767287 -0.271503608735784 -1.0700607398273572 0.3167015454286611
P 4.9142688965657255 1.2554008565639556 12.84089883388736 -0.1554095592529775 0.4692443246568048 -0.2907272328520864
P 4.07689722709288 6.587726300539346 8.402690360067268 0.3244963588827315 -0.6311441196198162 -0.15836838477098533
P 4.708701703158063 1.1693435346032324 3.821361883908765 -0.3196115199866044 -0.1327689390353262 -0.08592343943669718
P 0.3038801140596554 5.792589842808775 3.965015412458992 -0.5830475212229056 -0.4018240862306176 -0.15190206032035128
Ni 0.4453493771785986 0.06814816944543375 4.904087210020903 0.3773163308972405 0.5351342424813945 -0.29064984264693167
Ni 1.8301864287611394 6.751669329319122 5.279358603285342 0.13596302049259165 -0.9135106392120331 -1.7169047866809337
Ni 8.421943816234212 7.724182732239827 9.43273065677047 -1.2256117097542054 0.08596791952138742 0.08132347877084059
Ni 8.584993074607867 2.521773200868347 10.312857384038132 0.5918484073439871 0.6702860799266004 -0.03516394949564266
Ni 3.560416493735767 4.375252380825723 5.053640535262142 -0.9517257168291738 0.3536500976285522 -1.2869554029690093
Ni 1.1896357708646366 1.049395898059418 7.10862207730057 1.0692176751007716 0.8725449954329488 0.5534957757077177
Ni 1.2794596966797238 1.4837227149029455 11.715432130139686 1.3361079534342601 -0.9738117500949358 -1.245553442983455
Ni 4.218550716356758 6.675616763843235 1.5361505573174659 0.028811267804737476 1.1362594471416172 1.4112019063556211
Ni 5.5656451205037065 8.259678886992457 7.985879619162461 0.265017229680492 -0.3612564492209004 1.5216225596027342
Ni 6.768450324699339 0.6320680471339268 4.893516094941984 0.9397690586879298 1.037147019818472 -0.9084188265114227
Ni 0.9042111036807462 7.508273338418487 7.358647964338386 -1.2039560791576425 0.4039347048157172 -0.3061672215562405
Ni 4.709175948679678 4.954078160062818 6.909934179988178 1.8838675979891493 0.03824310264159865 1.5545969576462257
Ni 0.9106772589658408 9.262927047756278 9.418181351373699 0.1892347353325386 0.9182676942810443 0.4184390690794794
Ni 4.963718112300258 0.47584427622905123 10.493845891277486 -1.5419818399853766 -0.7422972801575797 1.1985752744617033
Ni 8.371436668182232 7.306618670564146 5.374491342910661 -0.4882406632536494 -1.0944335122447668 -0.3799599391676747
Ni 7.104736000055184 6.102728173732511 7.184653666532232 0.14655647973772182 0.6130600084245957 -0.40298211109446086
Ni 2.3404290094877807 5.419832862819514 2.614284821976124 -0.5869062328473634 -0.22852581962267743 0.2176521101329671
Ni 3.438407713194165 4.563062727491384 9.426229845081874 1.1279558123719284 0.03291397711920138 0.2847987831827934
Ni 1.1107742126837998 3.6040562018305167 3.749562023946897 -0.3563117036211154 -0.1408774270750735 0.536144943134096
Ni 0.4925267744624716 0.7263197845017834 0.5507130519221383 -0.562633733453244 0.1321595875861014 -0.006232096952640879
Ni 2.5180795578634623 5.241142622338753 7.474790692581861 -1.6181093763775742 0.9931143070782896 -1.4397727760147783
Ni 5.431962604045431 2.7280973630893564 5.069071754926994 -0.1697102921463658 0.9613316153500542 1.080093698583327
Ni 3.964646960169122 7.101589563421393 6.262052780740253 -0.18275889780020785 1.2841310461463369 -0.21885204397833924
Ni 0.6601087256100225 7.695262875527506 2.7202823440995147 1.3359421172803574 -0.6641396007092304 0.3910092550033008
P 0.08103852752717244 5.9992970494895514 8.633413542364742 0.1995476872227725 -1.6069271345085099 -2.390624060658799
P 8.6637360714083 1.5426294807512193 8.333960327847237 -0.5071274728558235 1.0243688942171971 -0.30952096851982175
P 1.9228467075997309 3.650833226452873 10.533969798437958 -1.1256551892632098 -0.6773170186314529 1.5558637401737916
P 3.9225211897010652 6.373102841690077 3.715497515335674 -0.3943434615828564 -0.0717098669404765 1.1761110319209165
P 6.86847964933533 4.256462997767391 10.476332551370623 0.0318888782887967 0.5450198770262227 -0.09409671927610891
P 6.693866096319221 8.097286276264116 10.618050793388411 -1.568727740620653 0.6815495686555617 -0.3161245898792685
P 2.2674955203271296 8.678319121197957 6.08237300873843 1.5430524473417362 0.30756744433787675 -1.0691901642969457
P 7.0570469648143375 4.41687654545361 1.6545486878204656 -0.08032794762679069 -0.4915406741611598 0.6221519434235351
Ni 2.785918836301627 1.7830628401037572 0.44953915395994204 0.7915637304928755 -0.7959849994890227 -0.20397461264587452
Ni 1.0957716380096383 3.598447336526803 8.595078088027131 0.6787840900952826 -0.9604695244600748 -0.9751826623005334
Ni 8.33851308485474 9.113557948659974 11.756198092775573 -0.7821689195415368 1.088217613242042 -0.6506719052400988
Ni 3.0325356276475275 1.83106195895489 9.483013450210303 -1.7625405822421774 -0.42481026271314587 0.19580313257867568
Ni 6.474199218749702 2.436600529207559 2.856073429107739 -0.005184115304100749 -0.04141198728788352 0.4772250288694362
Ni 3.980324422700966 6.970278274571192 10.536612805210343 1.5354633221405685 1.1048199976854134 1.3088992542299522
Ni 7.15834398421003 6.311861328658469 11.610542700917762 0.1290585800632745 0.1304310349307689 0.4255314571498865
Ni 8.01507763911342 4.188326684459997 8.356211562917158 -1.6091740215611576 -0.9513523926501551 0.17937686870185235
Ni 3.5242461526064504 8.54978946473415 13.071555439409684 -1.2499279179020666 -0.3099750253381049 -0.7985003097117087
Ni -0.20421376964982327 5.0443216107624105 10.493792082650996 1.395025553706075 -0.37806477902749086 1.1243048458829024
Ni 8.747540727141352 2.352814113686876 5.962746399932324 -0.44384465363677755 1.241554349126391 0.1939424252208531
Ni 3.5126636177516266 2.597999048361747 11.593496310447565 0.8451488628081831 0.5685549840336853 1.028411439717687
Ni 0.9181849303772511 3.580790810952835 12.87294779903172 0.9188996714380885 1.0470131139792742 0.05073275046817714
Ni 3.036712636280212 8.68621713315408 8.211637815652875 0.6844168629010278 0.07239712281548821 -0.03680585597443983
Ni 5.3924907844771806 8.129680893432884 3.640974391666995 -0.06122902201381068 -0.05520981240292427 -0.38419788850842224
Ni 2.972041963323081 8.692190802705191 3.6538291813346127 0.03320399755579443 -1.4475120536405652 -0.7006153270377612
Ni 3.6924938715054996 2.835942618725807 7.294069404453723 0.3652714839175645 -0.020585794571151644 -0.24970862434787958
Ni 6.125373397389619 6.053853524687628 9.410345356139631 -0.6207036410127826 0.36019226962244416 -0.4348478494548059
Ni 8.148915197376839 0.11873375041060415 2.6900756404045048 -0.9527752411396108 -0.20508404365996935 -0.5767028099518003
Ni 4.730380195559572 0.6412428739559369 1.6415342962946124 -0.7091380197967916 -0.5503482312176715 0.6886098179364527
Ni 6.359614204642609 6.131912513524193 0.5362877799694808 0.07461187107861988 0.32599608335670954 0.41150634651538803
Ni 8.511311736740055 7.8095834065552365 0.30765583802020435 -1.2672167868895015 -0.986342792682411 0.8240727588641744
Ni 9.40893994777654 4.989263529724165 6.310547121357224 -0.2975949065061972 0.020367765023074597 -0.26259242228908325
Ni 7.458203955463381 6.662866855396744 3.0610350474647237 -0.3468323033757704 -0.533763587386113 -0.3193652083037532
P 8.526998319378084 1.7977553311676324 3.8887038359674535 0.026446624227302835 1.6263641601871992 0.05711731383828227
P 1.953627065973771 3.308300278360371 1.5488712814241654 -1.6226538012151472 0.8903285446686151 2.4967291172496937
P 4.627696920023775 1.2000965326587176 8.315139164713457 1.7146077631166405 -0.8587345719124178 -0.16256493935083616
P 8.4896606046571 2.11770689634632 12.53080701550517 -1.276308978998757 -0.6500553547020225 1.0001581012989484
P 6.436432859038027 8.288598743704778 1.6688316861166388 0.6604400403704561 -1.0647696666317468 -0.5783943387216103
P 1.9407038755097665 3.456027758343393 6.302992025393653 -1.563749056459139 -0.8129159709164063 -1.2683802110699833
P 6.578888917646178 3.963014461162025 6.706174591626363 0.782639174309736 0.5171856284227738 -1.4847146308327914
P 2.629016529496595 8.76539789505139 10.601258853880774 0.9601874744432818 1.1697226118960695 0.11467891430283476
