# total energy = -381165.7555231266 ev
CRYSTAL
PRIMVEC
9.25628479681893 0.00000000000000 0.00000000000000

0.00000000000000 9.25628479681893 0.00000000000000

0.00000000000000 0.00000000000000 13.54750843974543

PRIMCOORD
 96 1
Ni 6.1251334710675405 8.296111728623378 9.855269934792576 -0.6123151598387713 -0.020221212142881303 0.6592917856986259
Ni 3.2707081802642413 1.2429061336390026 6.594602046485693 1.152216998912138 -1.3551852817806855 1.4528897730127106
Ni 4.339040785447651 1.49399211099247 2.37219600136983 0.37111997227854154 0.9723624192429189 0.6810728861294593
Ni 1.5337385972696873 4.662705290723722 12.808302425947806 -0.5451651443548353 1.053056749070193 0.8108297778113391
Ni 6.822279805593596 1.6372238596309556 1.7048456471247166 0.6425839860256417 1.0740464639479825 -1.419997393160064
Ni 3.1199510722071766 3.657204345728889 7.5224575733417725 0.5807332712674321 0.7952972293933788 -1.2861815009174624
Ni 8.988315207147563 0.31012904023574167 8.338423131376473 1.6184215083013547 -1.6192612305938308 -0.803303644637623
Ni 6.825741656051835 2.205078410197959 5.953289620954554 -1.4616292097682377 0.7010657843116184 1.0932644316373301
Ni 4.16594826253569 5.209168567469895 9.118936193582025 0.45581056774940215 -0.46260445074278395 -0.7115445723557553
Ni 8.734091349298525 4.60150273663314 11.277392549266455 -0.009375270567312886 -0.2095474787479617 0.7191946327018452
Ni 6.375229025963704 3.1454984178348244 3.6789205151408546 -0.6059871607382143 0.6616016647787251 -0.9885187172878072
Ni 4.892362969117769 6.349274403811559 1.8146075961055894 -0.24020556995345085 2.46401517195644 0.42320306612702596
Ni 1.6789049093995418 1.1452615868904317 10.649167584598699 0.1251024236290039 -2.062415543031803 -0.2177235868008508
Ni 4.576834738047023 8.072896424344131 12.668058605993597 0.6874152834077194 0.4950543437413732 -1.3930136654823688
Ni 4.399252917080929 0.8353889457394312 -0.0016985282328526622 0.8952203255432776 0.5307086026098732 -0.07859810941987753
Ni 8.746078237917295 2.0109093271431893 9.801514061701067 1.4771170209911917 0.9059634229923946 -0.5631350985696947
Ni 8.2487658326504 8.838048682176826 1.8707478881223452 -2.2858914589353985 -0.15377947984872226 0.3646317934510365
Ni 8.425412768867078 2.7663702549497446 4.614470791424566 2.635159368335855 -0.20434228039793842 -0.42191160100911207
Ni 4.687077088201113 3.286730808989407 5.36237488844474 -0.819245255568544 0.07862664866496781 0.5887597411163344
Ni 2.105258636557179 6.433053036157877 8.436737833133538 -0.6077370535497856 -0.30277979314124626 0.09046914982585065
Ni 2.541183362040537 1.3866006965098727 1.0143832757427644 -1.4050680255437416 -0.48955758229286017 1.1144629200918161
Ni 5.816621503759752 2.6867291818409473 13.358682962356884 0.49589046648942336 0.3157450950526627 -0.1787340929115309
Ni 0.8405150761773267 7.067367710495355 0.5570071105883657 -0.4795721889453741 0.2592690143428051 0.8245430136323735
Ni 7.216190255061051 6.770768581529154 5.753545477656476 -0.42301280449309087 0.7339093132042005 -1.0292830436893627
P 6.6766229103774135 4.536264442436162 5.721952852525416 1.8198129336010853 -0.3373467324828384 -2.082422325171033
Ni 7.842461218039678 0.25959527983009684 6.169264659382373 0.8794142117489565 -0.725988258584911 0.04831745615846518
P 2.215454705288029 5.536165335219137 6.538217388554238 -2.1138018679235793 -1.958422904798221 1.7476505525042225
Ni 2.9039371573838384 6.704234407481498 13.005052161162356 -1.162859309117333 -2.9522380945982767 -3.393752814550297
P 5.2172400476826875 3.8393310024570035 1.8124943863205198 -1.5480835820077403 -1.8997693568210703 1.5020279253002584
P 2.9263373662312686 7.004813738846209 3.2819517892258006 0.024642995359660785 1.4238864438018253 -0.3370705960033163
P 0.7004980351969867 4.108614835427846 4.024950981011159 1.4772867137998364 0.25598622982647523 -0.5948141748405303
Ni 3.160364010979028 8.091788501310084 0.9497910702141953 0.6262538814070505 1.5571359220179957 4.648974376751135
Ni 5.067926920030664 5.4904485453441545 13.37991225119638 0.21565950518297053 0.3190250513555151 -2.2026980168353547
Ni 6.656425697276135 5.887145136490567 9.543596020649133 -1.4568233037391622 0.15590269683931215 -0.18243031081619548
Ni 5.0718330721519935 5.188008700765256 3.633807235024902 0.42265310716082694 -1.2708641538341015 1.1336999139445572
Ni 1.0516527802482574 4.194383568973421 8.583132454236141 -0.09263556134955014 1.1159929835830973 0.647843177542052
Ni 6.8446152204484925 4.875377686789242 1.3938215241635423 2.3891737013655177 1.1332265738525644 -0.9781728552771091
Ni 2.079507652667282 2.5313717003139766 12.42437950761522 0.9978315100483008 -1.363914434123567 1.088055633742881
Ni 5.716237096755463 8.968914034525987 2.5493298181589763 -0.9926437951997744 -2.8294789743904687 -1.478867428023395
Ni 6.5129995666600475 7.555035067159347 0.2034790541534251 0.5060776914350703 0.10734458542495061 3.574200290608509
Ni 4.540041006572422 0.5388333213110745 8.865096471545867 -0.8151530877770413 0.10073865007265875 -1.122462393357525
Ni 0.29360379525420566 6.752348575080235 11.735542539817402 0.040846087482084494 0.5837959693531558 -0.5912729944564914
Ni 0.18525898345289551 7.471256434813028 6.8262914793599085 0.29453606507521535 -0.4041491348193685 -0.4402541080720418
Ni 7.448263823748146 5.728659030752675 3.457675873863102 0.24129006126688118 -0.6245379271572082 1.2232838329519773
Ni 9.158390181264373 8.647137811318046 4.418167209130036 -1.6851308367034463 0.0947099273800756 0.3836294175994619
Ni 3.0251389485608016 5.330018619830245 4.680081188264382 -0.1894429946886028 -0.3796688902898171 -0.47932562015220675
Ni 8.93906251653716 5.170403247365334 5.838705147672231 1.4618055874451017 -1.2460422096944155 -1.8656148224265483
Ni 4.7165583548040315 6.482842591277847 10.946887649635734 0.2172844423809032 -0.6868876930390235 0.7909314962255153
Ni 3.2461882822324877 2.741507874386026 9.595483049870271 -2.9575150267265005 0.2637108521642426 0.6023346515872917
Ni 0.007722518281574802 4.977705913569548 2.12194586652005 0.4635066508420792 0.5542100281659229 -0.444769222333576
Ni 8.743810448178609 2.854388265664709 7.5226065995246 -0.6711844233711538 -0.9967030528708126 -0.8422725697016527
Ni 1.5450775459631176 3.3027441814299254 1.4091573365678494 -1.2474429466966839 0.7353200775087981 -0.011293570635948292
Ni 4.987850801543425 5.638197360890717 6.288875295228397 -1.5715816651296806 2.065481840661952 -0.11078986366107373
Ni 1.3412263891668552 1.5222145228833026 3.32438259805085 -0.7348490514096505 1.6648805710948424 -0.08535111187299495
Ni 5.29525201469349 2.7413227486930722 9.691237463293783 2.4289769494053846 0.5928210556699016 -0.04834676673450383
Ni 6.898449771959506 1.663641296015487 11.13442645599736 -1.9352395247032221 -0.1861499257596278 0.9501601721142668
P 9.159139940320838 1.5178825816681798 0.947141921548024 0.849547506096511 1.5262312620193395 0.9674945496276562
Ni 2.0082527734492994 9.187316070788432 12.92147809270675 -0.891578100805 0.028142523872487016 -1.579280319325519
P 8.314263302817515 7.133272457186968 9.417889195734135 1.62998093100418 0.25149991192034754 1.330160991822206
Ni 7.294868674566487 3.7952896001032546 9.702264475194585 0.7202845233319143 -1.2007959362621061 -1.5206748509774841
P 5.233123832138138 7.803214571133438 7.709954726422482 -2.613030140536984 -1.492839573932771 0.8863960423834282
P 5.398820583616588 1.8797385174006547 7.496540901956681 -1.971194602641592 1.4749758062784726 -0.7815112313528799
P 8.219960274826764 6.165574178693335 0.03319303674664658 0.2582598563520004 -0.9028950684797159 -0.07611082422164955
Ni 4.226447338993047 1.1572947569324397 11.090721982404785 -0.0727611910231263 -0.46681077551464767 1.2909485832888026
Ni 8.293047898404991 8.954224310790089 10.754093124851149 1.2298625146107593 -0.07222228780052077 -0.5741977841417596
Ni 3.775629251511543 3.7090117709020576 0.34716436073964785 -2.161785852002025 -0.8921745967384184 0.28630005031866823
Ni 0.9336906886979887 0.6545877889728673 6.009647435660531 -0.41724787698485566 0.968355354966055 1.4017132501388956
Ni 1.501887721796957 1.9329343852709775 8.492269061620474 -0.05359001741131416 -1.2961658658236839 -2.3352142164299265
Ni 2.330871318560181 9.055164094873241 4.409416317624102 2.2192448654504426 -1.3259675225661487 0.39559893125651224
Ni 7.994856688479386 5.057883851187912 7.720603156281194 -0.43027514248245896 1.0042875500862898 2.2492925767654426
Ni 7.037895700177083 0.8635558199223776 3.79709550123802 1.4569122639085426 0.1598025461143506 2.572493870985834
Ni 3.8360820465456618 3.9078367651346197 11.524215081911194 1.228096166738956 0.22695873224587365 0.347841204256259
Ni 2.150142360813869 2.7502828322320445 5.529889574227997 -2.2110433034762567 1.722946621999639 -1.4341628860271687
Ni 7.027334279394059 6.8210857448740425 11.727780219511843 0.6609192939997198 -1.4929709573043126 -1.421696635239358
Ni 3.1626225444330665 7.300524264486231 6.321972066614707 1.0093379680260037 2.208664775941751 -0.0432194728102675
Ni 2.5249663513377696 5.545329057020358 10.733771877535592 -1.8080354813501829 1.1442892594246294 -0.34059377866522633
Ni 6.973333114759386 1.153046122279146 8.587738381476836 -0.3989151401139388 -0.2716681593381063 0.4236776917705994
Ni 5.8521841493762095 4.096914891633156 7.587010902474821 -0.2403760340930441 -2.1632799200490482 2.3299933343506196
Ni 3.0899607099486337 3.368556365275061 3.4228046727098276 0.0687171028607397 -0.27868984207157804 -1.235304254451621
Ni 3.313731391306743 8.033316551190573 9.671810373075191 1.4948473483914193 -0.31818558617335524 -0.6209257843259176
Ni 6.211587169677044 4.245469003944068 11.654325121433102 0.42488765291830044 0.2853561983481602 -0.2691057979275688
Ni 7.272570284850182 7.870618835937977 7.7737499658428835 0.6829425923483464 0.4365692030212868 -0.3601896985192829
Ni 8.370597051183408 0.1409408181881802 13.163016212446118 0.3608319600889721 -1.46715656734437 -0.3377203137721732
Ni 9.001847895302499 2.0386133870937506 11.98003433998785 1.0043965648603281 0.40093808408123854 1.2204800449545947
Ni 1.971903343637788 8.710691461709144 7.799923961941181 0.3343776225521854 1.3379583763794378 0.671498869287779
Ni 0.8484856628874597 6.468041792126177 4.351229461071741 0.6502294183860414 0.17981961266622581 -0.9714741031006946
Ni 0.9979293041530157 8.672675900661046 2.4982823339553843 3.453892717264987 -1.240374984106309 -1.5080746457149705
Ni 5.390591746564784 9.202107613655453 6.177040864114904 0.08884344129696958 0.8004237519866667 -1.0317271343544812
P 4.065693443516469 1.3343674822429108 4.567217458298066 -0.5025161993360571 -0.2864427465441196 -0.7814428400087896
Ni 2.610605496898275 5.6515912047759365 1.634926449781397 -0.651260430753717 -0.6475580422014654 0.13909693813588303
P 1.9585002434679206 8.000484509545187 11.124550000278264 -0.9721071086990033 -0.02111827003585395 1.2582431226359814
Ni 4.734071245357478 7.423706900577802 4.5115640468537785 0.576768115972097 0.46639271414062256 -0.731614860743069
P 1.3136426609167138 3.5666778818743983 10.691814990484504 -0.018287999675910438 -0.1266319728996529 -0.0011634241804818674
P 6.564640378709558 8.919420680514744 12.135166893797882 -1.5461642534978401 1.4617341107772182 -1.1299730999122735
P 7.2607592656397175 7.7878954200414965 3.6669715772891407 -0.5493449867641378 0.7470952157668552 0.2551328806872445
Ni 8.436538823013612 3.5212387805388468 0.1434353869007349 0.1320821973809467 0.10847252838180674 0.2792187179918546
