# total energy = -381171.72090637294 ev
CRYSTAL
PRIMVEC
9.22255740220371 0.00000000000000 0.00000000000000

0.00000000000000 9.22255740220371 0.00000000000000

0.00000000000000 0.00000000000000 13.49814498850787

PRIMCOORD
 96 1
Ni 0.4971428863591102 8.88424646014568 10.379438844954402 0.1602900272737304 1.0301363928285936 0.06933725294324188
Ni 6.736903053152471 5.768774298124444 9.91931438229837 1.6030159723795618 -0.5834707248032531 -1.0891390966150467
Ni 3.1375786324406003 5.705987126403534 12.711837480232854 -2.0662017495471123 -0.24604840188747304 0.06611206113772485
Ni 1.2836785612017823 3.2291032934509283 1.507473142426753 -0.012436683101456 -1.069994405365796 0.6765107206800737
Ni 0.6331986664432354 2.5090613362038185 9.184704473163725 0.09921141479485494 0.0054664224312099404 0.49824559698516124
Ni 6.253078462134453 3.56410347347301 11.090858633158932 -0.39609258306347916 0.08299083917093449 -0.6160345176718874
Ni 1.360972815930476 4.295230944881185 7.306680958171912 3.3062088087910415 -1.1419786090135817 0.31427262427219427
Ni 8.630441676691005 2.2416348352650366 4.931290448672809 0.0924841233733504 -0.21449196723743058 -0.832034179803096
Ni 8.246525051485651 8.352095667626847 2.9281657074408924 -1.9505543006834216 0.5804103407103746 -0.5904168171037832
Ni 5.170829780127206 4.858387975843865 4.484285996370797 -1.2469588079714136 -0.6178322330022584 0.21660592825663988
Ni 3.4972214862050843 8.654143649564498 7.018482490889564 0.008628365098959333 0.05310613579636015 1.0510068085196997
Ni 7.526778216079769 3.1622581964131555 8.881887329927379 -0.8173984321677922 -0.192718580116081 1.8203708629870845
Ni 3.0464413188468824 2.751208806930054 8.418510071227582 -1.2044510165161904 -0.3587959034955498 1.0199201144172243
Ni 5.765029939763885 1.4281868152697814 9.895476837829065 -0.3431957350644476 0.5658008183273159 -0.8068983039674168
Ni 3.275898550400384 5.948973849865757 3.1087848855501994 0.4298002597285695 -1.092272757148022 -0.06030033955195422
Ni 1.2193788900445872 1.7331860156196952 6.76334043659183 0.17905882324080127 1.3190430275321734 -1.2206659357131557
Ni 0.31801038452498126 8.347622727220761 1.0034576061900837 0.9441587031151932 1.4203444920868378 0.06255314014187291
Ni 2.165244391175099 2.3018581359902925 4.143012632711147 -1.2759374545919508 0.5621765913111674 -1.7789064251947104
Ni 4.497002058704638 3.9719987482780046 12.78830447155036 1.8678568243831895 0.3536022751097523 1.417508051079307
Ni 6.9082305045419155 5.986989232038728 3.569044919802044 0.5232670587301634 1.1070499154571967 -1.7009084112526769
Ni 7.636083968023986 0.05552071863646444 5.084561976913723 0.1680064220813816 -0.7554772691829633 0.6546545440369306
Ni 0.05585918649812094 1.566110163255417 0.1749924957551753 0.9713555752449594 -0.7777674480397315 -1.1455113047571883
Ni 7.972310748198664 1.4940727663235682 11.107745136011605 1.222331753451353 0.4847334214313393 -0.7928312843513894
Ni 5.062031268847598 3.7151597433932193 9.030596458954085 1.5524783686413262 0.29987470367930935 0.14945976942744582
P 3.2625166194122763 5.24608584963993 8.686866205966226 -0.06759815876494808 -1.1856027734614356 0.5724437775651302
Ni 3.044707478029678 7.574551064128287 1.1011447801475194 0.4620460071361526 -0.1391146787476959 0.3807778070832797
P 2.0787368014656193 7.294969232353995 5.101515804436424 0.34627308843819077 0.959653970537315 -0.19085170211067132
Ni 5.907749017669449 0.2597800784837572 11.958236480615293 1.6144630378742388 -2.6439052328492854 0.18842406650578516
P 6.776965843098949 5.2957032091961125 7.529832727136462 0.23192636066379416 -0.8008947780858142 1.1913713005140967
P 3.8358369087821886 0.7444245548669308 8.911029689492729 0.4508192851823978 -0.5410596068268939 -0.8930361734077652
P 6.982010964848508 5.255262294390562 1.2065005106980715 -0.9959150097518784 -1.0527757274946643 0.5538945538080332
Ni 5.9831987608904775 0.9518140507427307 3.3220961856213567 0.43806841327463264 -0.3621938734335053 -0.9344273347600422
Ni 0.4295931859254098 4.546840759641741 4.949837011882378 0.2389452151837885 -0.7860374013580076 0.5127425050497556
Ni 3.03104887031542 7.972532089579584 9.658449731048107 -0.20683907867786314 -0.9474345456529878 -0.5853550863101596
Ni 2.492857302608983 0.4471557022456402 5.213348537146142 3.3206810342652875 -1.7805035944785013 2.4027231579151778
Ni 2.316807901759916 6.480645069392598 7.202123901104179 0.6442428617853033 0.3540095378505 -1.3317532760099904
Ni 2.9089329859504716 4.258257711710044 4.9029854973319384 0.16412714163163344 1.3696623923509381 0.6849565374545816
Ni 1.8958165952505008 8.608925449954095 12.770784378994808 -1.8281903590315032 1.1729778856085735 -0.3298967039626964
Ni 7.227358663040542 7.386115768505251 0.6037547292463821 0.3275397736947456 1.3456138360421666 -3.1903811255957444
Ni 0.26882648517309926 6.529146499486644 12.89557480504587 0.8359381428431926 -0.3314517071546421 -0.26189565333237474
Ni 8.618046559359497 3.4189035275896367 6.915113299232766 -0.23674126555393427 -0.6396141047640405 0.267418640033133
Ni 8.382087424741478 1.0625861893355406 7.294073722017023 -1.2256579896111086 -0.7863847573950973 0.836568834448656
Ni 5.795409044295124 9.215493059249665 7.718711627777092 0.4443524465111315 0.08232672322437434 0.24856731165458482
Ni 8.031676351072855 2.1188364816422522 1.9070044798002417 -0.6949252186315193 -0.33553436186444796 1.043937303267428
Ni 6.389323304648114 3.270235900071853 3.2529989400327253 -0.4906958096623613 0.24670171920075576 -0.5477997537642049
Ni 5.428932275394742 8.142411599435512 9.931813714530062 0.6240370762613898 -0.4193294421042326 0.09811303952435362
Ni 2.664793442795958 0.8497101939801917 10.795425069487768 0.5399162372510702 0.5678834118879574 0.5275199204692463
Ni 4.447486147281376 4.273041471443977 6.96316651303045 0.14698688240692104 1.35462246729868 -1.5147988518126814
Ni 6.643174200890483 6.822516054780731 5.946850817120436 1.285678850249431 0.14312971344435996 2.028882958491996
Ni 7.726003904022644 7.351429729603614 8.173599522262863 -0.4779454519752285 0.5636493192019518 0.5486466751455326
Ni 1.3781913308545268 4.105320040052017 12.437933054879155 -1.5121606428588863 0.05030646156403595 1.9151018734130822
Ni 3.642273871167844 3.2163853866055794 10.788433448617965 -0.11493088241264078 -0.6357996161139566 -0.08278540802834775
Ni 8.632793428863277 6.943054881806627 10.729027266490606 -0.4476051491204743 -1.067427415969568 0.07514203255047704
Ni 3.552667502125488 1.0144628841005658 2.3509175308154076 -1.1958182805418565 -0.8972592103501773 0.6520248197235674
Ni 0.8522842097891378 6.899515187668199 8.76075549245177 0.25719850496702157 1.7188379991479041 1.7996989364600293
Ni 1.5819545171062577 0.2753966351634013 8.42903854291333 0.428465600077546 -0.02768306773756523 -0.09104867647840449
P 5.96172864694126 7.768519894274318 4.337817948825904 -1.170613499141455 1.636333869805401 -3.1921564723286124
Ni 9.092298135652733 5.8491949998586295 6.675763952463658 -1.5593915508213918 1.408204257179878 0.7573215214805539
P 6.304780119694297 7.117139877900031 11.725582710619006 -0.38462957672920206 0.699285552482744 0.07603497667839162
Ni 8.627518125951356 4.103641534580042 0.25261415127647946 0.28066882017481987 -0.7344284189324641 1.0212802279895443
P 0.9974749331149729 1.8516128769693139 11.755278423636657 -0.773219680768049 0.40105532638539315 -1.0291102655569244
P 4.786903932364315 1.9030286352454704 12.240253067579703 -0.9328854441942191 1.9856578292547737 -0.35158910133446547
P 7.717961833849226 0.3673473783319995 9.29965535257715 -0.2555635404667599 -0.6780639240998063 -0.971444792524656
Ni 5.110173019197649 2.1311301508408382 1.2738344032853752 1.3801666343163717 0.4940834951876717 -0.8791542732193504
Ni 1.1813819529866922 7.078663367850144 2.904449900731092 2.3505518752282617 0.9144981999362831 0.22574157200932088
Ni 9.01196965949393 4.980845094837731 8.868781153409666 -1.2399224699499227 -0.7683731513090251 1.0622872665295255
Ni 5.173310648105016 0.21050672032375348 5.360275868056442 -1.2093746790700528 0.9283600455200399 1.083370826672702
Ni 1.6275600641332701 5.420124732945642 1.171224228113982 0.9281242753601499 1.0798507293345854 -0.9804899334460597
Ni 7.358069971031208 5.352504941074651 12.416052537119482 -1.5564946888895712 0.8836925274093361 -0.583242410842531
Ni 8.403520648460542 4.259170744906338 2.956458669456963 1.1281854118842312 -0.059944498874432255 -0.5242165671276262
Ni 8.752179436196881 6.338294893788567 1.6966084301669484 0.3356058385323317 -2.2400049808159292 0.9444109283353155
Ni 0.9143898345079656 0.09297168028809064 4.01451012725091 -3.4371723191865127 -0.1218008700595967 -2.0160505826140183
Ni 1.8890933508050627 4.882800085647809 10.551716219770295 0.2808706517729808 1.1784941874411123 -3.1539071990394265
Ni 5.603690518188444 7.966214637665832 1.8810881708617975 -2.163828850573983 0.833157751884578 2.1724618436586325
Ni 4.028311684607011 0.3404294996448931 13.461591751101183 -0.4447558525971373 -0.1341298239385948 1.340058710551892
Ni 3.4176769274370398 2.3242505056933433 6.259441104580143 1.5341052654507772 -0.8706585770435135 -1.3425393108819008
Ni 3.794289287072039 7.722536222388235 12.059647723306703 2.706229287699488 0.17021345703502946 -1.0310625041872887
Ni 6.860097976749403 2.316872459662684 12.922260275283008 0.37040571982033627 0.08275815433483813 2.061995681885565
Ni 5.099354959205195 6.102252756152702 0.3019483783162361 0.8785639479335191 0.10333829247903493 0.32095363583679565
Ni 4.851554060707967 6.575665079709951 7.982937901250075 0.8665633239282173 0.4340464365994331 0.41313771147122397
Ni 2.727737397995019 2.528769941663217 13.04266353071309 0.449436031681626 -2.3595504791824458 1.075898943775689
Ni 8.33820649597413 8.78130427290291 12.377758633708853 -0.21926779135951913 -0.43824376251023234 0.5986867704220593
Ni 9.1049238169227 7.0900440038524355 4.681939238253388 -0.912594812265983 -0.645383917368282 1.1229485889653241
Ni 7.327801537190429 4.598108956997285 5.445192566590562 -0.6798433845977324 -1.1374519247878216 -0.26330436075444336
Ni 3.7516626261299053 8.031685573630394 3.5979308922678284 0.406135569121778 1.8997662714972767 0.4330912717750154
Ni 4.227887829736343 6.61760004883671 5.658516778242272 -0.6251945869046007 0.4653989827687856 -0.6670007243071093
Ni 4.64028371262004 5.626608573671179 10.46681243281673 -2.3640290837790903 0.1876985011936703 1.1341295452828082
Ni 8.640752496018852 3.8713990906499665 11.076766565240373 0.5496540333641243 0.06521166081064253 -0.17824506909025434
P 1.3894520736088203 1.2281495422635333 2.219270133234601 -0.4537202608792766 -0.9289354584075357 -0.2802553867864851
Ni 0.3710234897667754 8.18210548708046 6.737612267827167 0.739180846015785 0.6212739116939558 -0.4146222664365505
P 1.8495839143108828 6.980277124031303 11.27464944880567 -1.0859591562251685 0.06448172462315346 -0.2561500090978492
Ni 6.333360825505564 2.416688199899965 7.075215053586564 -1.1823670401329573 -0.14779138058608743 -1.5270632710023313
P 5.345043892026147 2.690155476026349 5.004423485440211 -0.3574288479446941 -0.39736605045926404 1.021667950346266
P 6.883486382666592 0.4072294061507279 1.1415912284875933 0.04725893298696377 0.36723889205658045 -0.01296375924951961
P 1.4808660639286881 4.671280728506347 3.1986153627407368 0.8772038343611988 -0.2867206827958546 -0.7290231887564927
Ni 3.751339836616064 3.9695363254152722 1.954531085562487 -0.2222631265424172 -0.318509030951045 -0.43972343237955236
