# total energy = -381165.65521053685 ev
CRYSTAL
PRIMVEC
9.28284801083372 0.00000000000000 0.00000000000000

0.00000000000000 9.28284801083372 0.00000000000000

0.00000000000000 0.00000000000000 13.58638638851176

PRIMCOORD
 96 1
Ni 0.37759468503277355 3.7186159825865177 5.034136608901316 -0.5394922623397741 1.5935373434651652 -0.4533824179238837
Ni 5.988903492582323 1.456896541069525 1.9058029908488672 -1.5033520434283205 -1.727345522398283 0.9849202013032715
Ni 4.7739458125781065 3.4608684317926954 12.86715021443073 0.29243573090276087 -0.7915953550617592 -0.6483445426585028
Ni 0.011228532645689238 5.541136048222644 6.831072217837058 0.9136152831106975 -0.10288063611632606 1.6136806511822595
Ni 7.340699631358119 6.422774513851229 9.713777042841178 -0.2711526531542685 0.6751202680904501 0.6453342950772691
Ni 4.126225827553626 3.2006980577345505 8.851802433614184 0.5327932530530437 0.49522017989527617 1.064539552898812
Ni 5.761343762691097 5.932315252661588 4.321747664984478 0.49052740240529713 -1.0519167219284788 0.9454442546958362
Ni 0.1813905582918535 0.3523202754474411 3.3117626897115255 -0.09137829190368134 -0.5613834059859106 -1.3014602814534035
Ni 8.820766160426686 5.553092356132407 2.9148095539683347 -1.1554365342907005 -0.07901488524232197 1.1630675684733969
Ni 1.079251728658869 1.9482840870347697 11.320815291801447 -0.40718535054253097 1.897091809988907 -0.49967564456346847
Ni 9.135853861809482 8.101865298808997 11.422522813240345 -0.9125698725653187 -0.6901812761886307 -0.22144500151649604
Ni 5.034348257830153 7.26884110687872 2.5180875611342697 1.0798425018044693 2.609754297999189 0.43330621599929886
Ni 3.0951706444440448 5.077151468833189 0.5329162219713788 -1.1526219476600408 0.11121563834458265 -0.5321749027427545
Ni 8.732709066613022 3.2508254356170916 10.043260584524019 -0.5666667658720369 0.14390875770222958 -0.6011601716632162
Ni 3.1112578196052385 1.5015284730804987 10.239366313078724 -0.017769665278595203 0.13477594216302596 -0.40518528939336673
Ni 0.19576040661818198 5.477297904204454 11.282134593486859 -0.36058050619979837 0.31854631194688365 -0.07250768025142351
Ni 0.8546216655194456 7.627084767479283 9.225943899281715 -0.903044963794019 0.09566920596955136 0.11223302386550348
Ni 2.4919990458007337 6.963110516034 2.050688750340148 4.700235231808641 -0.35086405024298284 0.6628715326300841
Ni 3.553427706768032 5.155721492240195 4.602075742944835 -1.8934274737634424 0.4837700290768056 0.5156838470662667
Ni 1.995719439068063 7.254972532331218 6.897712853592796 -0.6278839608113057 -0.4252540351187837 -1.0366351131790597
Ni 7.9434627847001655 1.184621333537522 8.153026785931559 -0.9488054578585852 -0.9369575573810637 0.38828234299044095
Ni 8.16630682793133 6.765014544920401 5.320034395515287 0.5279341251885294 0.7561526979834332 -1.6890419988323944
Ni 4.6303215920968706 1.481756007360163 5.710928616528119 0.7257339764822599 0.2083082070242219 -0.886709459858789
Ni 2.593321329057759 6.056993180872774 8.885211402688123 1.482825898450511 1.0633090229258202 -1.1089581882235031
P 3.7805882742057486 8.218012289932396 11.813947084860049 -0.3408974259485742 -0.14355857345166242 0.5746526122909911
Ni 6.302134624413913 6.722944678890091 0.42675200532481006 0.9045508589155842 0.23301316597006966 1.6601651678970442
P 0.695605555173942 5.20285051029754 0.3637780944327042 -0.24818550283513388 0.8159010216866593 0.36915719212521586
Ni 8.04265929582106 7.80310612662905 7.710491154567178 0.02173816300803998 0.054295528118771 0.3416366181074439
P 0.40057251808326505 1.4358059109678336 1.2654192404059734 -0.854744219806102 0.13996545678376537 0.21011569254660586
P 7.371527968755882 3.8376963536008213 4.378076913452821 0.37865099054826395 0.4851424839443 -0.7278114278365788
P 7.255288149154923 3.175968551312497 11.822044512957628 -2.6409775176795294 -0.5129960158214585 -2.273359130796343
Ni 8.227090915037788 0.3189781428773464 5.771618946872243 -0.34082774905290336 -0.8193946366622147 0.2853024622920893
Ni 3.9212048520140326 1.0291800478628639 0.0974606185905186 0.6789810365974371 0.6680955000331849 -0.6238784391963385
Ni 3.0713230085588137 4.371060937118816 10.56609192069325 -0.09091137956959182 -0.08000681684194608 1.4280184636923277
Ni 4.157184124819973 6.018608605401607 6.503218744220176 0.32708288866298507 1.406544610089268 1.1083287821696202
Ni 8.355723336393043 6.605201037952655 13.203765768044526 1.7006556718119228 -0.12362326798031611 -0.2164393207717885
Ni 6.171775593376037 7.30397668563528 6.264573437538705 -0.788645528404816 1.07808052480804 -0.7022181527485067
Ni 5.084475635712694 3.4832400948847186 4.371555712904213 0.37017432053582056 -0.8013580908754779 0.488311625700901
Ni 4.7970879520338805 3.645235071075131 6.721755546092544 -0.16595622442057223 0.6584512920752015 -0.29379790135761014
Ni 3.0577978993782837 9.23363938007146 6.1303945146492245 -0.8289015477113852 -0.5652081790486394 1.0619473666916035
Ni 4.5873698555297375 6.3506560696346614 10.297570696793786 0.0015280066087522072 2.6603674921703666 -2.067426365982833
Ni 4.419452422470981 7.871864179957936 0.39048763228111827 -2.006388891154538 1.1841328737841283 -1.0654880328550103
Ni 7.15041053520734 9.162504917717033 10.18669172177193 0.8206436785779674 -0.08607976250890337 -0.5969044817106559
Ni 0.8575021331781405 9.264421303230444 7.5462729363391965 -0.367457950045922 1.0630742812071947 -0.6787013005734891
Ni 1.7020658331539318 9.264439868925956 11.964470317793563 1.6862415532691215 -0.9389542760961184 0.6138135987611687
Ni 2.0642918354418285 4.724106202976003 6.631392592896283 1.6127684237806357 -0.7138205128741255 -1.3339633962874315
Ni 2.1417015028793305 6.818112434084871 11.069508180780755 0.6958145632150081 0.5343320582950734 -0.46026140443190405
Ni 5.924656903262866 9.003833201023278 4.261274553277846 -0.2113472509608618 -0.6341083444544628 0.1763141706161286
Ni 8.835943616507787 3.192204252037787 2.7775060245241763 -0.29461756904542813 -1.0416587916458964 -0.6334357438674703
Ni 2.7037593688112023 2.2819746153206415 7.409783512643242 -2.0391452596499526 -0.6102320520574974 -1.067437443271897
Ni 9.007713431385296 3.5950612789538097 12.663693398738026 2.369542043177519 0.21533914572907428 1.080350294678823
Ni 6.912778915500826 2.6406452869179806 6.02598382794377 0.27149898075009377 -1.0465652278085782 -0.021542244947149996
Ni 6.047719615964504 2.3457199308612733 10.07438690133475 0.78774204275394 -1.2495581932674735 -1.055398509829492
Ni 7.761231200401617 4.5554739906400314 1.1517776898919256 0.3432034483739315 1.0328414504645824 -2.09119492915734
Ni 2.1211028637087086 0.02648303636316702 1.250360604776148 -1.5577704702782011 -0.3012165624191845 -0.16814680431398785
Ni 7.72440614335346 8.61201348008917 1.8853556620966683 -0.25881007242851556 -1.0863047124900453 3.5980256751628805
P 0.9871658789190895 8.713577117387851 5.160598700451211 0.598866233422717 -2.3001471975234646 0.9092827171736146
Ni 2.921581391406356 8.74098008396364 8.653440973054764 -0.2195272156684929 -0.6327376893591813 0.4670025798104796
P 4.752288928763298 5.257610029210338 8.378221246214549 0.2789562083590873 -0.23687213470484364 0.18562902025915126
Ni 7.23581273456278 2.358409583743761 0.19349075034183358 -0.6369195886510127 0.5352455712482782 1.996897663834651
P 2.9202446613294883 3.1834783751471223 4.637835129070598 -1.2013181273141635 -1.6060071937974019 0.7647471245206635
P 5.360259759696475 4.931364344824798 0.6900934001764136 0.20057021495001587 -0.7920152162079973 0.468181173499613
P 2.6442284661518065 3.39428256483872 12.458199926247653 -0.08346340793197883 -0.9228661122850041 -0.9200882924295509
Ni 6.114630382589941 3.626817901127175 2.41953156650854 1.648466391402877 0.8793638181269952 -0.3159530972984107
Ni 2.596514628685832 0.5046592334020351 3.8670654273313367 1.9556366003023353 -1.799310442772359 -0.40743783287296925
Ni 5.692121566974411 1.253852812101965 11.859746799118728 -0.4717953732134326 -0.7324417275197386 2.5090519004811047
Ni 0.5516536501669176 7.319061313238822 1.9907586852272428 -3.9786227336939213 1.1000279756134088 -0.6321892730548789
Ni 4.847484532501347 9.200248976693036 10.208158307207741 -0.5138982159207537 -1.132679957320475 -0.24302504168011696
Ni 1.6878352275439439 4.760337157767773 3.1585084429681873 1.4617832188475985 -2.152959254849331 -2.138907661852271
Ni 1.5640298870218228 4.14037288753381 8.771506728809333 -1.9858684026036832 -2.277097257682536 0.3826292584697217
Ni 4.1362698688256465 5.893828565865103 12.219812682733798 -0.10394867236952421 -0.29709996914764963 3.458296759869954
Ni 1.7303506702665437 2.3060264738565057 3.0142622716872967 0.11605368316317433 1.215030077583617 -0.5676471275074353
Ni 4.495209743007909 0.91988843980729 8.012652490449707 1.8608431120695177 0.21335939629488415 0.2074808260269201
Ni 6.6108635750838305 9.278521948971848 0.2532555807646812 -1.6464915270646936 0.18049272747385042 -2.2233858842020098
Ni 1.859660739507988 7.219827670726903 13.289061214650774 -0.5686907382806012 -0.6040233521436242 0.898394352395885
Ni 9.11132857803806 8.790875390652282 0.18717284415908217 1.2767226694974076 1.1703841567394682 -0.8028403318479592
Ni 9.037808423810333 2.928376435963767 7.21166711926458 1.050323666409746 1.0122368868403535 0.2214987375725669
Ni 4.024977807078649 2.9830245607034933 1.79093053472237 -1.014407669239427 -0.636412309997291 -0.18630033529456302
Ni 7.485864804566856 1.3722091209912985 3.7741756829758857 -0.7316359437889915 1.3568708970132246 -0.009063138643532778
Ni 1.258206467699541 6.516633387512409 4.280540175510703 -0.28043510689745893 2.3658496819275965 2.3872803409975467
Ni 4.158984997284643 5.305045381243632 2.4902353047270886 0.46188788429173355 -1.3499363746769204 0.2332131977960177
Ni 6.255024172052081 7.8133543905517024 11.975462137821472 -0.3425498739503326 0.20551033256411058 -1.3030299399333687
Ni 5.8574954997480155 4.555195505207351 10.17506217010318 0.029139597678433684 -1.1658011653544762 -1.1038038977160733
Ni 8.011617452924911 1.0037914592501322 12.226660639523418 1.5912503472032016 -0.8115129199212927 -1.8402130945239918
Ni 3.5866324531913376 7.503827114974767 4.495082567993652 0.24315642505165866 0.451559505782532 0.020426643285468046
Ni 5.359145817965752 7.418879775159372 8.451221560967939 0.3622057005080472 1.1309552613198846 -0.7285331364939518
Ni 1.7276307958740278 3.200122521173677 0.7876923331984971 -1.2009525164446286 -0.6261844616216958 0.03873958266204296
Ni 6.784508525208056 3.4445677511331136 8.225945411624695 0.09888514180368776 -0.14753118494616527 0.18894471489594555
P 7.245494744772316 6.972560455049634 3.2634092640351606 0.07713412327984136 1.3477488801072983 -0.2900124661732489
Ni 6.6024718807123834 5.261360299703773 12.090497972068476 0.5623707095998445 0.2746164433331529 1.3648042929276882
P 4.000006946614938 0.17650499551785692 2.180152914854342 1.8153574689328928 -0.3100827545605627 0.38886598340805284
Ni 0.9423390071052391 1.5273255069944955 5.183097538557492 0.5918437793582969 1.5731040153114777 1.8192796868054346
P 6.252601348787757 0.10862602787146687 6.854549468096825 -0.051890775332020314 0.2993710245700134 -0.10033755797949817
P 0.8310330210866076 1.7500117418138068 8.86196529533748 0.4602233521051171 0.6630728500076128 0.5888273611294762
P 9.233695077157996 5.6750968241898585 9.152428386477865 0.45467953946875245 -0.6450704998929213 -1.1555949142454356
Ni 7.127092021644201 5.1859835759248405 6.822078066646245 -1.4937464020177564 -0.13992869000855904 -0.5225276094609775
