# total energy = -340894.3089222399 ev
CRYSTAL
PRIMVEC
9.07318309022867 0.00000000000000 0.00000000000000
0.00000000000000 9.07318309022867 0.00000000000000
0.00000000000000 0.00000000000000 13.27952058395415
PRIMCOORD
 96 1
Ni 6.2794138451228685 2.0609190755999465 11.19078495513426 0.7478871155405314 -0.24227762199113112 1.8809352548337024
Ni 4.583563360046289 0.23614138228298737 5.932771981920656 0.32669156676183736 -0.7149975639013623 0.56340172196752
Ni 2.8031145168317257 1.5273342575243767 4.984481003855689 -0.115967036986639 0.7391957584141204 -0.7775391340790093
Ni 3.3923542393279713 4.26935903332832 4.888032161422982 -0.12972372445109917 0.4525424385210916 0.11709960792918542
Ni 5.068443331866528 4.444308147615812 2.602745973097711 0.30266100817519487 0.1838665290420898 -0.07097633120856164
Ni 7.244755148650394 5.916495598966589 2.5857482720964566 -0.3944645605417529 0.28111130702887716 0.30304744498033614
Ni 5.055187411527663 4.593507568596184 11.66720055454921 0.7969846443981307 0.4549551617276423 -0.8302616612837056
Ni 5.49338585689789 7.798736482072831 12.557101063523982 0.07645946581031993 0.3469143215666155 -0.07365747758515057
Ni 1.9425866231293791 6.22873104497714 0.5248546014088639 -0.8622217591300698 1.234200736974797 -0.44151292017980737
Ni 2.850140824235111 1.4463833189457536 0.5111286901914529 -0.7771413844199584 -0.3063970781788594 -1.100994710402052
Ni 0.5999860004218818 9.2297861217765 4.851381038761207 -0.3287466495186532 0.13717066764744762 0.12731640056118718
Ni 8.800143687959697 2.3354463731311492 1.4094355032004198 -0.19654309606849377 0.5050315095587431 -0.4723548452613285
Ni 6.85084290942254 0.7473353993919213 4.929119163245379 0.08207218401140703 -0.4544509683977141 -0.5158072600180085
Ni 0.8324509289599623 7.320606958392301 2.6690636821605747 0.4399232070951843 0.03181097386300973 -0.3673396793005028
Ni 7.868527405581772 3.748313354135922 3.8815240120628025 -0.8285683327416827 0.006757116218175459 -0.3096479810159893
Ni 7.48700006112637 4.0396895524674505 12.605518289878734 0.9851955664518451 -0.9089721279117313 -0.18833124968166276
Ni 7.987331663567479 8.856433715189215 7.106163185896011 0.07420589388945284 0.8723272229951881 -0.9457885254091326
Ni 6.904519859952818 0.7907097506444553 0.13340573136102513 -0.7938052182288845 -0.6374785464782763 0.23219092717909046
Ni 1.8538508935509292 6.546310595764964 9.448153138594849 0.2876041138420724 0.08693285453781803 -1.6593580986147165
Ni 9.189319725670172 4.881798884713329 1.6929398079754796 0.7200212423681988 -1.4613654145838895 -0.38319592960646903
Ni 6.361045272425253 1.9410986211200882 7.1200805412743735 -0.011860498883011831 0.48509491853581616 -0.5047461171078405
Ni 3.6454143859202572 4.298139169751924 0.34787400145137 -0.798367126567954 -0.23861945641325355 0.28958180639373354
Ni 6.058127985338736 5.579826071181519 4.676024538557757 -0.10457704998214247 0.48146966307840305 0.10327195801747376
Ni 5.249689235144558 2.8802728649232527 9.347706651739617 -0.597260579498494 0.685525008363542 -1.2485978862367333
P 0.3124341487178908 5.641287812711624 12.431623479453924 0.15370748896020625 -0.6002070637213276 0.497691267143588
P 3.819020669126194 6.252121710708557 12.750145733953728 1.1997207009200566 -0.05420785350097116 -1.827316441066982
P 2.2681868676746 8.523620290172127 1.4158094142463156 0.22718370377248615 -0.4147009421932858 -0.5865318802270802
P 6.344931299446589 7.749224122531971 5.854966715882406 0.3433528294676022 0.2828460303317968 -0.9683512412009968
P 4.652483257988815 1.1041247104428604 12.405727707900766 0.22255366119964254 -0.9675613983098499 0.11946399439630392
P 3.9333972138159634 6.166797497931895 8.284774192041764 0.8084551069315754 1.0230460616407153 0.46854318482472207
P 4.832631306125842 1.0130571728376556 3.804064434296223 -0.525207727396302 0.05231037936794217 -0.0733016369076286
P 9.184601670518763 5.557669358335858 3.7885411255297847 0.4336587142427112 -0.041672440038121775 -0.2137556032920383
Ni 1.4833565396034412 1.1091240342667588 2.677257673712957 -0.356536932258044 0.26167968066682673 -0.23872024365717595
Ni 1.7561599323677828 6.558541246426697 4.984999082604046 0.41221391410537395 0.3033716610889743 -1.043105808505068
Ni 6.126530711851204 5.803516324456275 9.171407447824185 -0.6981149292134106 -0.4060311823334298 0.6260353376383412
Ni 8.600769565080672 2.5407362113154046 10.240860804132266 0.42701498367394847 0.187381998394516 0.39370608510917354
Ni 2.246855814480435 5.440026467772035 7.131036409726928 0.6104523955984197 -0.8532074714466015 -0.35131656439936915
Ni 0.4570325586073389 0.14146906907844523 9.216956641037857 1.0680665922154637 0.4581271316977207 0.8333048189854035
Ni 1.501666222864107 1.0600471875091069 11.590670978038437 -0.7415413758281617 0.6570628963681071 -1.2424609201010601
Ni 4.153140632492904 6.80877963311112 1.49287067927992 0.541529347374461 0.990797228909339 1.144104911327965
Ni 5.936483821079198 7.924826505994275 8.012026145693621 -2.0012348577574244 -0.3529327598465534 -0.5998062287384831
Ni 5.299918376141112 2.9329426921423636 4.9492643514236025 -0.14985957596902577 -1.026222145375852 -0.7225800042343103
Ni 0.9283408633208877 7.605922270490863 7.161977778337197 0.1433073766728048 0.7760723197254956 -0.454190772757792
Ni 4.931329390620156 4.7267018947936945 6.985240339683661 0.5880586012842518 -0.7443955574475051 0.3110919125513675
Ni 8.241408006653915 7.3907608092205805 9.033207446574687 -0.7714996127531488 -1.165940776256134 0.6316498556116412
Ni 4.591838102927224 0.16293531269906436 10.342847010139792 0.14260726528198664 0.686310994599947 0.10662596209137121
Ni 8.241616689862536 7.416927868944941 4.439012130708354 -1.2707746794440888 -0.18780160243043786 0.9123109624769772
Ni 7.149631898251574 5.994515899441546 6.852683858249889 0.6970656620132898 0.8338023274471124 0.5524256825719905
Ni 2.6210066611702665 5.066810158929502 2.4877851154238058 -0.557973094752781 -0.21217488906847976 0.8414547017860476
Ni 2.345417801229996 5.026361909189141 11.47415679143776 0.4023691601008103 1.692166660504305 -0.16133080983341894
Ni 1.2940990157509984 3.38593949895865 3.8663854062548633 -0.7725069709717406 0.09010482450789645 -0.052984779727147456
Ni 3.5817660072911335 2.6423286411814475 2.6608969101571427 0.00016172238884488277 -0.7037764983745621 0.9244378276474982
Ni 0.9601877355929082 3.404512304525837 8.193397258896821 -0.2033488061364175 0.34829603240549045 -0.0951542140063458
Ni 3.7015048031241404 2.6871410919368635 7.1411548233901065 -0.27427911459839216 0.38491728317295 -0.9235618528004482
Ni 4.09798475313632 6.707894911517788 5.933768217412242 0.08764453589286196 1.3143335378716463 -0.012076985769192106
Ni 0.871016493231251 7.542056135470136 11.353644960414561 -0.9170199379168723 0.012288330449049804 0.9985843290539254
P 0.2630533503302922 5.784145078786542 7.995678991912283 -1.0620586954584872 -1.0251656790868797 0.9048419077934416
P 8.47332763689469 1.7183519788756147 8.211975508373799 -0.5776366346199793 0.1420832744577166 -1.608403204833404
P 1.7128989959025425 3.2679518274414554 10.332144283492477 -0.38365075775570057 -0.3272770069516622 -0.3360434402903825
P 4.108228376724671 6.054544078060261 3.809137250902288 -0.7440440876453573 0.8468067101265803 -0.6935455646751733
P 6.914282604843044 4.0681974934015495 10.334866238387521 -0.4776268922935451 0.5911536952698077 0.5262647079059065
P 6.36187093207675 7.708830311889512 10.299782054426995 -0.6316506269425896 0.5333900060967782 0.14977447245438721
P 2.41318540493362 8.53681269823011 5.784930816432911 0.7769943173191328 -0.06020289474214147 0.6063748830949364
P 6.850679592128838 3.589768554682564 1.731051713097594 0.7210170306225647 1.7029071868502608 -1.3837620649771136
Ni 5.065567132860766 2.5255477030010565 0.6454816618559536 1.3170429663830092 0.9878792839315954 -0.08753089313313313
Ni 1.5096052579746535 1.1372871942474858 7.178191556328678 -0.31480715661942554 -0.021518333687750038 -0.6906371327791268
Ni 6.69802328843176 0.6769138896656289 9.168167414180783 0.7771907496006552 0.5406078640014561 0.7597815529852721
Ni 2.832121482829916 1.695160923169836 9.172137839054354 -0.9970954032132247 -0.6581234764221376 1.1389305662158773
Ni 6.516913482898484 1.5874078020580082 2.41991407743417 -0.04053164156545923 0.8532146705354532 1.403959880081227
Ni 3.9261295942461945 6.935885853526713 10.521921700729873 1.2520346798324242 -1.049134016977019 0.13942064002388893
Ni 8.448385456873098 6.930269553259938 0.6828776928406713 -0.8274277913793363 0.35422165386130605 -0.617923250054168
Ni 7.476556827512383 3.9748072209525733 8.15159347561873 0.8898621465551578 -0.6632078329235803 0.05836918396751238
Ni 3.040704886437175 8.471957586264184 12.333194868494218 0.42337661559041273 -0.43207080093030104 1.2555239239326053
Ni 0.1111165500438042 5.1672412213736605 10.200212037047969 -0.8163599636009489 -1.3212608611190988 -0.23183380094998782
Ni 8.633723365676676 2.3065301389627937 5.908072055884723 0.09615025937102796 0.5707159962407461 0.2066210491297861
Ni 3.55564431348169 2.8043847624494127 11.376618259728735 0.5365380648074566 -0.8440564010749528 0.511381620146487
Ni 1.1982589838964819 3.313290522809913 12.498365813480413 -1.5932997735330623 -0.1988807430627349 1.3230716890755925
Ni 3.1864564978838232 8.368087787469285 8.11413211771653 0.5410585783856294 -0.39334407378406455 -0.3153828266172375
Ni 5.63312194802649 7.804443514169441 3.5630543820242995 -0.22204638254592082 0.47629968884168944 0.5059360236508834
Ni 3.043626451357856 8.437742613233475 3.488437432486445 0.709770768284784 -0.4822487073362727 0.7307167744088319
Ni 3.242419890525938 4.30052541687658 9.121715439260251 0.4026830917968032 -0.2491128997454097 0.31689514949670583
Ni 7.5221586451873605 6.376823537633528 11.592423916990846 -0.7576485658026693 -0.2874920137442403 -0.053777707942088034
Ni 0.39289785737030075 9.02898750916907 0.24363129483585144 0.7471687493172681 0.6264659974178566 -0.3276459602553067
Ni 4.672444260552474 0.3159454705324982 1.591749320115604 -0.13422212654208496 -1.3114559592135349 0.17151237835211106
Ni 6.1307588151215064 5.577140409018409 0.42384466989035985 -0.7329230380315312 0.4324677792584036 0.4984042340502126
Ni 7.9103366327696545 8.961945760104124 11.264180654242537 0.40843310690670304 0.21733714999570958 0.3526928759216055
Ni 9.276150086822092 4.995504013862321 5.968852401372768 -0.9560274295283213 -1.5014363144628462 -0.6532689765433136
Ni 8.119047060938682 8.980863346624682 2.2315175986468594 0.12574519941932538 -0.9298746823923535 0.6150508136023793
P 8.49204561338961 1.6296525420290986 3.6172748162152875 0.7665196430400542 -0.49418659642443924 0.3637383351024897
P 1.894144899180571 3.14748717696977 1.399462260464977 -0.9016645385067245 0.8874159990075104 0.8179550760022105
P 4.605420657853496 1.0319021738943468 8.186864567148715 1.6710242220987348 -0.49027723406770396 -0.4407798986685248
P 8.42381527735383 1.871498234453801 12.370829524191402 0.6227996043098629 -0.9030362220432705 0.28448356593521973
P 6.352117260369507 7.755711448365161 1.480653638392662 0.5892783326239658 -0.39576039653504097 -1.032190961364777
P 1.8081492708631322 3.3086722726713207 6.073800094306105 -0.17765757201790047 -0.533385635221404 0.06288198423620138
P 6.8330322512259665 4.016153715808299 5.924246819189377 1.252831207591791 -0.8088024629686651 1.1716077447339242
P 2.4043481247077088 8.558134678241291 10.192018952813887 -0.4488253946808206 0.9739130515594904 0.07491526125165163
