# total energy = -340890.6567315242 ev
CRYSTAL
PRIMVEC
9.10637769905397 0.00000000000000 0.00000000000000

0.00000000000000 9.10637769905397 0.00000000000000

0.00000000000000 0.00000000000000 13.32810424932873

PRIMCOORD
 96 1
Ni 6.706419206186616 2.208824772000675 11.538486341595352 -0.7624709268919772 -0.23965483965630338 0.41055658100760906
Ni 4.717677371420385 0.18157115513173863 6.139377813209261 -0.8301577887159896 0.6638117850561666 -1.1979672085640594
Ni 2.8583462707255993 1.2662418248282632 4.956215293783898 -0.5955572236541421 1.3952620951969132 0.41975367412584486
Ni 3.449869249620741 4.313973433424796 5.184339162563278 -0.6889252922943425 1.2722420080182346 -1.2484703595199338
Ni 5.259333825808086 4.4043360197446155 2.598420198962776 0.15768884220545745 0.3601876416367539 0.21902147967666796
Ni 7.305664393405774 6.004007865544377 2.5706184277207713 -1.295570141221214 -0.015356170741096133 -0.5017443541670392
Ni 4.90037862802973 4.559617972977061 11.218425393784806 -0.8279150154284 1.2315049353101886 1.4349653273238063
Ni 5.6760598839727106 7.78755569068202 12.485368409699094 -0.22865771721485134 1.0239418339821076 -0.3394977173875702
Ni 2.021124114011749 6.714359967576406 0.44476459522788353 -0.6304648341646045 0.4002161183135494 -1.1254484725690423
Ni 3.2458044308319853 1.979662776158868 0.5483086633271986 -0.9600920865159982 -0.3384494786287139 0.6934465772034638
Ni 0.7142723976493497 9.011680518460079 4.617708467222023 -0.3237247708240296 0.010469532072756162 0.13746300207688583
Ni 8.604789348255286 2.4359287264731098 1.6331459797363759 0.5186580992032422 0.06586266413108012 -0.6005104538943594
Ni 6.905484623595791 0.5885269806184897 4.585974562071635 -0.5755938931583378 -0.07626457619069446 0.8072155780975193
Ni 0.6573757495261782 7.3509777290429215 2.5785482614572723 -0.43000183421641425 -0.05021287340896514 -0.08217271414501331
Ni 7.36185074406518 3.6670290396004575 3.8129969896798337 0.8222333916625905 -0.10456882245202635 -0.22714847965917653
Ni 7.879639382394808 4.188105080294439 12.571428232536485 0.40071234122367766 -0.14924431098253008 -1.0849697957287057
Ni 8.189520310529156 9.06357776520367 6.774381924540146 -0.3340215247643473 -0.6285035966731756 0.26908857153638815
Ni 6.833735473377727 0.6329970656768596 0.2552718020996105 -0.6781834803968062 0.04370438286648602 0.717890569178441
Ni 2.242573007907281 6.4538811386847295 9.576869674205001 -1.1927368134030556 -1.2271651702842543 -1.9503684099248604
Ni 0.24834549119012198 4.9623111030434455 0.9897958732062458 0.2834870063499053 -0.6563962093183856 1.8640587907933381
Ni 6.527105522096768 1.7911880760619925 6.955071582306595 0.20399029637515836 0.8338208393898737 0.19925818100681167
Ni 3.2403588169431154 4.565291246309445 0.7062305554666395 -0.46120705617462504 -1.2401088749291158 -0.6296058285984188
Ni 5.868805475229921 5.365741849706816 4.930852210500821 0.7462763194099857 0.026193113455600048 -0.9410435545249792
Ni 5.240092049642232 2.8783074507329602 9.540230163365758 0.8076377532366027 -0.6473847498483948 -1.0589209211604538
P 0.23558199214891887 5.982881069186221 12.488633956756868 -0.04311277202907414 -0.5328253918425598 -0.8738246334763209
P 4.136226046306329 6.221641187166604 12.606253752929803 -0.8287210562694631 -0.37696408976414436 0.2620344929030842
P 2.2300426321362368 8.471681424821163 1.699013320571797 2.3678952516027154 -0.9061038052250008 -0.5696685288128381
P 6.301212715863831 7.895794096506606 5.793273535698417 2.4441724261989 -0.9282816268736208 1.2586388154125032
P 4.896608587645128 1.1909047617804083 12.816132083268148 1.0532120437011347 0.559238848839082 0.07194435154878577
P 4.033178275793876 6.014543944590233 8.344366068267828 -0.9604538407307911 0.36714787500467094 -0.5187586293368486
P 4.5206153571141385 1.0810636334734791 3.5048781456382896 0.8257622307514553 -0.6978688746408755 0.3504526737371771
P -0.10947232000843556 5.57071730626963 3.5433161660812966 2.6452751166136186 -1.6634548943919094 2.0442452998806795
Ni 1.613732093031224 1.1393626637687007 2.6939033014861256 -0.3652717410278806 0.6983054479576619 0.046286284661049316
Ni 1.6959535776509604 6.513682721307147 4.837595617335045 0.11484629311863447 -0.10448706137149746 -0.19054445528289765
Ni 5.989373916515258 5.736152870682828 9.169922044458215 0.060312423736812254 0.41228744765578673 0.8507407550736639
Ni 8.780232821805386 2.5067581325393755 10.18225893448573 -1.0309311208157472 -1.1363152400802172 0.3243202383161834
Ni 2.2606582741000816 5.428366409428815 6.8711972901269425 -0.45842666521601044 -0.6897943251628571 1.9725277196307192
Ni 0.7134418959994084 9.2136508703685 9.230032333286038 0.2809531841844581 0.2093929554479684 -0.7773457871212806
Ni 1.4133826763606263 0.9453057541168466 11.3605559162843 0.1829944108497816 0.31389698610033034 0.0023319905672863064
Ni 4.0753408047327815 6.502008345043717 1.5976001448637787 0.5921595108265028 1.5632754592568303 1.2145893905017726
Ni 5.71234879926894 8.094495258806157 8.031342529175205 -0.010219877955795303 -0.3216756016044847 -0.06884925756322982
Ni 5.010101373426031 2.811812680471213 5.049911724994544 1.664687738357746 -1.940643726437929 -0.5805329823311679
Ni 0.7763223449359178 7.381138052119737 7.106958677917351 -0.3994702412864604 -0.011912435166869807 0.2362815523086963
Ni 4.973748713485619 4.427111070473817 7.158071865537478 1.354282567460758 0.7522250807942529 0.4153164642900976
Ni 8.350684983782019 7.512861806137291 9.00612016421168 -1.3673843949500386 -1.4166009658840055 0.05970718605264556
Ni 4.70154997644181 0.5774035402083659 10.77601206528954 0.6482334710019352 -0.7516344983981055 -1.5584947500387352
Ni 8.32141708572378 7.222951164388045 4.829252354049121 -1.284531109798233 -0.24613736205685355 0.35142789316625284
Ni 7.090498900151245 6.125814774202435 7.170239807474447 0.417122664260901 0.3263400969596896 -1.474576256847209
Ni 2.2539741928384927 5.313252688410087 2.767434569828023 -1.1575037012323743 -0.7174596522886095 -0.17945991533396188
Ni 2.321416026385261 5.118021056029698 11.695024974955997 -0.4354479449326501 -0.01480672599552934 0.04021976675199525
Ni 0.9794182451330757 3.3250025980418476 3.9010693219978956 -0.5049021830697304 0.419418145163297 -0.4887679965120292
Ni 3.4752578307614903 2.8861662547230846 2.9699012193233063 -0.14690537843670828 0.4616693405230242 -0.033667567455774275
Ni 1.201932585224256 3.40918195387581 8.397559152563904 -0.8192750803652148 0.3160482281153783 -1.0128202701476492
Ni 3.538073624416042 2.7565551803413464 7.204479787779044 -1.2395049227965298 -0.9221022375357861 -0.31852008669463855
Ni 4.422548775225784 6.759554920302925 6.065113481459247 -1.6585965378583436 0.45131525098220976 0.7617479326830235
Ni 0.8867699580003698 7.513335337779801 11.189783103877344 0.13613631284566233 -0.05762999180864268 0.5480864317666884
P 0.017125453978943054 5.5020643244833645 8.028609705215256 1.2112343579866107 1.206494015088148 0.41421011859979634
P 8.662441825730927 1.7611279231403234 8.041684642375186 -0.6709771924563541 -0.36920784285749314 0.26532653339079465
P 1.605754906130472 3.1584196300333365 10.643197367218665 1.360755062558979 0.5314182270823881 0.2634030911158367
P 3.980151838210453 5.984019366403795 3.8333898119920984 0.277293990165316 0.4091892683464372 0.17698162899679842
P 6.855080822801656 4.272839925170577 10.623965608068325 1.1809372496649662 -0.8825686982175381 -1.181940751228816
P 6.213117617601418 8.039501843630768 10.146219533939592 2.083943904021882 -0.1002928207844918 0.8515761064907655
P 2.3095322034337977 8.34744311330637 5.932286034459534 0.8956332447109802 0.7135780578460162 -0.29603501821824496
P 7.12564041185216 3.981645284159909 1.18781769972635 -0.48767784877164394 0.5137933149117732 2.3267758558545864
Ni 5.242650941787336 3.3977352370558953 0.4164701689501137 0.3178194610831881 -1.2921909403363359 -1.2951088853140793
Ni 1.51269683199944 1.1366216440687846 7.21258355333039 -0.1407038776116867 0.3112371798799801 -1.5604649863912285
Ni 6.901568881167339 0.9172854298090684 9.324408100276134 -0.23339857433394645 -0.027496919868688127 -0.6936646067515408
Ni 2.851680402219491 1.5619805483314828 9.205628151579047 0.38207518573846455 -0.6724357792797516 0.7248292052798033
Ni 6.384945859188504 1.6885136670369032 2.5031110282542715 -0.7203007212818304 0.9161223658032674 -0.3313002691784423
Ni 4.27989736791953 7.117289863464045 10.452845842669456 0.752079299245008 -0.2912504523454081 0.5257412313022688
Ni 8.184502696394095 7.673170479882539 0.022556497663427603 0.6861626419475408 -0.3250344907743886 0.06863585600084308
Ni 7.679909199410571 4.008126630629528 8.474009014971658 -0.9638394693735722 -1.4609622656082002 -0.8260625356006934
Ni 3.3015627817375837 8.819781820332743 12.498376870301518 -1.2893128474575926 -0.9137633786527876 0.3293997097216198
Ni -0.06815759483717813 4.934281672357926 10.295494009776576 1.147431918818669 0.8606649561659112 0.40272320100611936
Ni 8.608231559041227 2.1464551908554124 5.696658510421913 0.6097196311974532 0.9120600228084358 0.25579596819254014
Ni 3.642551096233767 2.555531891717946 11.468287096868735 -0.8845371347978185 0.3631652362078391 0.7668687988493568
Ni 1.0945501789072847 2.8186242510211703 12.862047350473949 -0.1297358086359572 0.5994095075206967 0.18908406868728728
Ni 3.1306816034355167 8.415094393541173 7.930582280751187 0.2160431137746344 -0.3808554543987505 0.8025703660160243
Ni 5.512536658885036 7.694215318841029 3.863470909582571 -0.1411337660602537 -0.08952272675218131 -1.8046555091343566
Ni 3.1217118213610413 8.34197928666202 3.7317362279117283 0.25830099400258094 -0.6471407521583887 -0.6038526308937149
Ni 3.2256064850033686 4.055170178037388 9.49672717562344 0.20548025065712355 1.183392138963362 -0.7038744574050071
Ni 7.326290338988197 6.38813309139771 11.283372990468427 0.012139463576011351 0.3052151420556163 0.183667011436774
Ni 0.9814853928801884 0.37744023395396886 0.3826454394704869 -0.40229691210197804 0.06895518701347479 -0.3590625268933752
Ni 4.64981664449755 -0.13011647834634046 1.3527760899459407 -0.24834156879702388 0.2850911176122316 1.0112174444369035
Ni 6.071895911600434 5.850465230460383 0.4405501636095411 0.439756599610333 -1.0678305649452577 -0.7093133690323913
Ni 8.239177388348562 -0.18074702794621572 11.050890809302404 -1.4452669663601303 0.7010827535924828 0.8575544355613876
Ni -0.26395746518857993 4.745916248793937 5.928301083560254 0.49796997472627136 -0.14702004963770163 -0.525681581708927
Ni 7.995071826634457 -0.16454951385903824 2.3060289799169955 1.2113019779997527 0.3018590810991898 0.565679205147787
P 8.642517071234527 1.4908870573107402 3.604439084113873 -0.42446110690384325 0.5432445302933547 0.24201125570362186
P 1.6864465192897906 3.1350253456177755 1.7040382198090516 0.2605352826497384 1.0700031471165443 -0.3384584774897784
P 4.813813401227734 1.1131818277645202 8.084054796726578 -0.4833013169705031 0.2477921240514571 1.4541115612349536
P 8.491150860430535 1.4229990112546833 12.612345009000482 0.4955647077188885 0.4685791802689801 -1.0946345725119793
P 6.518308761199363 7.726861683041024 1.4790997619633277 -1.6242651115663251 0.08145254814953713 -0.48051938334999184
P 1.7189016495572336 3.302710185332897 5.939749621655718 -0.32493113242730487 -0.7525541819988976 1.127267270945336
P 6.796317367241665 3.776697146730316 6.052705131149926 0.7821897454771432 -0.030932942133430598 0.032325965826215296
P 2.6028395240802817 8.484029673037396 10.198371759259919 0.12732257120877427 1.4894917405064605 0.6169544583829956
