# total energy = -340857.91078116413 ev
CRYSTAL
PRIMVEC
9.38645641766150 0.00000000000000 0.00000000000000

0.00000000000000 9.38645641766150 0.00000000000000

0.00000000000000 0.00000000000000 13.73802776480313

PRIMCOORD
 96 1
Ni 6.908816769836246 3.939674102147706 0.008873017253829888 2.0741202330632404 -0.36922378369709313 -1.3548024445199698
Ni 5.703332944727959 8.771906345273603 4.930660502437344 0.9111200274926695 0.44800289877952515 -1.21651488965926
Ni 0.17378930197073414 7.965177961799929 4.959922780326707 -1.227084694755306 1.9920889295920983 -2.701809304254921
Ni 7.411987152686987 6.582909616477284 6.103187540409356 1.6013401273390357 2.548713994957417 -1.02109922232699
Ni 7.913787112900407 5.608417097408877 8.382971952991237 -0.014207658958949727 -0.2841295250299107 0.19576996534789512
Ni 2.092935733793997 2.9302733516533035 5.4153517685340224 0.08150988375003382 0.38126143158791753 1.944171022864897
Ni 7.1183224771307385 8.778523797049706 13.33212377457599 0.02549685871952383 -0.9154448801202686 -1.3728829561707645
Ni 0.4120034862258085 6.814098038101985 6.62656508664108 0.981454097131542 -3.551852261930612 2.9306629395306625
Ni 0.947328114188915 1.2659889231916346 4.029363570532129 1.2507177607932138 -0.22454215238458103 -0.4051896602687409
Ni 2.9124766302809757 6.237929183672873 7.622599523193397 -0.7804730198963525 0.9682553390530808 -0.6036885945120248
Ni 7.749411488073295 3.14922183410632 3.922303525896846 0.692365428324143 -1.5940852455488355 -1.4852946717059774
Ni 3.5755640711593264 2.9574002107071156 10.809327759862772 -3.607913366590238 -3.784010278989238 0.7498547807898635
Ni 6.130332233730366 1.3929313598157702 6.182936751444995 0.5443462479979658 0.400811071585071 -0.02032071383522307
Ni 2.2123033000871892 6.943189973246302 0.38182696748113726 -0.6122791643945132 -1.0646645085124502 -1.6087544175252357
Ni 5.696527763823456 3.069230452495045 9.442915955370438 -0.6010565562058164 1.4619081744612372 -1.3130526142766936
Ni 6.9839647399348 1.8060574662294113 11.624624100756623 -0.48116858689821645 0.37134083004009594 0.040848144364613516
Ni 2.280871364235319 6.496760719454486 2.6514946573335396 -2.99242546545044 1.0075073425751682 1.4180590384867708
Ni 8.281717431651728 2.2587850322790497 9.35095308724109 0.765065941312663 -1.6324304209859368 0.6458672847626037
Ni 0.4761186154482886 9.122415400909397 7.221531258696894 -0.02990398664828398 2.671083078815658 -0.8915750154812064
Ni 2.5211458756745846 4.018426471511541 1.5114165992054822 1.6104179212705876 1.3763847986764361 -1.514358164730837
Ni 4.253313156965723 1.0941792248798794 1.7542770793884586 -0.14484566769420215 -1.0789991799675676 -0.09396636434583172
Ni 8.042972912608924 8.646766108282108 2.0652100188205886 0.14195163397585872 0.925579140340793 -0.15284205563611744
Ni 6.905728625674066 7.276090036638168 3.7072889073294544 0.3173746602362857 -1.0446577263732202 -0.5417882574628025
Ni 0.4412028748571573 4.86185589958743 1.1211230480335013 -1.4843618754790628 1.747227606034191 0.04616904235689468
P 5.161424656231862 6.887002645116157 6.2305936679806395 -0.9457890396297647 0.9886328742681683 0.12906629337275835
P 0.08084085591728542 7.108795223864434 1.7853528206581661 0.8818894127623264 -0.4051454372943668 -0.35854213561353093
P 4.774242715363112 3.043492788991393 5.874984950571858 -0.8494703730016725 -0.7585805906986355 1.1387423614644712
P 0.7622018501541 5.548982055357411 8.566265042087227 -0.7037078499201558 -0.645009821858315 -0.47177814682225205
P 8.01257018026453 -0.026402224618187566 9.42725465283366 0.2721625824760216 0.18968442127544752 -0.12619128581780847
P 8.000198830702965 9.209211963425174 6.110468614654353 -1.0164990045508169 -0.18559842413153196 0.2854806397411664
P 6.995481921962145 1.1284585637257343 0.54786399509459 -0.18014100056138654 2.190980471288111 0.7696450760429132
P 4.40519540829781 4.35859165217249 2.729567447252566 -0.6475068772485558 -0.650972467199653 0.0177570668731049
Ni 5.130599533348567 3.801026754367825 11.990715612695265 3.4700063349973984 0.6134310186107693 0.9227126174262754
Ni 5.174471830655667 6.135832697192488 8.526479607905397 -0.2794760854182993 0.5016656784103037 0.7022798592243775
Ni 6.4491432260358055 7.085986134763825 1.3271961282151974 -0.8056950276879349 1.1839734653881286 -1.7617916198912948
Ni 3.761875844639988 7.268458847568705 11.37710606089804 -0.973356150614756 -1.4801622355754185 0.7013663462711728
Ni 3.9040806594030504 7.052185505195389 4.319799305079897 0.6937132006012892 0.8278576798279033 0.06401404095811557
Ni 4.271757543831032 9.247058155710631 6.529862996665273 2.5004744432247388 0.8077318556123056 3.8155885680161514
Ni 6.099009628656812 4.989464774617386 6.667120210249351 -1.0115948823809804 -3.3055331228802554 0.5161044795434531
Ni 5.643428579855492 0.4260381158649987 8.723084569496235 1.33559990344959 0.05030620445371982 0.02424987368630017
Ni 1.4661363334353823 7.912182028852587 11.035826707860037 -0.7908453642696122 0.027135165653895205 0.8339856471025121
Ni 0.37301496219403746 7.702000496695855 8.879464810744787 -1.2786597386191205 -1.406678307453655 1.5228343205226484
Ni 0.4228711254688893 2.962722331497258 7.601745632965074 1.0521985148349555 0.4320672013858752 0.36501797314586165
Ni 9.262808629583398 7.99018348170282 13.37042520999782 1.3951052579040748 -0.2026795479835348 0.19402521474264647
Ni 3.6871221057110755 1.3130432292251153 8.562046768572078 -1.7590361686333447 2.1566837548887694 -0.4184892055911244
Ni 2.3546395252401315 5.729051835318771 9.99069265642032 -1.0792727453439284 2.517402843548961 1.4965658737444225
Ni 8.289555122762431 0.6175293359982186 4.095223642003088 -1.8292681654767142 -1.1345296089347043 -0.2014724150493111
Ni 1.7010511782588251 4.536145861813288 3.7012036676323654 -0.4225206953480207 0.1317770074357021 0.8845273646058056
Ni 3.4675447306779192 3.929855868732382 7.766684445177387 0.08641811968492859 -1.2663228143203225 -1.6801351832610678
Ni 8.552253878589086 2.1940935746323813 5.958361088368187 -0.6241838862518992 -1.1252013895552428 -0.12223307250100883
Ni 7.5796949695432 6.304328976387982 12.663343447878908 0.3380090486571856 -0.5562378572292291 0.6934339787979735
Ni 5.7451496080790765 8.529369697837117 10.990394381495934 0.8993083795697222 1.567043410939695 -0.414071536139403
Ni 5.999222210455748 6.129412361001205 10.987963289283153 -0.9493914122690423 -1.0430757265980808 -0.7478899437540087
Ni 2.5168093328085424 8.290371744470972 6.180079514110746 -2.7809620006266877 -1.5771221353319353 -0.11252741517747072
Ni 3.2168700255252896 4.880356605191258 12.69051723921482 -1.8681941531179502 3.1965959961572046 -0.1578888740314055
Ni 1.7568161158500697 8.850470985509038 1.6882940453383977 -0.6635276781568443 -0.4444910289715248 1.6873162743905394
P 5.003750961288632 1.4617153124615605 10.467855045822514 0.8186531305104998 -2.2725523186243315 2.1941493559343956
P 4.180699530100571 8.046436515027905 9.461599696874456 0.9423879843680157 -0.5285691876693671 -1.2106039234914634
P 7.0718407449388785 4.9954251744440885 4.4430153185052905 -1.1640836684427371 2.0133210994979973 -0.3964409675418334
P 2.102369122496101 8.345094785399596 4.113673660742248 0.11263951527530278 0.9061004627908911 -1.7812466432921128
P 8.467071786577549 3.3035727234768673 12.270023703157118 -0.33668595897038794 0.602031518524576 -0.21776138201732173
P 7.21296611721364 3.3549823452892302 7.894049272340422 1.052432742332949 0.4816884639574285 -1.4082412810654004
P 6.360882376318506 1.446650049907454 3.722510923705775 -0.8050144566811425 -0.23662865123546992 0.4398355324773845
P 5.1849283431075515 6.030676225919183 13.051785989844864 0.6214767717333813 -0.827553261213607 0.45766176202552794
Ni 7.883525177402314 7.419167791848291 10.502901258157882 0.6857162984387416 0.1317104158638248 0.1774169167620041
Ni 2.999404603186634 9.08284210064266 13.444762190261683 -2.331325937119114 1.5038896610993455 -0.7116145063617422
Ni 4.197257239225459 6.3171133300320275 1.7342745407574298 1.947610387563749 0.552150574533733 -1.013079694456623
Ni 0.0990374403331054 5.081189226753667 10.677785959592832 -0.21564073612989312 1.2256549042873148 1.1019604167494312
Ni 6.054996534503413 2.6199101701258676 1.9036925699733682 0.9688320374921572 -0.5498026431268467 0.9212200920411491
Ni 1.136446438139158 3.3250864815915167 13.043542803816816 -0.24270391089527235 -0.3020218319292992 -0.7079082611547486
Ni 2.3269588652575393 8.817871822362363 8.678545833783316 1.5280310342322394 -1.8747813194171647 -0.9058667495135302
Ni 3.4872093568778277 0.9354298420309177 4.767315510525149 -0.5109938977897651 -0.1890843257976034 -0.48421431570307577
Ni 8.795410032149293 0.39402842218150064 11.377889830009112 0.6401180409836523 -0.9079951087104428 0.10112482976748391
Ni 1.515762528527944 3.5273927768118654 9.678220338135311 0.29246812680259304 -0.3516137839248138 -0.5959315762744253
Ni 3.236816245417798 0.21466731967985203 10.823092998202705 0.21012983361399293 0.4968790556549378 1.0457460743413927
Ni 6.900209389299103 8.15246592674827 8.076174686257763 1.1348486828370197 -1.7715965217968586 -1.4050999072229413
Ni 5.130937445779688 1.0694646851260086 13.022207388374149 -0.7790216321618066 1.5558143749930946 -0.059936785564948386
Ni 9.197347482510288 1.0623122053339653 0.8226177769014564 -0.31337788037206676 0.013879586195569647 -0.08118618186202792
Ni 4.6164094506607425 4.760538488989906 4.705989097505051 0.21744950720385775 0.9365248407190194 0.7882313236855328
Ni 9.057188915246789 5.95725536380191 3.676158724612511 0.04038894534000786 0.9160377765092611 -1.9863929076485856
Ni 4.799924060128243 4.070305416144904 0.7451551066497305 -0.8060997193255213 0.8904578711576278 -2.1157178539993695
Ni 2.7994730814405466 2.437409297951728 3.2384785868497805 1.1418837353069302 0.6864454632952823 -1.070604528145969
Ni 8.92750563334801 4.580872326654607 5.420833459083305 1.664000225372418 -0.42535842190713197 2.163380964403287
Ni 7.452658668354865 4.088205388537851 10.507640480004344 -0.5956757515098773 0.8855979719621652 0.6258054810157222
Ni 1.3911854789216496 1.1514366090419044 9.652365343926409 -1.9701926437396389 1.0979680077605865 0.4937999025089818
Ni 6.980829663490518 5.096827063149393 2.013294467007188 0.4625720548429518 -1.2310236247983959 1.9309195571716293
Ni 4.873889336717875 8.165691443844057 13.155851754882166 1.8446855284730488 -1.7295026779506022 1.448743354944505
Ni 2.075035761401049 1.7048902389346068 0.9279488362641746 0.9779381135584836 -0.2823770611151782 -1.0660305356220414
P 3.353762105954629 2.8868234448851045 13.128237738740157 0.44975716246647063 -1.8171158463848962 1.0745879382737493
P 3.8950790476962664 4.528664856046544 9.716618454058263 3.1909678513371493 2.0549567727609124 -1.5011997729720081
P 2.2310011212758374 1.3751252519870223 6.947664497021718 -0.39767792527272805 -0.5239057207554267 0.1686538258573934
P 0.9304972591822056 6.125188455612204 12.474390325561657 0.20836991350009276 0.07023533927747903 -0.2835008903069763
P 5.082728605606547 8.519100914513633 2.362006954884193 0.10513163693403184 -1.4322875233813268 0.7784037960721497
P 0.8205490019064874 2.9550535966021148 2.214514749219742 -1.428067057542076 -1.0446680107858655 0.8839907753760453
P 1.9527020748791355 5.164587892045402 5.844363513792878 -0.6538636727045191 -0.2551678476902379 -0.056103527861787246
P 1.0817140107541139 0.8587593887010403 12.665060230758126 0.8045863680047884 -0.41949142160339364 0.3978843848565793
