# total energy = -340864.3899636381 ev
CRYSTAL
PRIMVEC
9.37526947364907 0.00000000000000 0.00000000000000

0.00000000000000 9.37526947364907 0.00000000000000

0.00000000000000 0.00000000000000 13.72165454144840

PRIMCOORD
 96 1
Ni 3.7079191322656193 4.992396696246189 7.180830256175547 0.11410452985660349 -0.5998548225882314 -0.6724972286453063
Ni 6.198581383681753 9.39383264765488 8.914958876212362 -0.951462178755142 0.5955045160393356 -2.5715479621327972
Ni 5.015853620819966 5.665850438415687 1.2073715965686733 -0.21457707075206914 0.2513487310544639 -0.32114595435325977
Ni 3.086226253634019 2.2472427511629243 7.0431197333990365 0.5870083056428664 -0.15489353884850743 0.13369736438686652
Ni 7.914283848819566 4.279913706674361 8.335397521698305 -1.7510865747689648 1.4547648785482366 -0.856177609818519
Ni 3.942085241409989 2.1975444469400673 2.599101307404378 -0.8080038783267698 -1.170801446782545 -0.8636577202456481
Ni -0.03188997959140709 2.2105291953552073 0.4003071370247885 0.6898511465427216 0.9906990127685776 0.06526848219050696
Ni 2.785158220525433 6.932721246061505 1.5665325503123306 0.7363058384608351 0.24902445379666144 0.38521655958092366
Ni 1.8001173927406442 5.339084791295622 10.858329451125206 0.1250420027047137 1.1422586021478456 -0.7856900453209178
Ni 2.7004057832165045 3.078566658359529 0.5825642533713628 -3.1571246775354593 0.24436021555177267 0.05497738467714403
Ni 0.3236221192185518 1.023385680505311 10.08715914882479 0.7487330084805944 0.8740647745115849 0.12755088516949645
Ni 3.176631978520081 8.314570360251205 13.167986184688212 0.6204336751808476 -0.23191479069956833 0.21098318275322375
Ni 0.7392737600202787 5.402105353639717 1.871565384940601 -0.31115104792407705 -0.4912177436041025 0.6404661683516905
Ni 3.0672132068571933 1.835715291464317 4.696648191116485 0.8909921463945428 1.246401392806047 0.42111738724259085
Ni 6.076637251814803 2.7874551615808185 4.097848783354871 3.074241310476667 -1.2171802911574006 -0.2309611685370474
Ni 7.992745480217622 6.969819187923389 4.857891578150643 0.4181557335111057 0.18494099305319117 1.3104750833575043
Ni 4.968677264123227 -0.1688429805831212 4.69516596099054 -0.539827791302322 -0.07186027647541172 2.0295385897981237
Ni 4.430471161402689 3.870205049280835 10.111116712795944 -1.6732263719563762 -0.5794901428889504 -0.527709410772233
Ni 7.154258867036059 4.656921423654886 1.475544621183251 1.433387184203409 -0.12544258057724203 0.24840816036890123
Ni 6.909526829036914 7.253542972246408 8.83304058290769 0.25330431211893795 -2.192508735007179 -1.0478942310326467
Ni 9.120515412603199 0.10178073950850881 4.726835621746023 0.6882760887461179 -0.5160749118570982 -1.396247341928318
Ni 6.062049332295699 0.5544731330274753 2.90553293225903 0.18068273199746945 1.3271026646118564 -2.206625634024535
Ni 7.581893039931209 0.021673748293227962 6.456889749608671 -0.7834724688443088 -0.2891624594681278 0.9966981677748059
Ni 9.440146479547149 3.650308100488698 9.846604730965565 1.550032478203995 -1.9591872937680712 0.8548714894125858
P 7.502962645052463 9.141272259528197 1.2099882343178905 -2.8789793951134417 0.5351861787652525 2.100471726473576
P 1.409637413325061 8.264562672131092 9.883158907189847 1.0914417766062945 -0.9365736916790838 0.8508626253635088
P 4.007168363069124 0.6436103839347871 10.100620160936312 0.18281751895228515 0.8991839381767159 -0.09912142618420994
P 7.171556239473556 1.1397702774912664 4.633213241855459 1.6613301347394227 -1.3737908126970146 0.7159079915307736
P 8.315854772188297 6.589473874960344 7.0364923553090275 -0.02737633513042382 -0.05898779138811776 0.8478945438741204
P 8.19060117014767 5.711723632636106 3.138773702292516 0.888670954460534 -0.40837397153399346 -0.0091739531897842
P 3.849260696963562 0.745283307842737 0.8285422647021841 -0.5828652300087703 -0.8435748334528439 -0.4034369392436923
P 6.243629554176156 2.167440456210093 12.527912152451757 -1.233966509476804 1.1860421749916994 -2.001453401526134
Ni 0.11612208943676854 9.1118995398281 1.582971148053202 0.3145163648518841 -1.6894996551951034 1.8078156520298931
Ni 2.245555202632437 9.301504992497986 7.790057776328612 0.618839077000218 0.6248426028818206 1.0185957391788456
Ni 1.5697013914418017 1.0158573390054138 2.7756301340169083 -0.06445704203280511 -0.5729276591800843 -0.025685320581246087
Ni 5.677803907173307 2.821215507460183 8.293107555524287 -0.3434764995296601 0.43967612408138473 -0.5116431013379898
Ni 6.179624588522611 1.5203124711162006 10.41822148200887 -1.4338229861892469 1.213830400848561 2.3229770509337864
Ni 7.4224947059570505 7.384224855393438 11.664133874432993 1.1166694408248317 -1.4955554302020373 -0.39063284550048855
Ni 7.130839443540738 1.9150113218580023 0.6191324925000657 -0.39017081826240546 -0.40068380197858733 1.7360307088771068
Ni 3.161912805226384 7.498584394142809 6.193268418391602 -0.28458795272356796 0.4578147426636245 0.2257978791685531
Ni 8.137359014010787 4.002752611081015 4.8282526007935145 0.8292787285451461 0.8066067408689269 -1.157688820659987
Ni 0.8434573811308094 5.451925536367553 7.445424740378529 -0.5186419012533261 -0.0394566633337256 -1.2538907592045567
Ni 6.700523943536036 7.720843910877628 3.061561794333983 1.1993892857225665 0.17489080790604072 -0.28805328556434906
Ni 7.88567052595819 1.8059488104404398 8.707885421198007 -0.5811377057947024 0.35743707547481024 0.8564390910100219
Ni 0.801969000508774 5.4921173172019975 4.5525840481226885 -1.0259172125409235 0.5126018657068333 -0.6921430279006918
Ni 0.5738846287628886 8.267600259485969 6.577310400163374 -0.44610465331554777 -1.1412715556442279 -0.5490400539292093
Ni 4.36140355015768 3.907612375039975 4.185612557263758 -4.008954037687612 3.0736257883798546 2.393604740553678
Ni 6.5153811192023285 4.988646588400662 6.346087188150783 -0.4224882994481885 0.3381872261062627 0.5029052072443597
Ni 5.388061199758215 6.994673027669624 5.436615721088186 0.310167086744253 -0.019120779989850942 0.06863714155242373
Ni 8.243468315499998 1.7486190367519336 11.791141589418368 -0.2461525315655051 0.26286675899639245 -0.22239553835522347
Ni 0.6650619383381675 2.226382776272176 4.479695076983087 -0.4689370778290311 2.0262028405566714 0.8718698237427952
Ni 2.553898444961347 6.687614197277807 8.489038502602618 -0.8343137198658922 0.7960546763846935 0.8789185030594605
Ni 0.4241559478684226 7.212526167685948 11.744858695915825 0.49626507622002275 -0.4063620833102873 0.35202001822429696
Ni 8.97895821670414 8.606572507643229 8.888627493974987 -1.7423779912513735 -2.267694733421714 -1.1230516902020917
Ni 8.705406599912113 6.4422165151360815 0.3094288985501904 -2.6057762871880477 -0.5141365571838049 -1.025156680225815
Ni 3.0042488961307816 4.731014179412902 2.358958463881198 0.3479360779629105 -0.24943505897151882 0.5610453059202015
P 5.405742958249879 3.6023160953355564 2.1513356180674736 0.43704614265770536 1.271014306258721 -0.09170662177737754
P 2.3667493129302817 9.398801540550204 5.1715955996447365 -0.9234273841051128 -2.580318252126259 0.30267180680847233
P 8.85318897483475 4.966605329538572 11.409651556035476 -0.4606455272442002 0.9394445854689756 1.4661726061645457
P 5.039066788383783 2.6708174323152902 6.05964738822064 -0.49884029314636674 0.6051790630146223 0.823198326679021
P 3.9667422004943345 6.873525793719848 11.423387263546685 -0.3820921550193291 0.17347233029195933 0.4534204702506708
P 7.592955858075516 9.155541419880429 10.494582115486468 0.7118420489915159 0.7250438923937707 1.1894514577835642
P 0.10786435196091632 0.9040506861718863 7.694967229216526 1.5080314511818609 -0.13745220344360842 -1.4895382774736798
P 5.459350749901699 5.19448063277207 8.443894704358154 1.1137777210993336 -0.5393657640642389 -0.010885022343619963
Ni 6.725237154238065 3.8046344136017813 10.481135166279365 1.7352658056866244 -0.015951895343566076 0.42621794169394983
Ni 2.402628469742369 2.0627655709717976 9.236087173713637 0.6196050086319652 0.8742146698258878 0.9168443315709566
Ni 3.382906660563338 5.7328836161544965 13.245719357637274 -1.5875914102943756 0.7374569213461429 -0.3961689448273693
Ni 4.73916128870731 2.663917233879519 0.2633635113026882 2.5630473808609535 0.6746484706603542 0.4737067313035326
Ni 1.82266491616188 3.836425952862243 5.88325544054447 0.6922718401690723 -0.42610789847864683 -0.3891076671052138
Ni 1.5193655688852048 -0.024552893591631934 11.855880638682676 0.15941250976478352 0.697171848573851 -0.9721225353179709
Ni 5.220590758646557 4.632761353860073 12.432299402822181 0.5632667390515526 -0.25782122615268505 0.2807757780663293
Ni 8.430420566869172 1.6122088638708596 2.7522482116000426 -0.43120022539988967 -0.06480954027621741 0.2706813699448048
Ni 5.644052936563557 5.871806361292074 10.474274343975974 0.1537879644891545 1.499335980290392 0.16024631851998852
Ni 0.6920345890171263 4.3182398088556555 13.27581116051675 -0.014689226581058574 0.7423348182637344 -0.8843432736194575
Ni 0.3328445719376661 3.017252395085149 7.445465991564831 0.5754568533598412 -0.5606778952784538 -0.20943152199538767
Ni 7.532757251885182 4.0387442711284685 13.031125998865674 0.5831966452062601 0.12716856212941327 -1.1607520329663428
Ni 9.187089202130933 5.961040177476408 9.54734893747333 -0.47263638105748923 1.9541654150734475 -0.484598695625688
Ni 5.596145308836939 8.687846719925428 11.910958472609941 -1.6995426412534023 0.31093507525852904 -0.03985081344835072
Ni 5.496570570268562 8.269990953237492 1.003464170102906 -0.8317798977004449 0.15746207090663206 -1.696115617849724
Ni 2.874195156047877 3.836219696930739 12.021404773822505 0.35239694194774146 -2.3321114091348867 0.31693937247107995
Ni 4.269347777819587 7.995679939606748 9.334471253041059 0.0809259862221058 -0.22571277565391448 0.6136791300658334
Ni 8.607650663648817 -0.16898642220821267 13.251166389282902 0.5397635137232897 -0.5875798618756204 -3.085902548864679
Ni 3.923662836618834 1.4267941567183509 12.194805072964904 -0.21755749353663173 -0.8121492679537109 -0.8216620925401525
Ni 1.593111439667509 0.6919389612670653 0.2746541484986111 2.7471501942835657 0.30273351328434317 -0.21471591032277862
Ni 1.1838527952154456 7.708243548516655 3.1338066844511143 -0.19815260664745873 0.12752286014503844 1.152922509619595
Ni 5.985678386021526 5.528362109529024 3.5052923676290995 0.18561847873619 -0.4147906736936147 0.5894613951690493
Ni 7.412322538426056 2.7094060420457713 6.5994575995721005 -0.88310451611635 -1.281322115942632 -1.3501801152566102
Ni 3.4297830086324357 9.0840174879966 2.876264278051647 0.46090623710475453 -0.3098809229624018 -0.12870633893017833
P 0.9994131161027744 2.423713451103849 11.920591562138144 0.7001589562266328 -0.740598295188602 0.19084913100751003
P 6.4087843036932 6.542606902160861 13.367142224513694 -0.33751848217401226 -0.7002206627025037 0.39178598526832525
P 4.621867290568815 7.284021973760935 2.736386192940421 0.24795513199188265 -1.003958448881645 1.1514320411169976
P 2.861885427044932 5.5565066689097105 5.086809411365198 0.8841054465770386 0.18181838826380944 -0.31561808255649515
P 2.292206544230803 4.468094118362947 8.86154046500674 -0.18486360284803646 -0.8842867093499093 0.49582593180007506
P 1.12274478787257 7.342214272253914 0.36790245513158276 1.3371207109694905 1.5893065932132693 -0.7300346607401427
P 5.25007598158202 8.277566171085459 7.339479506107563 -0.13006362428902118 -0.9334410595873732 -1.6672858381022255
P 1.6001147660690322 3.095535896360542 2.555534429508959 -0.5358400102991674 0.8696419628535409 0.11410298719470671
