# total energy = -381171.96124928823 ev
CRYSTAL
PRIMVEC
9.21515326871209 0.00000000000000 0.00000000000000
0.00000000000000 9.21515326871209 0.00000000000000
0.00000000000000 0.00000000000000 13.48730829072350
PRIMCOORD
 96 1
Ni 5.4741880911881085 6.543219594150105 11.589643955639445 0.007648003463561021 -1.1665722391925457 -0.4994992668866043
Ni 0.8656558343794815 6.960933277669899 12.473130190121344 -0.9958291349062915 -1.1610392251894586 0.9623405162305426
Ni 5.436691632447743 2.149388429318416 3.1582551179599463 1.9971838276165024 -0.24104066426023651 0.7148656663091882
Ni 1.113153656918465 3.2215622995525837 7.571747733852939 -0.9780124184398447 -1.6946470037239976 0.7488132268992265
Ni 2.9469783769458786 5.722518042069254 12.133856812928379 -0.42708388923867097 0.09287878770860779 0.9183111459244699
Ni 6.65277855162472 4.6317664228007835 8.641169959314466 -1.3240042281921909 2.3015006262275652 -0.44625943372585725
Ni 3.5326197988843724 3.60566831902074 7.274784811479466 -0.07651577296955209 -0.7923749135402611 0.1380589837896719
Ni 8.43930188981033 8.021726433589897 3.120666507686672 1.1658186488559728 0.07195874972648898 0.10470971890526484
Ni 5.19587203149862 0.48589752423393584 0.9154204266959223 0.728263684882649 -0.561646172728994 -0.1253999002647647
Ni 7.1189178656877985 8.921678303971843 5.873763588485573 1.0409458247392718 -1.8033295912340814 -1.283265869932564
Ni 4.1340836390232125 8.123775041132491 12.441664127694493 -1.7133975448586234 1.330380821142496 0.24126357890432
Ni 2.541023229025176 4.091187100454423 0.7754569924535598 -1.293742858204488 0.9868626697416231 -1.7903180094657618
Ni 9.16010196506535 8.927299547479246 11.55517006717847 -1.365713435005519 1.1187106396245767 0.5403458685893211
Ni 2.884315334568271 2.4008883929316047 9.26184278648803 -0.9682214004913519 -0.6646054846020555 -0.4523056399199371
Ni 7.124465387968875 7.0832552224523075 8.091603097963564 1.6912451771313002 -0.26210879778444535 -1.5266665497845449
Ni 7.612306388031846 6.8646994318538175 12.086354540744836 2.2406397861864513 0.9601411945863788 -1.0857850925411494
Ni 0.310074242475658 3.1032950222181386 10.219320251287947 0.3713045774855218 -0.2824778483591006 1.1362849010629141
Ni 4.540637771907818 0.7687465178271812 7.884869427521872 -2.0510623228025127 -0.7461868450199729 0.24938955044556407
Ni 1.1173834122789537 7.6966158254896015 9.818329306445012 0.15536482205797114 0.7319953840109393 0.20629349058703825
Ni 7.173701952001752 1.6295524170297015 4.572278000731864 0.9907131538359648 1.2134840732527359 0.29759387806493265
Ni 3.5376051968147086 6.905679218538115 10.181797990118367 -2.4151963506815246 0.2097423683675872 2.0165601752605853
Ni 7.055102929148838 5.084949231336963 13.30273450179646 -2.1126541274723807 0.5188769000822676 0.4452135089598461
Ni 2.0139809668630373 4.663153234909333 9.091713547948153 1.4583651943049851 0.9892085442659804 -0.11367464140803647
Ni 6.158182844199575 8.945324387316099 11.662098098388554 -0.050608823295803164 -0.03248228889842148 0.21370495255976096
P 7.376241806180789 0.8028435065185618 13.050130562819032 1.078528410978736 -0.2001639806505327 1.9837531560328934
Ni 0.28489199307782126 6.455555840894489 1.525319818157183 1.2984047824565317 -0.2667578665206825 -0.6208756478142727
P 7.697297746833122 3.38197968803926 2.5932455027242804 -0.17483321519522793 -1.190200934355079 0.2195624397818025
Ni 7.804580561444904 1.1735497715865302 1.8490960720609684 1.000351448256677 0.15390340702109623 -0.31568133169426277
P 0.8986774146818228 4.684799629989481 12.747286529615353 0.7992104484048558 -0.2964178554789605 -0.2337973524342619
P 2.181042480872399 8.400211209550651 11.669165199447288 -0.004096024446244559 0.36034859269465036 -1.0292606750918596
P 4.504330067941969 5.179653361706769 6.241211375349906 1.8918835263150902 0.22170931092147622 -1.1989115747552
Ni 0.21259450793465579 0.7258794677489228 4.795047880930249 -0.22547494861149558 -0.9519591729962187 0.3903420537329471
Ni 0.4938529660699048 0.9846114836647507 9.57372319900869 0.1706819120310157 -0.44718631641550083 -0.08283940119473475
Ni 8.849975196215935 8.955682219614985 7.769579566215693 0.26057822007253184 -0.16557955780744388 -0.8824362864047319
Ni 6.475211762863818 6.217086104034527 2.045620274171755 -0.42787836011550834 0.21170283452806765 -0.08988268119476134
Ni 4.341857700271437 5.411276239671649 0.6447216127166293 1.424007542760722 0.49363869434076924 0.07197186235261153
Ni 3.4824525043691223 8.147034088038533 5.249044387502008 0.6497367950203391 1.852961909549228 0.32444159438539605
Ni 2.2110654502939058 1.5758188581909025 3.8530546382049042 0.994106752898546 0.11075798198187375 -0.3555408868933619
Ni 7.210691577311122 4.203823919128173 11.10566502632066 0.09553705126706127 1.9882109346939307 -0.6508115161417566
Ni 2.4188855873085853 1.5802237014639167 6.3087962311001435 0.4034297401548407 -0.7411343701977301 0.07410304976300142
Ni 6.722795286328407 1.044436258828785 7.591480141594582 0.778946041728865 -0.09229823261478944 0.2398852104995546
Ni 1.9761711929107832 3.8895319009913054 5.515013984812449 1.162408080512527 -0.5940317881485512 -1.4786123745897952
Ni 5.411469757890756 7.489707988650714 6.706888088717784 -2.3613327678938494 1.2035297902535016 0.36746360647287685
Ni 7.0485970309255155 2.049164422127406 11.395143401191323 0.719354041097845 -0.627890388569209 -0.06090969100117897
Ni 4.319216068635881 3.2970159746978562 4.857170915325015 -0.7954414682807268 0.3742806293947102 0.3394082429975574
Ni 4.423052415916894 4.636438505519232 10.698564434845908 0.7761160284792376 -1.111129741953525 -1.0569493992563797
Ni 8.380721160340558 5.382875137229327 3.201023565897993 1.1992026236330573 0.4937518228798658 0.4791181321270909
Ni 5.160375261022364 1.0883188187996924 5.605878160805969 -1.243717932436613 -0.3724592599152553 -0.4548518033805586
Ni 4.265666812862898 7.65938660619467 2.1947490998771717 1.4772214077795398 -0.2599722110574168 1.5049870079285823
Ni 1.9325282269254374 3.8034900147148747 2.944305982491539 0.5368021171021207 1.7012747934531602 1.7000679176292528
Ni 4.805499707792703 4.699728178320616 2.925990865326025 -0.9626197380338584 0.23032610605620976 -0.32050137879072543
Ni 9.189396937376882 3.040337094935224 4.459969241515267 0.3296712182154516 0.7439232457967768 -1.916338574033661
Ni 1.036271633013114 2.443987664872792 1.3443775187458522 0.020014495448713917 -2.1179655123829653 0.42855713135008777
Ni 1.94216727726764 1.3716387067260989 11.573675016501776 -0.9346667044643582 -0.6961133254023495 -0.5125910670735558
Ni 4.199953554746028 5.716187231758457 8.456137974872666 1.4874130036005608 -1.405738569248205 -0.7478200097480219
Ni 2.4638463202145195 3.5287586496555168 11.243748569291693 -0.7793047106198644 1.27754336562649 1.1966734294533001
P 8.295582359086628 7.175858297871804 5.080615344744288 0.36815523322326277 -0.9624834695663103 0.8837377788249748
Ni 7.791817574137111 7.792305977261526 0.8484271837869556 -1.178607573090525 1.6217765408165166 -1.4338939486364983
P 6.034690574949232 0.9837268289488316 9.868043215418355 -1.1549269416441337 -0.3490516796245924 -1.86036411555057
Ni 3.6250477863913444 0.33886514590218175 10.184347823033939 -0.1978286476491367 -1.5445994801138818 -0.25372545881675657
P 4.256092268593732 0.3630963914804054 3.5212123606256602 -0.789807409923401 -0.551010804502335 0.3659607966751052
P 7.197633705098024 6.303644038895244 9.974484686534684 0.00940226715050639 -0.6419301544917267 1.658869331903756
P 5.225498749328621 3.991368560008209 12.68283113992268 0.1695519121916306 -0.5256479002575141 -0.7545537289274296
Ni 7.635408777331943 8.534863029436183 9.806041821047028 0.37679079741107363 0.8393181150590189 0.10987197983249464
Ni 7.5379401009748905 2.6399663299087615 8.902163373847863 1.625472244500549 -0.5602906871423641 0.8714443061696023
Ni 6.69344502309713 4.384376417555303 4.160524678360575 -1.5336224122770878 -1.2312439683393184 1.6237375211976295
Ni 8.882596838865455 4.761368338682942 8.874622045207575 -1.0098221067512738 0.5914707122895942 -2.096609158194376
Ni 0.04321814741863894 2.4200190511633566 12.744791987619529 -0.5561103305124293 -0.5103315816154178 -1.205510825239272
Ni 1.953953458326605 7.899247831201547 3.3455945767857678 -0.7397398038430486 1.4805802969494437 -0.09763404300540605
Ni 6.003045738548541 3.3154923570459602 6.629389571057278 0.9292468190003673 0.011147531976387253 -0.7485044374095561
Ni 5.213141228765626 7.895939591170141 9.2517402139353 1.865092117153859 1.1833707988071231 -0.27274288045952383
Ni 6.735502982716454 5.744265803835599 6.233914816974231 1.0823943216920457 -1.3847650523203312 -0.4273152885231867
Ni 6.4107701959010805 -0.1693883402152949 3.1728353334966894 -1.6497933377444165 -0.34196649064303686 0.09094840345511433
Ni 4.009135375552919 2.6865489297938807 1.761024087514569 -1.7997385314487135 0.04455207557876198 -0.8870290479817369
Ni 3.1415379083750614 7.7284541801094 7.9857947078783145 -0.9185386885542439 1.7493479948113035 -0.3676924346542313
Ni 0.6058917212950811 5.452624632487578 10.707236815607903 -0.26157735076100763 0.3873554603007974 1.4376657569741047
Ni 1.1076337800972609 8.01916462097505 6.000503277755602 0.08364029982947531 -0.2523879709522556 -0.3640363259588827
Ni 2.5688622071167577 5.894030475118083 6.689462233844836 -1.337845247840341 0.024316979478809734 -0.247641971626838
Ni 9.189562810136117 4.600130801553383 6.20029056564667 -2.092557870943138 1.8618057330931033 0.4327081774039838
Ni 3.3140732234391725 1.6611603928172305 13.342023307851893 0.13031276418534976 0.346921520655467 -0.5730605852135228
Ni 6.337684815151549 2.727491855865015 0.759403273905614 -0.09403167036612838 0.6313073846705579 -0.5024195258571929
Ni 1.1512122400095712 5.924403620364642 4.400962771963458 -2.06154573883234 -0.12606170221847965 0.45501069755592605
Ni 1.1522351220248528 -0.19018509816202817 0.04617436859433551 -0.6943243518227269 1.3278308010271325 1.0123315034366889
Ni 2.58073132455534 7.268866840036099 0.7458763503900124 -0.5587616520923474 -0.1106232561762224 -1.8212661211078442
Ni 0.6992955935355516 6.638448988257488 7.854523006219858 -0.6894207438735223 -0.32352036812270735 -0.10791254211327866
Ni 4.539891344491261 2.201131515046397 11.252906588632115 0.45565141646371854 0.5196397463902211 0.4867591936121166
Ni 2.7156411687330144 0.2911656694382147 1.629658391292546 0.9157570120440487 0.8858859355162291 1.2727328316117241
Ni 8.693732272170001 4.1305726656194075 0.8172431050508047 0.8449629720496221 0.0624091583648409 0.9860098348230244
P 0.6754329540889609 0.5871610007161507 2.4796281917403853 0.11930921398599452 -0.7060028166019197 0.7345304917279672
Ni 5.879184863166565 7.013772966639489 4.3596106930862115 0.04543242130118627 -0.426554241987446 -0.4444563190788474
P 5.494553579960831 7.2617343113890005 0.2912126667199979 1.801141325333511 0.22880349876409628 1.0373359959008261
Ni 3.354923997977399 6.051416078172079 4.458000884772347 2.036584955121944 -1.2279532134031885 -0.9523795483630889
P 2.360959133722461 6.042855200764904 2.37175652883332 0.24068996578903706 -2.3303070089362965 0.9839928043929959
P 1.9234144403208115 0.3479365428016696 8.064844135837667 0.23744266249633303 -0.021923282435652565 -0.32256443196734125
P 8.398773645637283 2.3677230562379266 6.35864560282686 -0.5345742562128664 -0.12236368454160217 0.7463400827683856
Ni 5.177727394668986 2.898939782840809 8.779158586206604 -0.2035462668592043 -0.5449152331275583 1.629027051731343
