# total energy = -340860.7636631936 ev
CRYSTAL
PRIMVEC
9.29709635980084 0.00000000000000 0.00000000000000

0.00000000000000 9.29709635980084 0.00000000000000

0.00000000000000 0.00000000000000 13.60724028747046

PRIMCOORD
 96 1
Ni 1.034924877903697 7.8454012670429885 4.173177425975069 -0.9389704740460345 0.22697235909262847 0.29044081195991917
Ni 0.5037120334035534 8.826393688837381 6.7052258204231725 2.7390383638097084 -0.4691422518613017 -0.7141974365975701
Ni 2.7304177508120704 2.1309967587087715 1.3977905496751364 1.334813660102869 0.9687438486537252 0.061342664773539515
Ni 7.829149942568059 3.928302134091371 1.494905229347771 -0.6260379087415024 1.4279881246750248 1.2609762052964282
Ni 2.9990945391421455 7.54920507342356 5.374914525994879 0.949598900294158 0.10846635773421966 0.4590902669419384
Ni 4.46493053723376 0.4328030793015609 5.708496203583748 -0.7123087042152894 -0.7612391113674051 0.7320342076686748
Ni 0.4382623342968002 1.781425934762932 6.018985753180154 -1.5250683520594897 1.2641180933595197 0.6030928699095549
Ni 2.6176811600895378 6.321904677193073 2.704044677506561 -0.5541663194121811 0.5894891630831913 0.03272602947811138
Ni 9.200276419820943 6.045390436613361 3.2542533493334638 -1.3163138015264684 -0.21712657664680024 1.795420877909966
Ni 8.137478846965395 7.588039045009245 7.440615917396831 -2.3635279757729553 -0.4141538114405642 -1.2719116212620094
Ni 4.048467104822753 7.882487384508945 10.079468425366407 -0.7219146027361697 -0.2565536722941711 0.7801048379236565
Ni 3.230731695488172 5.10303674738064 6.731801570429799 2.209101349258537 -1.2274400212121959 -1.4650521194068573
Ni 1.4381585421637755 3.851322176052234 7.201060424062649 -0.9710902373987147 -2.2399759273502067 -1.0026656982121507
Ni 5.687470820116901 4.733542245889165 9.283920536546367 -1.1360416747038564 -1.205230317884376 -0.9581552745046014
Ni 6.142972760233987 1.799406519164827 6.839706460162847 -0.07372381204671173 0.5627324638146373 -1.090113030492542
Ni 4.019339301859394 1.9278923911576862 3.8424127685898055 0.14023002329906173 0.07853614583369055 -0.4235159693817545
Ni 5.434645581117348 2.9636354135429586 0.160958770234296 -0.08761753930966845 -1.416179819186187 0.9892070016040835
Ni 7.4671024152781955 7.149253284186165 12.850772946645208 1.0202289039068946 -1.2764467901282017 -0.7948043489173602
Ni 3.128705359797171 0.5764441481059656 8.977200029823038 1.694959906978726 -0.6317444722079766 3.1862105391578224
Ni 7.33936960809224 3.9539249317188903 12.674531609378938 -0.6304702334812432 1.1691417996919349 -1.2628945053650638
Ni 6.567338724569302 9.011545363275717 0.49800361622528894 3.5405815741127995 -1.8292403975625724 0.8366351689102172
Ni 0.080394781540076 7.475581367178159 9.282899715363675 0.13784301112412387 -0.3126708270027131 2.288901192296
Ni 0.10522360713661215 4.502741828217477 10.871490855238568 0.019452709407972953 -1.8729645779234 0.10041391974338834
Ni 7.41400669784323 1.0150290916472051 2.073240406857741 1.0190783352422192 0.7168708696646752 2.4731932389112825
P 3.559728045141667 8.264467886440826 2.7705839963092305 -0.7243658924901395 0.06145862152611351 0.6726450670770804
P 1.6860656171774937 1.9717653889821654 9.552269137374173 1.5310291976286148 1.706545040713164 1.6407062878414842
P 3.819665562873096 5.544425695190553 10.8350648316157 -0.11990493858846446 0.6513514478056266 -0.3936402648682446
P 6.6216523616302485 6.644002581331467 8.886153564958633 0.20119139347378254 0.8818816994528424 -0.7038058089506007
P 9.240040101044784 5.829279431224504 1.1917055330241297 -0.6938157876174245 -2.0655173218855785 -2.570747320608373
P 1.972676504427556 8.608246619340967 10.806475330532832 0.08010837541681688 -0.7143848700180278 -1.0025427994810412
P 6.062887572003416 0.8873334728467769 4.109427236086861 -0.0663858836244018 1.3834645883413528 0.3073126480145933
P 1.528619289956143 1.919376250872197 13.182802938847999 -0.6150127612755925 1.8988095640109623 -0.019732702542236982
Ni 3.5447132344854833 2.800025111420648 10.974484088953249 1.5005469698793579 -2.665108606399778 -1.0058885760248224
Ni -0.024664266990582915 1.7311844259170992 11.318747200574869 1.1824097204454345 1.6821763820608129 0.29421467718005456
Ni 3.2323400931621777 0.929997848141656 12.24980956625221 0.5535559395216918 -1.1715100428137952 0.32826379634496367
Ni 7.76944398960582 2.4616108031326545 4.425210552362914 -1.132735493148759 -1.28226596791314 -0.43200729468221727
Ni 8.770731972801112 5.418496524702616 8.382835728441657 -1.8428852420395163 -1.797142488586763 0.6330341375536775
Ni 0.30521995536734925 2.0692919300245016 1.6313447672950356 0.2854068490804375 -0.6725003139690999 0.011335479617477252
Ni 0.28455994778829485 4.026804870253769 13.472814703954429 1.0376087899462387 -0.905134499333196 -0.5043897622096862
Ni 7.98659626978941 0.2792429383676931 5.506551183951442 -0.5907196930561827 -0.5319476172232969 -0.6113833920531212
Ni 1.6834345389015186 0.21535608116267646 2.4763820298636423 0.5215356778613534 0.4070423972067635 0.032055228663331894
Ni 0.7902141446259516 0.3034153889596926 8.857129889474747 0.5188313915563129 -0.7327515454506736 -0.26371368037772003
Ni 1.8964124228097974 6.318250918315129 10.263764766937642 -0.5339152824726289 0.8173053582333538 1.4231873608522716
Ni 5.735806424204518 3.125888339593565 2.5255850530436574 0.023544362978843325 -0.17410944965532596 0.8351447004076197
Ni 1.1158839931941325 9.15503674882838 12.851603177352077 1.1998047759934305 -0.9684795392487449 -2.1341968866401633
Ni 1.9502426108589044 5.321258193648108 4.7469402914845995 -2.120132181016981 0.023868836197797602 0.7875183567789082
Ni 5.972464012596575 3.785415059803509 5.150014045686915 -1.9178552677885035 0.31851134494389016 1.1033220729836484
Ni 7.870866014032021 2.0784216786711727 0.15117357629272693 -0.4392346656685919 -1.612214351049378 -2.2487912116489914
Ni 6.844401493835525 5.414461584873028 6.925649748823425 -1.1099056397384368 -0.9526700830203141 0.7850380135592158
Ni 7.913985947049596 0.0674513639576984 11.92805286555102 -0.3523313788171287 -0.889736676720887 3.645995775284256
Ni 3.7878601961518537 2.9064582707964983 8.509137712494493 0.5560082577169263 -0.26825116323675735 0.3190790445219021
Ni 0.8310525701914968 7.601398972509515 1.455416742176825 0.4855389480517702 0.6169457166322471 0.1863936663393177
Ni 2.6224412734368854 4.274702648171106 12.27570383909407 -2.0259727268237366 -0.7565049391165294 -0.308213819672624
Ni 5.075768363693589 0.37502627383849124 2.2292466138495914 -0.9748106236730955 0.48943108401732477 -0.9673235712674307
Ni 4.946389970448101 4.2997862142084955 12.017900934691843 2.2740044776898256 0.22602516468801076 -0.8334781113384742
Ni 1.5235151840426784 5.899844392760379 7.903724741773292 0.21580425829095093 3.284290411451395 -0.08096995208616377
P 3.1495587469809614 8.676580277745273 7.350427574528442 -0.19954408767834667 -1.379961717394417 -2.5062385994020255
P 0.2255661524088818 6.385664164177663 5.911556874781842 0.33058524538928874 1.229335952683328 0.19814335067607813
P 7.170887627466004 3.5895438332372605 10.442930970725541 1.140879462412132 -1.6885689158507178 1.0851775408641373
P -0.11608540483916331 0.9028400999015446 3.6510404069625837 0.7606804106504577 -0.9816569571709673 0.27596061606587313
P 7.252488242406766 4.499757460279003 3.682309331222611 0.7812939731357512 0.7431444586492234 -1.6802310854089837
P 9.02522139205296 -0.09765391126276367 0.67059770258108 -3.4656804539285346 1.3615217655216745 1.2750141714467333
P 5.081616237317577 0.6813460757077765 13.358527357555454 -2.5974217445757657 2.0501302979065468 -0.7203901956718431
P 5.919284621294176 5.6392839695713874 0.43084975935179975 1.8782841903641005 -0.5067351225134112 -1.5582396966051357
Ni 5.989068626734002 1.6518151141079067 11.542599898120633 -0.3836708123603586 0.35651456366054085 0.987620373843254
Ni 6.310190335752334 2.031973385149007 9.23611858579105 0.9625202363415163 1.5911845269622726 -1.5076308733093324
Ni 6.806404260924177 8.241690000306058 3.3312426044689825 -0.09604021615572492 0.5859017028422491 0.8308314177442465
Ni 7.376604479100302 6.834146796526687 1.6695400283593096 0.5474534261683798 -0.5552785786397534 -0.5162209505166593
Ni 5.0357257695783035 6.572675257892305 2.1085916861389022 -0.744671179706395 0.7201312855835017 0.8875517532544263
Ni 8.144209944745628 1.2032116195059217 7.873272102575563 -0.01561893748417955 -0.5694294162188387 -2.2378581096762553
Ni 3.715742619520261 5.937209423117782 8.732282901005622 0.5555020075044691 0.5144576879686495 -0.04161227622414769
Ni 5.83161300241627 8.876281908020715 7.878497070741989 0.20696506273276613 -0.3772826494458276 0.5426444348155106
Ni 0.9830284859019504 4.255550629625137 2.237928242450672 -0.1181308774071772 -0.3075283635698252 -0.47427828753628637
Ni 5.231578401951789 7.6450023545389305 12.920605296986219 -1.7126886917170567 -0.5794415490392021 -0.870715655533694
Ni 0.7375553907209187 2.842410573824081 3.945024821352844 2.129957651747835 -0.075407884617354 0.3843197587982672
Ni 3.8240073068832747 4.3789509898972945 3.906815614643998 1.7170564817674492 -0.021870060600213948 0.5138478222987924
Ni 3.013551524015438 7.985536400801915 0.6427612663051162 0.7859816084194077 0.15216945504912502 -0.3358207827566152
Ni 8.156984155173863 0.2470638283719128 9.869821691091634 -1.3560316889413808 0.02753265820263 -1.0654556369551778
Ni 7.107025872421217 5.613335773570514 10.802162407521436 1.1465569724128832 2.3658375977427384 1.4969435687988153
Ni 3.867871007611372 5.495113895982874 0.04037264103683 -0.9257601460033474 0.969753263754846 2.3490876319779095
Ni 8.828755151318292 4.376319911621319 5.287093223865231 -0.004814647779823966 1.542332538456576 -0.0606950038872116
Ni 6.416484038682461 8.128535040246355 10.515049477066773 -0.21168663657815157 -0.05766547303226843 -0.018540996226980973
Ni 2.0264880982838998 0.6840580387222712 4.8280119016412515 1.0869891401515794 -0.3281514391368155 -0.30661150818251065
Ni 2.4448574354531223 1.5965531732160432 7.1090758821733475 0.18686057867340722 -0.2673705604040169 -1.3692990954742483
Ni 7.211822742833918 6.557502396597634 4.9569542610664445 0.11673836793502476 -0.5390418050659168 -0.48953752768820213
Ni 2.185589308661164 3.9951761483637758 9.696029209012263 -1.198649579343065 2.3830148808529734 -0.8917709335420965
Ni 1.4075803921648962 6.089058898317447 12.879797551838731 -0.6135989116472013 1.655238677129704 0.8031154398862168
Ni 9.274913509571933 2.9212778424286703 9.009149501538193 -1.7075251452382463 0.967595851092211 1.019322075821909
P 8.544766045247824 3.3514730861952096 7.085630464518384 -1.0269412829300637 -0.4320998543960236 0.23250742997824475
P 2.8724680864255943 2.926251788992793 5.362749275379636 -1.661284626213468 0.12167000090868722 0.39015179209901196
P 5.274921465282521 3.719768262253467 7.391820107038328 1.1863859314843632 0.8037808413843577 -1.23269895561829
P 4.717467566245485 5.895539837135727 5.459184337306779 0.9629868915652899 0.2532428627533832 -0.819829410206788
P 6.1960219921870445 8.37895233128309 5.7212592574963255 0.052132459029181184 -0.8021543615245281 0.22456940607809067
P 5.0763261894764815 0.5781892130967803 9.841490649288174 -0.3181223370355876 -1.5568970665343123 1.4845061143664111
P 2.988997892471795 4.389122013338698 1.9821530347692582 2.205141593279841 -1.004234071140535 -2.054173871848301
P 9.120591006734779 6.399247221991089 11.442981510392451 -0.4376904611099236 2.3644576866760763 -0.05436520501444184
