# total energy = -381177.6566583271 ev
CRYSTAL
PRIMVEC
9.13874465655783 0.00000000000000 0.00000000000000

0.00000000000000 9.13874465655783 0.00000000000000

0.00000000000000 0.00000000000000 13.37547656334823

PRIMCOORD
 96 1
Ni 2.92626266060304 8.143873682345665 0.017322490890722988 0.9820511072855926 0.13694029680419642 0.11794935752399043
Ni 3.2773092670843607 0.43181117809612 4.278654336134092 -0.197357364439673 0.7599162787909235 -1.580004856196369
Ni 2.047563203133293 5.6329304208562085 10.310245138090327 -1.135825187817676 1.0652905721322234 0.33430228922955973
Ni 6.78033639357783 3.810774359806631 5.304058978788679 0.3365646029011752 -0.9721387332678869 -0.28159441731288276
Ni 1.6831009191908382 1.7000807071491413 5.798884544349216 1.3215981898538596 2.3076314217156515 -1.3438706280988146
Ni 9.134403960722707 8.59737475750327 9.316969580755977 -0.36262453321302063 0.6025588517829559 1.5060568439539934
Ni 1.8009358954741312 7.805694428633609 2.7581837789290296 0.0004419726334250453 0.20160045598674314 0.25007140700393704
Ni 1.9850084945355624 4.249333587110723 6.105115659889351 0.6755745820190494 -0.29770469261118404 0.06820133956658578
Ni 2.856278152430444 8.980059698705604 6.429337308569806 -0.9565095113710623 -1.0789914666580838 0.6438975626307427
Ni 6.367182876997142 5.856007182999469 10.883210627740567 1.089499308167943 1.4482162787964412 -1.3620005049303059
Ni 3.3220708394308445 6.228237400076776 1.8544295385386775 -0.08064265065373208 -0.09459911283382418 0.5136413627149412
Ni 4.376791661736369 2.5914921587254542 10.60945495595104 -1.428672809446875 -0.43255596809683566 1.0386493153956113
Ni 4.020234392101735 7.015540270156325 9.994169766582115 -0.007424574598845277 -0.41444666009063463 -0.08022330372812635
Ni 0.6890714154051664 4.764173917799074 8.25826061019157 0.30327241650694864 -0.32360470030639754 -0.23542974583136228
Ni 1.9867357173149591 5.930451398665957 12.98950031924784 0.8057433644273672 -0.4666480246845383 -1.2666647710407732
Ni 7.826896316719326 8.938259079695229 4.2416040367043 0.723974827699308 -0.26726154562997845 -0.7322429812453712
Ni 2.463650256815497 8.763462306671299 8.770126279426517 -0.8925736319490499 -1.2435369267740584 0.23247066320303836
Ni 0.3502981432769147 0.40485096687126015 7.066023610662494 0.07715829164955744 0.04299424417333885 0.7664522801372284
Ni 7.273234597846438 6.369778280538669 1.2256848057332688 0.8522911302799193 1.036979383892356 0.9697766607936136
Ni 3.8924107676815076 2.9068611052556363 13.287746913399832 2.174054899177366 0.055260206024885475 0.9710681259115276
Ni 6.043196094059705 1.1497089364274842 12.301987973716564 -0.586221548075513 1.1183455429756741 -2.2885510080454328
Ni 7.323726163222984 8.517995619609932 13.142342171609213 0.741186306481588 -1.1686270648390453 -0.6641879374486626
Ni 4.476577616912209 2.274551348078573 2.5068052378147967 -0.5264639684009061 0.8370876830666035 -0.46339326519266644
Ni 6.427644813020894 7.340852171099119 3.4764470870549746 -0.4834697242275674 -0.7898362062788075 -1.2005771353830805
P 4.058004824626852 7.0323464219622025 6.156558568606295 0.11480001326173132 -1.0217491972061628 0.04981820907370775
Ni 6.87651254453218 6.092417373900082 5.431821373618315 -1.1838004301453742 0.02657826470916068 0.6806805357870471
P 8.754762221560263 7.811753416478794 2.323106413418325 -0.5694111613863935 0.6679816001631399 -0.21916674700528063
Ni 3.1372854182699803 1.0624156454814613 12.101396179438 0.18848320187849474 -0.6796304972559779 1.6802555108890158
P 1.0949587159440648 2.892111171044279 -0.14666040533500427 -0.28822040726983267 -0.4259333205739955 0.3147133113540386
P 4.120522978245124 6.029405728059124 13.306058216484896 1.024480994315029 0.12137535248640388 -0.3963196114726207
P 2.243388228090514 8.088136477416876 11.116545630994267 1.0299736419984844 0.4776297205070226 0.012641857133726616
Ni 5.688037052389345 0.8553645863326478 3.9816122285552447 -0.1687168178848449 -0.8465832812618646 0.45875165265559703
Ni 8.673390837286458 1.1715139816742606 0.5157998988991275 0.24890823993377134 0.6260484502644638 0.1954740313740311
Ni 3.2674759776101223 4.2132538223855445 8.916280398296026 0.6872445621578099 -1.8247725915992057 -0.3394370393529638
Ni 5.9098618064861625 3.719213275008871 12.018614686831599 2.266855782460186 -1.3743860230788523 1.2785815770830173
Ni 2.6480061569677287 3.774740288805776 11.723739375660132 -3.1846653061578896 -1.0872645053001533 -0.2688124350568661
Ni 8.801570872756402 6.638731541901886 4.303439526081192 0.5173751187257606 1.0322891775055383 -2.3248493282558345
Ni 8.946401701369528 2.819531259330155 6.624458650172458 0.0020131737752868556 0.8397300057854571 0.5953744182193746
Ni 6.829877529488465 0.2487292189780045 1.9552810713657218 1.4370996000579894 -0.6971934458404058 0.8118083396745245
Ni 4.601257513099037 4.643789231698576 5.910235581151123 -0.06055307899270861 1.9827026032811914 1.488220587103521
Ni 3.0273463175496436 6.204211639827919 7.88084415540364 -1.1500343894385225 0.77524519583851 -0.5887566557925409
Ni 0.1758522980557832 3.23981299690518 1.902193188573161 0.6113749074126891 -0.33951571510969913 -0.6878415723118606
Ni 0.5589649325177779 0.8559960736027871 2.515285079174597 -0.3516166121382912 -0.6874512788519774 0.9224225969896822
Ni 8.975810182343595 5.106191444354235 6.017319737975779 -0.20677814353294066 -0.31397669029833025 -0.43490955593067676
Ni 0.8626308023744382 9.05482377044235 4.765160902244443 0.4898401465302854 -0.9981742380997002 -0.21197511435284783
Ni 7.333075099219402 8.809804881879348 7.697239460079273 -1.8901567734319704 0.05598577133700036 0.6849046011707237
Ni 2.509261732434383 1.4193567424004054 1.1704648537638123 -0.5094322097296 -0.38208752703363874 0.046928289120422406
Ni 5.319599414430818 5.048946346522798 3.584293415201333 0.24801298181301162 -0.11426111003912579 0.627226786843281
Ni 8.149192431856825 2.3273915708853044 11.872889175096237 -0.10332955072828656 0.9904311038191718 0.19542826573776023
Ni 5.801933229636024 8.23748184599308 5.694021102526641 1.117306045967566 -1.0242650216494813 -0.0788991856000641
Ni 2.026534951200002 2.651561128720032 3.490370878730578 -0.4212922222575583 -0.22947738490266928 1.0456146909698507
Ni 7.1976754553064755 4.611173051277056 7.609884025668172 1.437422530615047 -1.4554189671924675 -0.4178775401490545
Ni 5.34863320686544 7.60689017285055 1.073046747382373 -0.3662366760443112 -0.540141722998315 0.48299998368000047
Ni 5.238840326062936 4.538063092360789 1.3712138344540437 0.07049656335866568 0.18437252214423086 -1.3976748184034637
Ni 1.9253507680598887 6.824787248598921 5.46044483640852 -0.5652369754040458 0.34507572569597994 0.6568081000448237
Ni 5.093369785309295 7.856917093599318 12.131009368297034 0.25585330379303683 -0.9567889902846941 -0.1918929988909921
P 0.8497323778726359 7.027100782409961 8.194472171037129 1.3061949679249116 -0.1832774893078392 -1.0859846101464652
Ni 8.673034426236741 2.6029612835304436 4.24600525623106 0.4031093807009445 -0.265395181845201 -0.5451980544752998
P 7.658633746273538 6.35798929966342 12.428078892110474 0.4583348768331526 -0.6722444892045519 1.0235507691912757
Ni 4.243822923957409 1.425909222468276 8.510147265520272 -1.0706760048138528 -0.055110310710582505 -0.057086717710662975
P 1.2647291792925008 3.478699787664082 9.908352382931715 0.9049236688739705 1.8614702041305553 1.1319351087346505
P 7.496978488364808 0.3982134964761496 10.93636522337064 2.3035852766707356 -0.21219700055566681 0.5197197076985371
P 7.5476162736591865 1.9275623443171057 7.946905400405892 0.188447720654869 -0.6711566554570119 0.5520449021938042
Ni 4.5875311183125085 8.170275516259302 7.889498546790353 1.0763234329076175 1.3653573372176806 0.7837005256947148
Ni 8.110361904927421 6.305578597865322 8.879096673191212 -0.685753065213948 1.1700108325604495 0.5637927867583516
Ni 7.663751443397677 4.349137819776291 0.3060446851448984 0.48501752833066153 -0.4407726995796731 -0.6178180919348715
Ni 4.846349511620958 0.982872010180563 6.308717756726289 -0.16568368748547593 0.7313821759069727 -0.4688416899017474
Ni 4.141551230178416 2.7107527792076147 4.797622637877752 -0.4798814926556768 0.0203695647952875 0.1239053179971092
Ni 6.508522705072014 2.37654887951163 0.9885480846159247 1.1254528434444164 1.9309681510213776 0.5108362891659782
Ni 4.361502541578005 5.070349286995534 11.312590899702721 -2.6722135928756754 1.828702265670915 0.7497367671547605
Ni 0.636974172555921 5.605651267435577 1.3950083844578292 -0.6535931926519518 -0.06514095547370717 1.6735063650906403
Ni 7.682495009114835 4.656181369734884 3.0055769134078387 -0.24049790438288904 0.1422316271101228 -0.21218928724618297
Ni 2.7157151176690566 3.854676890135849 1.7089041653158483 -0.19926435165439876 0.8729172911707032 -0.5616988803438003
Ni 0.7174929119338652 7.794563437388607 0.31917888926420573 -1.6634160707341739 0.8768544214415802 1.4214233269733134
Ni 4.966030514366887 0.8583090899280004 0.7068526712880889 -3.0439511441335574 -2.0108770088328787 0.7269642493449351
Ni 0.2923100654879912 4.5318670233426355 11.914473205853323 -0.39792372273494697 0.08872182811744075 -0.04039974397328526
Ni 4.021806256218436 7.29158519753442 4.036144033036401 0.7024814337122225 0.42301871803036173 -0.8867557397156922
Ni 0.6178339853116425 0.4189081842218854 11.922940252970314 0.23718606640083667 0.3264478261821474 -0.877369670515102
Ni 4.388909637426741 0.08430035200288799 10.379677666073105 0.08580722557380707 0.925169306496884 -0.017893078230336926
Ni 7.825845361059905 4.1854628992524985 10.025361216679254 -0.016563560785635992 -0.818911526378209 -0.10401989192709182
Ni 5.698363834086267 2.87985611418094 7.3469751301583575 0.47598087204969003 0.8997968891703664 0.3555298311497684
Ni 6.319789346129672 1.889307558314169 9.880277244833382 1.8302325862725126 -0.05206920989141355 -1.3546432932342864
Ni 5.719053952459571 6.156114425605879 7.946973027117889 -0.9639762520617527 0.3819818546937099 0.660865815053965
Ni 3.0408807986940176 5.2520092574127295 4.131189721251008 -1.5929714436593663 -1.7627722386370095 -1.0065781458926795
Ni 9.148523321538411 1.9242358411864156 9.589294125099721 -3.5586181198995357 -1.3850123924444468 0.28820626620244555
Ni 6.481435465293538 8.076420606500545 9.885480846159247 -0.4873844859009412 -0.5845464743659352 -0.7854655880149376
Ni 1.7462313687150346 2.0685183451076683 8.126939588111686 0.9802621337059699 1.266382463913664 -2.5734024988430324
Ni 2.2698631719630673 1.4541570828445485 10.131616489344697 0.01411509924514343 0.21626577130840172 1.4083739499885228
P 4.048253783856395 8.774739517834133 2.284090369968173 -1.1862306368534217 0.3789736639950054 0.8882801467800185
Ni 9.397828281442884 7.2290030727020955 11.454410511882983 -0.339809335090718 -1.1120316849425043 -0.7152132794565941
P 3.5301509212514053 2.95525075931334 7.012053838990506 -0.6531545624526365 -0.47633079918994087 -0.7001741257352844
Ni 8.653166794901246 7.469589670005801 6.426836034100384 0.338609658355662 -0.32319383802122403 0.4723301626709801
P 6.520576709548334 2.7091260826217276 3.3531919211925265 0.24243651616649858 0.8932351767924488 -0.33999111208422095
P 5.3745049935769345 4.19895168667255 9.67457597830106 2.244575116685115 0.3194773084015852 -1.8557258454476104
P 0.7241093632157873 4.919039088273457 3.637407800354001 1.1693446597313604 -1.6844446092696992 0.010337120259949938
Ni 7.3214963094760375 1.229517595329454 5.853991175882352 -0.6545432152700469 0.6665052727279296 0.35737254078546193
