# total energy = -381167.9716043508 ev
CRYSTAL
PRIMVEC
9.24721413145049 0.00000000000000 0.00000000000000

0.00000000000000 9.24721413145049 0.00000000000000

0.00000000000000 0.00000000000000 13.53423260410469

PRIMCOORD
 96 1
Ni 2.5576221956172747 8.198358018032854 8.93049601622357 -1.1315304170970641 1.789879893487079 -0.3949052476235973
Ni 5.731164328328601 5.612744505573498 10.838836176001214 0.17793036606331294 0.22047723828658802 -0.755800456850337
Ni 2.6139932122903273 0.4544330644781531 13.465126333496894 2.02561585770495 -0.6894202296528901 -0.7565111097641165
Ni 3.8644014922329406 3.6228457675719365 10.230323257338119 0.6192196002680884 -0.6505351225519184 -0.6970103832953222
Ni 6.762783524530331 3.8771903892242188 9.059273643403785 0.7107279899917308 0.5195001354885633 0.225739772237108
Ni 0.31184102427171106 6.215894040104313 5.012348791378186 2.355768900652827 1.0438252031695956 0.8024806345156954
Ni 8.594425441773588 5.843323787191373 2.955145130844941 -1.4708849240385506 0.17733541279179135 0.27291360170943324
Ni 8.824006024277177 5.332073065602944 8.816469544849923 0.06133058058868147 -0.11234949483870973 0.8489456108464541
Ni 7.321435465191278 9.264598783529845 1.0276641627648757 0.3794531747345852 -0.3159368993484946 1.0117350075032705
Ni 8.59484156640454 7.128076220008612 11.705364860282994 0.5011391164828723 -0.8624169058600114 1.1813326853311719
Ni 2.0283579011156068 3.808344880836608 5.3592043915410565 0.9078300438874881 -0.32411609272517733 -1.7960713670097712
Ni 9.194652856673715 2.9516367378453086 8.846501721826478 -0.23385751624823597 -0.13812351847902019 0.08063005224824178
Ni 1.3444709409659552 2.0225783923523757 1.2495723317950995 0.7113892777248136 -0.31762380013261426 1.628789224688924
Ni 4.092594992633354 4.269309252577913 7.078390014351463 -0.787565922187392 1.5487626103526357 -0.01533688746738649
Ni 8.507473888332527 2.228217937755155 5.217054368164827 0.37205302561577214 0.07965663259137895 -0.38675742170548233
Ni 4.0932700392568995 7.627795665712641 12.878959307515956 0.5393130564494324 0.4458112904448451 -0.5663556623895214
Ni 6.478921795722474 8.201696262294496 10.898196816967312 -0.2944013392695639 0.5692715504847357 -1.0270806367214054
Ni 5.881819939161503 1.771941903522583 5.1402340624053595 0.3539393467341969 0.5140193148796501 -1.1591399512842167
Ni 7.3253100478661475 5.598226379560261 6.858363653374547 0.8159498726467237 -1.860267442071706 0.16209365614137244
Ni 5.896772684233736 1.6722569363743698 10.424715416326949 -0.10994834159638485 0.25034265838745273 0.752241278744169
Ni 5.461358364832923 3.623567050265588 12.305189096651798 -1.3810840039243182 -0.05779454241096498 -0.2754649073763772
Ni 0.7850246646205907 5.0304381914463985 1.3461973958237077 1.399322895529848 -0.6045635409178105 -0.06456040037988882
Ni 6.290482068399071 6.5942160601384225 8.668066555352578 -0.8617005965192773 -0.5519184039182687 2.0009574357263213
Ni 2.74766169096634 8.414040037862625 4.86640925969608 -0.3543566367772736 -0.3563862656127927 0.36292123851783303
P 7.439836793518338 8.729379283198544 8.732205231803412 -0.6981038734698171 1.0248599749210026 0.2050007399175437
Ni -0.07302987273219043 3.1148685597470025 2.8648858489485063 -0.1947574649229807 -0.4372484884764985 0.42967504700461484
P 1.9806885128364753 7.5562869596869335 12.519950093965061 -0.39223155744617616 -1.2599765603873205 0.7475410450550223
Ni 0.5187936740654967 9.02856364563948 0.6748589051007835 -0.048840675651786854 -0.014736534879226233 1.1428342721456577
P 0.0552890926325757 3.1419259079729462 13.65035635283355 -1.548074840256992 1.5957610905893616 -0.8624963529476952
P 1.7724042642236413 7.713674542327246 7.054501686370574 0.18740848075707725 0.04817655970522671 -2.0034802021481752
P 6.169759689352696 3.4740395995432682 6.736799777852245 1.1166409015797414 0.3523208372941674 -0.0651890351028232
Ni 8.866339770066093 7.907829047915733 6.85770062812923 2.0193138267463224 -1.53501029376355 1.951812855680871
Ni 2.9958846569366075 4.392204726919263 0.8564140815854256 0.3342269559069341 -0.1453873991302851 0.13272625872284882
Ni 2.7303324118906676 6.0060562595359235 5.792746150102583 0.9327800289646064 1.2316247487175047 -0.5269445075817506
Ni 4.134503366577296 8.034626846574017 7.08370901185644 -0.8080082492021439 -1.1597318192319448 -0.6868954063485073
Ni 3.183899012415037 5.6623558087970745 3.332940059679843 0.6001016484917149 -0.6716659909932626 0.47553478565120677
Ni 4.348428415743045 7.6758996730507665 3.07541069751867 -0.42796372074046296 -0.3709438517119934 -0.47163185105237476
Ni 1.4749121419485798 4.073804653742336 10.662430773004962 -0.5243317525492519 -0.06213327899563493 -0.32235925793507064
Ni 4.778682789720044 9.149221294187706 9.13702791777939 0.32209649119198724 0.16587472045035948 0.9688582627444023
Ni 1.4083876842802825 7.19840128263961 2.9025922888412294 -1.5753814984917451 0.6723666166047131 0.9727640255567117
Ni 7.393110621069366 9.199748071599378 3.472843010048929 0.49465813674421905 -0.08443991291263522 0.8561035620474741
Ni 7.856765932090831 4.618668998297718 0.9747950660416402 -1.9690397610821186 0.017344919036350773 -0.9795280837534227
Ni 1.1882485072923084 0.6974110106556131 6.215163510196642 -0.10463335714137463 0.2572848940332408 1.5396686184711676
Ni 6.676839917417577 7.771293932893157 6.861923830772698 -2.2600534148263725 1.1073268232676672 0.14478653232149255
Ni 6.74601832550995 7.541750339245653 13.198488465524868 -1.2154003164388425 -0.7545362454259328 -0.19367400205081484
Ni 8.178707688237868 9.39600169477067 12.471889548532832 0.006478665745808198 -0.697432044213773 -0.8852992097748236
Ni 7.691185317827761 0.25935938581596263 5.871934667372872 -1.0739821863689503 0.41932481411854233 -0.4705694712261315
Ni 5.2013914370557695 6.148047230830988 5.828923100796204 -0.09287647371576262 0.5750051105344034 -0.27296322400044604
Ni 6.656255619006452 7.190393195297276 2.536410011374113 -0.6318282901710345 -0.23510372995051126 -1.745296707560065
Ni 2.45436780385689 5.90257993463903 8.160695964767433 0.2931972916591338 1.1559466411578996 1.481272695030778
Ni 2.1156516014754523 3.57402972475418 8.146715101888825 1.1535789122566713 -1.4352149814407669 1.5599463948835972
Ni 0.9563006379993002 1.608599115052635 12.4146539173488 -1.883203482042589 0.35706040886168183 -1.2747832863828499
Ni 3.4282658901384764 5.258234061643902 11.646396301191395 -0.5207921148271095 0.6422245458036939 1.8401220774720826
Ni 3.197492417026157 3.2516995856182556 3.49744892183786 0.7858353126495304 -0.9653237672285826 -2.1583601141499282
Ni 0.19987668162478628 8.460636749315299 4.766960096505406 0.32256520329828964 0.3040324346014248 -2.1023820561224116
Ni 2.859839644257154 2.835057110680418 12.458152812104386 1.2244999647472654 0.37196843632176585 -0.260032631981707
P 1.143519733071909 4.75122781129119 3.3739625505205573 2.1110222482959125 0.5429683938138327 2.3247107457954415
Ni 4.859457204194965 5.798918665461714 0.4428065422893361 0.9422941391026288 -0.6570451557562943 0.7373414788142011
P 0.736824486256644 2.8653139949576865 6.664499510306326 -1.6188845639807021 -1.3437163619091375 1.014257002594176
Ni 7.286101860416386 6.946618139271192 4.756024341203972 0.6876867919015511 -0.46706994271330526 -0.05803725454939036
P 5.811402404390294 5.351769631468037 3.363053612139783 -0.5669012504803462 0.49166331578195327 0.14750058881854597
P 0.1034106696773425 0.43441284612232 3.000065322395579 1.593209013591469 0.5052495391068202 -1.868469518266524
P 3.532371025588809 2.2570692455012056 1.1412754342289708 0.8510613716378762 -0.25457957928693575 -0.47881525617469145
Ni 0.9206655740473193 5.0037044957111965 6.872967778478181 -3.443045490137838 0.8729070067580579 0.17593493289983894
Ni 2.8283898693711547 6.927180495398693 1.2816527666773427 0.4523794305806661 0.09433094677410206 -2.095163169776469
Ni 7.329730216168266 1.6251978642206353 7.780938777117237 0.8257727722744165 0.46587437974330737 1.07220169742976
Ni 1.9795141166557868 1.8382259336263296 10.005492968677206 0.5225461214037388 -0.20563297418490395 -0.22042967287810425
Ni 5.380130836870965 0.6843437725222976 7.07476325701236 -0.08001273037921705 -0.5910531651362015 -0.7554513010410344
Ni 7.303801028052907 2.3348845514893517 12.695664730073931 1.7986944064549153 0.6628123972573746 -0.6141167318238844
Ni 1.4928794787917132 6.49454034020423 10.41645950364885 0.39076165776886895 -1.0025281441930218 1.1851620863795913
Ni 4.859706878973536 4.053266591401318 4.989841072450658 0.4022858563583846 -0.4258201920348989 -1.709537547682585
Ni 8.222003144284985 4.260959018316797 11.252131159463389 -0.10624852414729445 0.171892130289033 0.08798006485540977
Ni 3.8512149650387517 0.36921628838746273 11.420497034589635 0.60838959953212 0.9722140665905126 -0.5617891260647615
Ni 5.418626988841096 1.2429642726555716 13.206460488732517 -1.0022712909872094 0.3461918415782941 -0.3064155901216207
Ni 8.699029926781064 6.967581573457184 0.9602528972719483 -0.3472429085506278 0.45892700189119673 -0.8913716412211486
Ni 5.499983977799349 8.388203321887474 4.87700656696434 -0.5113206850015646 1.49158641825196 0.8017846368899353
Ni 2.62824316909695 0.02589127453787401 2.179539678426314 0.26301228343532124 0.28356233967253097 1.5432218830400648
Ni 3.41209251281545 1.77919171931518 6.1129928919195375 0.2370117456065015 0.6141930935877745 -1.5891826660408954
Ni 5.665518355992315 1.001861661481605 2.5612998126334943 -1.1759092003227556 2.1540727996284836 1.4156028636367943
Ni 1.5451817212954508 8.957147411753983 11.021195860105697 -1.1086583975948971 -0.023131700921456937 -0.26698952291551437
Ni 5.4226495269403046 3.4081716940704743 1.395027309462496 -0.9498007318923191 0.5668971367152882 0.23207779863999387
Ni 8.993821862561942 7.5380329592091435 9.533121233719383 -0.7815181733314154 0.5660180765444445 -0.882214657312229
Ni 1.70561163734873 1.5187346891949045 4.051161000768698 -0.32255389044437993 -0.3780668359100199 -0.10437881792840734
Ni 9.737223892151846 0.3383435396563844 8.663316261509902 -0.5966283452311337 0.8587502556417016 -0.07728941791078302
Ni 7.408719918337101 2.2863644195202726 1.4663261037299236 0.9201595119871185 -0.35991227648818014 0.6843525853219956
Ni 4.978274657152978 2.641069054944313 8.332417653861961 -0.2882594880378842 -1.6307424917605526 1.0978692773991932
Ni 3.701567300534157 7.413352772561708 10.628648850742822 1.5813086626094575 -1.1786237710404412 -0.26892324960311753
Ni 1.1704753619436195 5.3669812985328615 12.736295139040148 0.13857808951793552 0.5481645933027914 -1.4599297105786277
P 3.1916481777647774 1.3892459512564606 8.130392844420058 -0.37934158885738534 -1.1344717591135753 1.9172798549010075
Ni 8.24235626234558 1.5918154216042113 10.648017140510165 0.6881429056023634 0.03476285740248206 -1.1350551424208708
P 4.044417007583058 0.7316784116538629 4.109453588515349 -0.40501893901883146 0.40897689522531505 -0.3282139169436348
Ni 4.953002021233121 8.848159747300473 1.1001345790487853 -0.8617751585109545 -2.1968682975274554 -0.3761287383470425
P 6.628292043806434 5.362533388588679 12.755783642589764 1.0836251087753532 0.3130495504983705 0.31646911770288083
P 7.046996647470993 2.9745050981196623 3.5898063965956983 -0.5954245547310197 -0.27925419921548034 -0.18589230122286696
P 4.320279896262603 5.437361844447986 8.962896404710945 1.520430596177162 -0.13473171918865182 1.2770520278123683
Ni 8.188426510174118 4.580746173596899 4.933876933194537 -1.6070888568973547 -1.9488632861342434 -0.39954994548446027
