# total energy = -340893.6745108663 ev
CRYSTAL
PRIMVEC
9.05213252921099 0.00000000000000 0.00000000000000
0.00000000000000 9.05213252921099 0.00000000000000
0.00000000000000 0.00000000000000 13.24871096007866
PRIMCOORD
 96 1
Ni 6.336918070112077 2.055168964203883 11.343599045478554 0.5778765185449274 -0.6808553708020145 0.06470463926723695
Ni 4.4344404737829946 0.42333020937629534 5.860302483868637 0.7005806171450838 -0.03546168324171957 -0.12502040543815887
Ni 2.3776692821595105 1.5521872321690662 4.937887485418759 0.2239934789699626 0.20192441498506514 0.05936522933219454
Ni 3.35615952465575 4.172091575054783 4.807267931765509 0.9483388026348121 0.23762366815888752 0.7685215039614313
Ni 5.157470490242079 4.772447094392732 2.5176921908606813 -0.44815125143193146 -0.7751811753697939 0.7611576073971924
Ni 7.3589762254362405 6.392552475314741 2.6476889578107183 -0.2706841981582822 -1.5612088065357888 0.341214957188993
Ni 4.975911872417507 4.371872135227705 11.510413550189865 -0.05431995359880322 0.709392559009759 -0.0976795515313608
Ni 5.561530520348047 7.876296535056644 12.514732241818022 -0.8005471649384084 0.03020197750467702 -0.48575183539352473
Ni 1.8289109170121212 6.366192666015985 0.4432620995187854 0.610553182842342 0.48027152900524384 -0.6136580470199109
Ni 2.742877560373218 1.691662486865232 0.4063031484934106 0.5365331797114502 -0.8269014865622211 0.2280414237870911
Ni 0.34304413224255276 9.07630150741204 4.710433651548299 1.0312213983626561 -0.3839855153873 0.22544075293945046
Ni 8.721068679008507 2.509875674607427 1.5130693475867705 -0.07315816935122885 -0.7212042069327063 -0.2778382927045602
Ni 6.93874908701723 0.7181409597962202 4.58190785609931 -0.7421913507073348 0.3808947922771182 1.1606209067051174
Ni 0.9813597684398198 7.378411153514684 2.621111897336423 -0.7157537253410963 0.5568068423588217 0.0083573708257598
Ni 7.823495447268305 3.95958371684819 3.7506433039865965 -0.45038374030687595 -0.08868994643824081 -0.22161906520051508
Ni 7.638732374604531 3.7926171363140013 12.676167969508276 0.7336213496501365 0.08524775352591124 0.0053291255223972735
Ni 7.778949904150455 8.495561958798818 7.09729446885958 0.5428480661858844 0.9725400824713637 -0.1939156857479757
Ni 6.933100556453211 0.6138956988534296 0.32340915203996623 0.4731788838245206 -0.009595871218551216 0.03822381936788901
Ni 1.6951837663354297 6.628686398861222 9.155323001661499 0.7860350873651624 -0.29840711799484737 -0.11158176343474976
Ni -0.0034289477205936957 4.892867610567648 1.6884028140189125 0.4694932074428172 0.34482581446870286 -0.657606684686719
Ni 6.427312663401013 1.8974627150270527 7.03680087903069 -0.1532032956302781 -0.11873611509134391 -0.845172774067583
Ni 3.4743351120167603 4.073341863639904 0.36665933502366377 0.5005207661725832 1.2783193245605662 -0.05605030602634863
Ni 5.99687471973166 5.472149765878295 5.027965254076698 -0.44818853242777007 0.3870258448755205 -1.2416991022343713
Ni 5.302440389252924 2.8797186445659717 9.228468756825853 -0.10837585490294238 -0.32469304827456985 0.2713403436850424
P 0.21446402399967768 5.428699530770455 12.51487798114828 -0.17673763130679238 0.5892503075995078 -0.6685161325103711
P 3.757051308451772 6.194745279986299 12.587282366676106 1.3085333862501012 -0.41292662390168244 0.7563298469912458
P 2.526640223653202 8.367854476111026 1.4974091586833198 -0.0866556896170314 1.1167059504897219 -1.1208947917600889
P 6.14790049526066 8.049291835712046 5.713956660746043 0.34224905488046214 -1.52316959237488 1.6033810690284644
P 4.7391805081382925 0.8888931420641795 12.567779547605307 0.24207681883423468 1.4848825238692231 0.11521113265722092
P 4.186611195286654 6.256761438470427 8.12176411223223 -1.5493408514536091 -0.8494935129301241 0.47241706595783156
P 4.859039792109732 1.0990284363912386 3.663188843273292 -0.6251799316165814 -1.8680347447219507 -1.0212303485882155
P 0.07339830965591848 5.8329224992580775 3.780599525453758 0.9707655070694442 -0.8586037027615084 -0.17414981597495816
Ni 1.5468736305006698 1.0542837463624777 2.605557618381048 -0.6550525508062975 0.6214572313493555 -0.1628135650265325
Ni 2.002078208181491 6.371995082829344 4.9278178934325165 0.07558966161085692 0.21867618052210727 -1.2227102198366941
Ni 5.878997852737016 5.6816704204212245 9.26222687386495 1.157357148352181 0.04746847789460857 1.460630336190078
Ni 8.669643515331916 2.3472450654517085 10.225142922714724 -0.49788075744657473 1.5816074247967986 0.9579372449565243
Ni 2.173244978109438 5.1310111074878675 7.085277763212568 0.8044665545974726 0.16305242051021596 0.5190725610328415
Ni 0.5174606176712733 0.4656036672832978 9.352013163862376 0.03315823191952354 -2.3121246816003147 -1.5624897301307414
Ni 1.4563342030947084 1.0376911878306714 11.276997981977319 0.49518829821607624 1.0846862030500157 1.4566109306180397
Ni 4.121336269169438 6.893696624489788 1.8353306892493044 0.36771068948667646 0.5958433874359932 -0.717974387141499
Ni 5.584224216059579 8.025792500224556 8.189266768111953 0.4050945294517733 -0.6418666482436429 -0.3475797230647562
Ni 5.248616410513087 2.7042340075241835 4.78216184279226 0.6574043388679259 2.004004707193078 1.4959678351491077
Ni 0.9969384881524432 7.288731678678566 6.9367069259671625 -0.9523630933028566 0.17702328086801125 -0.5970214669044943
Ni 5.275302096575151 4.4271172987408605 7.375040139440902 -0.9598331764276566 -0.5403764647169403 -1.2270286447063898
Ni 7.980142596964383 7.395257171751287 9.297944777550057 1.222723846683449 -0.7752873619303551 -0.47224840159045123
Ni 4.70014771359975 0.30776344654821824 10.399615531363791 -0.3597024744702192 -0.37581120710662375 -0.22666588359580317
Ni 8.032554443063214 7.166853769201075 5.092353976440361 -0.03511021343957179 -0.017263415066138012 -0.41768085075721617
Ni 7.108168795408549 5.978290692090744 7.1573770918814095 0.44012940956871943 1.1437729819098432 -0.2452757853875066
Ni 2.4695393730156496 5.310958445760523 2.4957389595724453 -0.3268980263456886 -0.8434362509924506 0.5152979244817577
Ni 2.3565868659998936 5.337110056016054 11.263775532306065 -1.6499506892578875 -1.3051084197289524 0.30515780645511964
Ni 1.4107114562314766 3.4950463907514973 3.7623024504072 -1.8673809131880355 -0.3505981981761059 -0.4796138408165869
Ni 3.807806614337117 2.739093769065911 2.6699725919284205 -0.7777805606658541 -0.14087871262665416 -0.36943949925232505
Ni 0.8264316186701969 3.0848761713334887 8.148288670339102 1.40354130448657 0.4809220181050491 -0.47135185791811074
Ni 3.664683350318355 2.556503208157528 6.992841914086797 -0.25273609832029376 0.8202091621437101 -0.7509729535547066
Ni 4.1599888741507876 6.75226610921377 6.101256667872394 0.416316880530154 1.144812478917951 -0.9952272396562345
Ni 0.6885042785997477 7.329946037104816 11.250049784078143 0.45421956911319844 -0.47286186680473397 0.7663836316828221
P 0.06637294976691963 5.674645965745457 8.048366707789542 -0.45946281979000864 -0.42263433810774953 0.025121220547659966
P 8.394513005776147 1.5572292698680381 7.823588684231141 0.28920771088376646 -0.5319337332662258 0.19544034992261825
P 1.8220131921887515 3.2878159256840433 10.256635291035593 -0.5756036633503506 -0.2726528918488788 -0.17419146784617098
P 4.064018167356346 6.004940169623553 3.9054148518671847 -0.17416832791771938 0.9917706485662018 0.3368890761201295
P 6.90046761946076 4.0228400174593535 10.518416621067708 0.07373769600378267 -0.1357925563529984 -0.9268284393668618
P 6.2310352784336605 7.700802845882542 10.421197625227148 0.12955711696624783 0.2260781294131332 -0.21844683812012056
P 2.4991941584767496 8.437284330960429 5.655622909687306 -1.15270036630646 -0.03302710565829796 0.4923755113576295
P 6.875610464126151 4.1447269790691585 1.528504138395599 1.1867304593079755 -0.4702581106332998 0.07307615116038382
Ni 5.528616967253858 2.6991376570313266 0.26250187976432027 -0.8650363457607294 0.6427876173960154 0.5277181525229815
Ni 1.2180187156605211 0.5365171666189867 7.081541948206526 -0.20740292160113313 1.466374694873023 -0.6277111826788674
Ni 7.027785860459045 0.6336936174376705 9.238179884372455 -0.9858583968468247 0.6007349112003396 0.39796794570932104
Ni 2.7411486031012187 1.562977373887513 8.931075433056705 -0.12453549538194035 0.13286124163881635 1.60060530605554
Ni 6.401867119465984 2.1391908563436686 2.483921400836344 0.6407546461263869 0.16645373288228105 0.187196107635955
Ni 3.952052342762831 6.810371746538191 10.360902277095938 1.2911717550432023 0.42259165779527225 0.08303249104214733
Ni 8.316121539935754 7.157865001813142 0.2708714813019679 -0.2848170380152385 0.13663125020420985 0.24131217275406824
Ni 7.636405976599798 3.888180497154307 8.238260529048967 -0.5214361761690116 -0.41249956366659285 0.27420069595197294
Ni 2.9822521472881593 8.655522188921868 12.394394100047165 0.4078924039118846 -1.5585016920172707 0.2470670729599745
Ni 9.010175680857298 4.918693344059871 10.125618348773754 0.3290338417417688 -0.207922541550029 0.748984205259452
Ni 8.725603797297888 2.444691269813353 5.638094360674217 -0.01341190253053174 -0.15193059956544158 1.255213077560406
Ni 3.561398520614094 2.4801575242201275 11.307588757919701 0.18387398524125753 -0.08921445148314314 0.2759359334755248
Ni 1.3075261999826708 3.3867014190836358 12.662985349219204 -1.5338592108782423 0.0949644665930429 -1.1156109176533304
Ni 3.264262277402669 8.49653053695643 7.912500538247022 -0.865442837170529 -1.3153514376131992 0.14095867393497014
Ni 5.675949472798691 7.8928257286622525 3.6162354329598827 -0.7279476963041269 -0.21122409511943624 -0.19765792639922733
Ni 3.2236453597091526 8.596257878661238 3.5744888091535625 0.4415759122072589 -0.27361088488677393 0.3413054600202703
Ni 3.416573455720276 4.444443079990112 9.160184901927419 -0.06939613120563533 -0.1881006217280954 0.24237866634536964
Ni 7.159141352469434 6.041203011673971 11.487651963485977 0.3633428994362839 -0.2597942907186558 0.29175773099912977
Ni 0.7583070813004925 9.051906010825451 0.2812316467354935 -0.22969875688485603 0.04425202783983991 0.25085765035065827
Ni 4.856731498369628 0.3512833830748769 1.519706370999493 -0.9783124661787669 -0.5527912934415254 0.25111244667394167
Ni 5.715597812334596 5.719752741066783 0.3625351835413446 0.4826893944181171 -0.3633102464261356 -0.35257280540397345
Ni 8.203612587403391 8.991274828585386 11.34542757620601 -1.4347478119963615 0.12782265077364438 0.28771929926369805
Ni 0.04313431569007661 4.980374573648374 5.784440183796812 -0.5425706441547817 -0.5600328054952871 0.6121413532650685
Ni 7.9765036397741005 8.805081519015978 2.589142481642598 0.30012615756848315 0.34821967064160025 -0.5657920765765675
P 8.580090770348194 1.7215888362957565 3.617043788375535 0.3342421254155856 0.05304237243796026 -1.549722403162744
P 1.7527734321179458 3.3439663024286124 1.5632679473347966 1.1173520687141532 -0.3476211178256529 0.6156133709740688
P 4.769758611095435 1.0179032265919759 8.16504778810549 0.10958941559506932 0.6485450887050831 0.30001868545634136
P 8.559605794921312 1.6626413506661206 12.601696982173133 0.5514311798692052 0.4508203136236623 -0.5062761805991216
P 6.380531243601571 7.685477585874715 1.3355226348038225 -0.2560438225372881 0.8885015187622052 -0.16027177244128527
P 1.652665900855946 3.3692489079819867 6.003149657851817 1.07193404559067 -0.8116263055707055 0.2936948001208426
P 6.902151316071189 3.8077341972786036 5.996207577580107 0.32354145116862987 0.23680914267739217 -0.2772299696966
P 2.5100024044598253 8.370081300660303 10.17428080166807 -1.5190918227610806 1.6638819546269987 -0.09561752679600952
