# total energy = -340870.8972584649 ev
CRYSTAL
PRIMVEC
9.17590274669282 0.00000000000000 0.00000000000000
0.00000000000000 9.17590274669282 0.00000000000000
0.00000000000000 0.00000000000000 13.42986118424676
PRIMCOORD
 96 1
Ni 2.128020282475733 3.1213300939513795 1.4460736221645885 0.2859652926870688 0.25834393142537443 -0.045670505453921345
Ni 0.35670954437046115 4.190928359890763 9.940541606969715 0.1475280996223717 1.0465958239361977 0.6837488902997256
Ni 1.3730086622946818 4.872138195220738 7.659466351039498 0.2893450077925791 -0.2596670211121721 -0.7755676121749352
Ni 3.356012979609853 4.029138844723019 9.654714075233544 1.7806444909317396 0.6149855075820828 0.38144192302983987
Ni 2.252289531790431 5.474004000511269 0.3202802933400925 0.0391599580289132 0.5610059680418338 1.160814253662846
Ni 5.791453527890085 7.6436186496076575 7.50847412049618 -0.10396178499564677 0.14017628724299086 -0.7810931699788548
Ni 8.765115820820904 6.66644925085774 4.477649624543073 -0.7970995727094401 -0.00213632961671245 1.312475915837617
Ni 5.738646208255876 -0.043269886440846894 9.587806146028198 -0.5627226936226244 0.3396339858551183 0.5899007966993131
Ni 8.316074673828851 0.29224332285489285 10.858620027964571 0.5241844283381102 0.3856312785208391 0.5521261490537007
Ni 6.913464549650598 7.68014791797669 11.677814334269932 -0.41637293057907004 2.421386024432004 -1.1585182585398177
Ni 1.1338571120555199 1.2886637653220243 13.478611835475904 1.3587925395159695 0.5288664071948117 -0.3726814032283904
Ni 9.022637528124825 2.9226809779199314 7.573259663423264 -0.6679384056300303 0.4605624806120907 2.1675536077237383
Ni 4.9879289105055475 3.3407901571470986 4.203102947499914 -0.5784084797889975 0.713031955534559 -0.18747995742496099
Ni 3.561066875676866 8.470862975290096 8.311848253077589 1.6562810023512895 0.1507229524105856 0.291002340890344
Ni 6.32060948074248 1.138582701909841 1.9139299574989426 0.48781103191539854 0.45606176452825975 0.054021448521777926
Ni 3.629610868321095 8.937228226447116 6.003939905087194 0.24832125708204975 0.4565649294169234 -0.7553926798889571
Ni 1.914946647510319 2.5504329600362525 9.069668617053606 -0.40648318226918384 -1.029289471447266 -3.059771656105582
Ni 4.605523168410736 7.171876319509605 10.82017024317513 -0.13333355328954458 0.40582960784558497 0.5496784588441566
Ni 9.048412638611792 2.9130095765481756 12.184590260608369 0.505667086260213 -1.2089910704783888 -0.4519865660176216
Ni 4.569544454199488 4.5199303486804325 0.5305332558371214 -1.4360966127147718 1.067129168002859 -0.12325225779414258
Ni 0.10438690349655662 2.4139230566134686 5.497634702553664 1.159244595182881 -0.4574221352108961 -1.0801060398785012
Ni 7.488316497599146 8.86747301465576 5.631342285313322 0.08662097972435405 -1.0301577329848324 0.5790612828816479
Ni 1.9953459063521843 6.650051912858378 5.2438365765368955 0.39367008966491557 -1.2103606971324057 0.37527744609034075
Ni 4.314408481579303 2.5932936012198122 11.435929282637368 -0.47571501998281296 0.5681883447228859 -2.042160906547825
P 7.025236219583577 0.532376694675438 12.631133726904602 0.8864765179123766 0.1675063425165115 1.466900485469506
P 1.280974358918294 4.7755985236531435 11.979785031502622 -1.6499861704815133 -0.5301121066764548 -0.48771281577463754
P 3.6119380798561975 7.103561724431119 0.22646494726327035 0.23753650776171994 1.025028382178067 -1.5593905223801272
P 9.206183108427705 2.107126752187793 9.753785378336685 -2.0873303039956115 -1.7507479604826237 0.7901905042944327
P 3.4339347447416864 0.13546293293272937 10.166511973081242 0.27687824278413603 0.5004210073699252 2.230128345132166
P 5.7886824052959005 4.304470979031284 11.294499260224512 -1.5854496813610242 0.10021234525554354 -0.0851708775413888
P 0.5635417303671194 8.180069445050703 12.248677517345326 -0.8412868087496157 0.46128778881388943 -0.09961893464591876
P 7.6795514843057555 3.4263279214616236 0.44727753850661495 -2.3617107200585585 -1.5927624129723537 0.06088397996956611
Ni 1.8866481638001713 6.96542768624287 10.846653733345114 -0.5406711131392238 -0.17692223651377273 0.27459664583881094
Ni 0.11463730432424983 4.597943872838563 0.6355707308301273 1.6792993176233335 0.2211794065599352 -0.12675127208633655
Ni 8.068206016091427 8.475414222994452 8.635669527242502 2.16685349633292 -0.5203802241006715 -1.070228889974105
Ni 6.946828131612367 2.3332668724979704 5.974622896185144 -0.06392096702367701 0.8007171148573694 -0.277707937774283
Ni 5.276355057866464 7.7335057917686845 4.7325222487577845 1.5258101153215207 1.5402540586609925 -0.061982869460699704
Ni 3.3051601272357813 5.068144651294818 11.61705793018757 1.872460384593472 0.7066957289038862 0.5262518523901002
Ni 5.230548951938755 4.563414951242815 6.213352354903338 0.3780784058742457 0.8427163421072905 1.3536981557121976
Ni 6.559788558689532 5.4670394904152895 3.6548427653723805 -2.168581277657304 0.18955278079358967 1.5861641909295456
Ni 1.1392158391912937 0.7042716314093249 2.5468928968016953 0.5749354336387325 0.5105485827222304 0.8363844863519918
Ni 6.4489344790195275 8.291033635552266 0.7139714780792332 -0.8069774939447844 -1.5942737074105575 0.2701422096118832
Ni 6.1727398098640665 6.066079117695859 12.820078408314828 -2.707543892745853 -1.2383132164812738 -0.519139409715035
Ni 2.6363010568454484 8.80149827474786 12.4822501187856 0.7624205332700159 -0.24937952314323505 -3.122186470897378
Ni 3.9530063806039872 2.270017375671107 6.025468407837113 2.0116681372756062 -0.17041683129508714 1.4038382669016984
Ni 8.636983516499082 4.36359131967476 3.832412080292504 -0.04282095182026819 -1.0888017678802862 1.22638509758512
Ni 5.00615225312823 0.3449763176778004 11.962890359580726 -0.849893062361388 -0.49094546377932224 -0.07412387569860783
Ni 8.48868257819707 6.270463172870899 10.652901796547164 1.8945073370911825 2.0106216982889635 -0.972784337271686
Ni 4.0954347412229595 1.6657750115994705 8.614879684654278 -0.0035301246404455333 -0.2523285784692299 -0.3482376683637293
Ni 8.405539724468909 6.667008980918155 13.218931955873465 1.212230660461609 0.834335574242763 0.5257831402837977
Ni 3.9215330345839465 1.577823984893321 2.7449960466266727 -1.041351801928439 0.7676748396904198 0.7435643197954613
Ni 5.705117460046772 3.116136533062941 9.444455607194937 0.3118071934508372 0.48565181948055064 -0.9984143791349643
Ni 1.6726110590586338 8.126142665295667 0.9657765980448197 -1.1138360851410947 -1.3495365681353404 1.206836486029231
Ni 7.730560327024534 4.665294998140925 11.917013599202768 -0.09883294840951366 -1.1757649614354075 0.8099646015975664
Ni 1.097327843686487 8.722567160326756 4.998365582156625 -0.9603281137862042 1.736381921568939 -0.4236825768666059
Ni 2.949584724430357 8.257844395740461 3.5235255052477714 0.8169924549786252 0.006096856926357242 -0.47106492280531126
P 3.298140561724023 4.251755418423373 3.0464703275270937 0.8238313322773295 -0.49751797479051735 -1.049431750723096
P 0.7839927910468518 7.584828641458851 3.020926449786397 0.26758961839335854 1.3222083126340325 -1.0047061256809473
P 0.7400438878114035 4.849189262743735 5.497956776735967 -0.11900839491612408 -0.4631554381502475 0.5664135122106504
P 2.4785214111269056 1.3997288907525127 4.866256441635069 -1.385112665467737 -0.4069711776491959 -1.7589160981157126
P 3.377264370100353 2.2518949679773512 13.322918790015365 -1.1765733162693155 -0.3488087103758509 0.33913236362835136
P 9.230315732343946 0.2689402005363809 6.796060710683479 -0.2624546111596383 1.0497500532944632 0.9004255238933009
P 3.9535569347617723 6.803729930101423 6.304688372089601 -0.4711376850247757 -0.32168100092112345 1.669184854897151
P 6.709346595651819 7.241319550611548 9.532998479620705 -0.5958719266810834 -0.7244170574430492 1.5099857466947544
Ni 7.225481942672601 1.3492430744836306 8.528498654888079 0.04633076474573956 2.3056951239248873 -0.7417658331341419
Ni 2.8971077372908196 4.186918490441562 5.246200289054319 -0.443089777748624 0.7297448974138658 2.000176591696239
Ni 5.63223326545867 5.490447218023781 9.22436699466908 -1.623575027477836 -0.9004990574437137 0.14062160231052556
Ni 1.5010583834928366 3.194095001805293 3.7852736333029546 -0.18493816483971376 -1.8821914958383066 -0.6844158344597633
Ni 3.940050006090781 6.257029651420946 2.1748990514208604 0.15132150522653295 0.40669298428714473 -0.6527074476128888
Ni 1.1754055991630257 0.0558170156967664 9.841227142446884 1.6705259423060776 -0.021967248299710553 -0.4928349674925513
Ni 8.256568945274926 1.0323441012626007 3.9001394176026856 0.028710223450498944 0.9356879466400209 -0.5573218343220272
Ni 3.3230347855585336 6.278703133432415 9.047469355821454 -0.8842843953570642 -0.5712279028801582 -1.2958647896434972
Ni 8.827530310508461 6.8572988496539 6.928894747512785 0.4205753986961918 -0.006562226598549989 -1.3668349502044717
Ni 4.173402385867941 5.907051549219669 4.386125501352899 -0.40221103725639124 -1.496832497142248 -0.3170936386607571
Ni 1.9722593353357345 2.3951308080277416 11.211046260987466 0.22794166498443325 -0.2110662293853333 2.5283364597423295
Ni 6.727514882858724 1.9975664747885837 11.155151250118346 0.32136475523228525 1.0166476143135394 -0.029260182416697998
Ni 2.1188810834565026 1.264778890776786 7.173076527573576 -1.3676281355297286 -0.08530534623672405 -0.6700158569843494
Ni 7.808757369235259 5.599493644875724 8.470710655306442 0.7433833141329068 -1.3237700006941977 -0.0064318716682727935
Ni 1.6819246002278294 8.073170179414122 7.32132883359165 -1.3778989213281172 -0.8439617844786175 -0.04964080295557902
Ni 8.551133771495145 0.25636187321152026 0.9888283006312766 -0.8938864372232026 -0.5095905896843353 0.02473118419809289
Ni 1.4071797236878691 5.466764213336398 2.825803633135562 0.6394780934068084 0.5010236739509306 -0.44416655575257047
Ni 5.902078209994345 3.506250033366742 2.056568446288136 1.0947806111715404 0.33768277566601845 -0.5844048065817484
Ni 8.750792236815865 2.6815749604206327 2.231465738362477 -0.0890244469595241 -0.5621138563940319 -1.1101149275357656
Ni 8.210138877968394 5.888415290978648 2.285319110896477 0.5644587024771246 2.106622319456004 -2.9915425486248544
Ni 3.861467575969606 9.496233390554087 0.8194686657939895 0.711140137828485 -0.754576611745565 0.6428428961139833
Ni 5.528527213937241 2.5633251032310507 -0.12820479395259748 2.17410040770332 -1.0725449397017917 0.6152616440616049
Ni 5.63516955430019 0.9403556773993618 4.308957077826968 0.4252923445558869 0.6483867087503479 0.5082315045532795
Ni 7.353696830118091 8.30040223213724 3.1087847998759854 -0.4582986242785785 -1.359289019536414 -0.544069083077179
P 0.9802983815466614 6.629048271738881 8.83065745812468 -0.47647298119476006 0.38295810256405016 0.7939229747536714
P 5.724873178408622 0.6860253490300681 6.518209791103348 -1.4248544641420493 -0.6782292460330771 1.3631909256939814
P 6.893167453033592 3.7473376990607816 7.645498792056492 -0.2798612366718599 -0.043269352211596446 0.7650507718040115
P 3.3824946345993103 3.765258236896682 7.6191088960933335 0.42190568747184115 -0.43586394942414614 -1.527952358475504
P 5.0549497033132385 8.654215861637752 2.790443374761559 -0.09619062569066014 0.6141568410332003 -1.4027478620509972
P 6.129558012088466 6.083412397763455 1.4162189053684355 0.15854064868279147 -0.6268048688145141 2.1177292280024433
P 7.02146492360275 2.9345545959228274 3.7757380352901193 0.8563804698579445 -1.1838323118245742 0.5920638657889029
P 6.7994631353785895 6.6130913770657465 5.747080697953141 1.1957144079741406 -1.1280967088251668 -0.2719982889840154
