# total energy = -381172.3850484964 ev
CRYSTAL
PRIMVEC
9.21589783752980 0.00000000000000 0.00000000000000

0.00000000000000 9.21589783752980 0.00000000000000

0.00000000000000 0.00000000000000 13.48839804245234

PRIMCOORD
 96 1
Ni 4.147891301248054 6.99556687119216 9.800778348644354 -0.280421222940388 0.743371744168681 -0.40463790153032897
Ni 7.6522456720063055 8.567061771407273 8.23291359058966 0.24543853621761602 -0.20083066770025412 1.260221329408275
Ni 5.189094223670076 0.8668381352294942 6.75273717892282 -0.35376245483670044 -0.990127970756456 -0.38038057164486105
Ni 1.1286802247492678 4.018048516535816 4.194919106351899 0.7257306340481502 1.3417882916484891 0.5853255186238049
Ni 8.058399505852073 4.007671415564422 5.582766967066856 -1.1278483402597868 -0.9289948508905614 -0.6661458325059818
Ni 3.3865014691399606 1.9992507986052401 8.21962703066918 2.214967835341643 -1.0177171932286342 0.19678297999344171
Ni 8.88969192310051 1.4142440353173273 9.022699447132089 -0.35386941272820993 -1.950055763780448 0.10498045606814824
Ni 6.554613807090633 8.428611338109528 10.75156133255781 -0.5663842016346117 0.38113801863617586 0.5845868406855673
Ni 7.0597555996697485 6.008129496787116 10.413758126655601 -1.5158933704284407 2.5999095439946256 -0.2317391843536525
Ni 2.765801533505501 3.9625872433156983 6.158236197676887 -0.412921738805676 -0.37688284290424773 -1.1063750008773592
Ni 8.857804916563188 6.493208279761679 4.868218778926177 -0.29281779683252795 0.5876443965649687 0.26047537594608045
Ni 1.3984756341076856 8.740182412390977 2.4993054155749337 -0.13824873120297482 0.8564941126176733 -0.006397418885911563
Ni 8.206157995971406 3.394261255123899 8.069380248132195 0.5228196867800996 0.4892328519635897 -0.5685351865393434
Ni 4.984187951025326 5.782911385296047 2.9112680298312426 1.6893289339451938 -0.6921258015095113 0.06950540308998997
Ni 0.6980572605401345 9.008558573481547 6.934938244051385 -1.9170191450404532 -0.5809993804446253 0.8747975389125514
Ni 3.6289533095977324 5.667887764315607 11.79652157653049 -0.22653732843773888 -0.2789258693417842 0.503879655342487
Ni 8.026586226497495 -0.2819124718426007 12.79602532598158 -0.20603869426375485 -0.07648389129035214 -0.11204353356251671
Ni 5.188624212880075 4.410986752874497 5.202205681531535 -2.323840941595978 -2.600036813601109 0.25364061241243413
Ni 7.880486597989929 3.2698282024455945 1.7044618742961808 1.0102993034980083 0.00673526184130453 -0.6627843722329166
Ni 3.7586025604552638 0.6220012204099136 3.022345403355244 1.1313841213271871 -0.5311312919695885 -0.4147171401432019
Ni 4.220807484983111 1.9172661713925165 4.957943838737368 0.2961419761097545 0.6717539227213786 0.17814453895664803
Ni 2.297845888723524 6.811424016388043 0.8704240410802664 1.3579456181346419 -0.010312951890233851 0.05897622142389197
Ni 5.014692572886176 0.9860642056264147 -0.1588175675311227 0.20722243015921085 1.0898996289301552 0.06712533289358763
Ni 3.9894239378349714 3.0448773519919783 2.9090294882451393 -0.49165740224468224 0.5540886720967102 -0.2511636116268513
P 8.295395534786694 7.013482576599258 6.928423525866057 -0.013321142588938349 0.11156993636020786 -1.1723003999255746
Ni 1.3518892705105274 3.894214497217317 12.443343974601378 0.5218583513080947 -0.33975019971800846 -0.0087710613244107
P 1.394024355449441 6.641639530423563 12.434225765275357 0.07853100362736798 0.07781289451442082 -0.13020786317636932
Ni 2.649423175542116 5.234316634386447 8.20666487035278 0.6175183013062655 -0.992170969328414 1.4096337905375529
P 6.055821768125452 1.781239519227521 2.336743428750136 -0.02733108371478519 -1.0309108091007728 0.06461747887006936
P 3.0793355940275418 4.714023905753182 1.7112327944415482 -0.19835212425277451 1.9215831102620518 2.1715861259218987
P 4.894756878355331 3.202229591766039 12.161476660658208 0.7588564700678415 -2.153273957876272 -0.6339311954466501
Ni 8.360819193575267 6.546559112375713 12.550792127554743 -0.5335720402005972 -0.18551383483752565 0.795583907395862
Ni 1.3495392165605227 2.6621779781570454 7.8448524073895785 -1.1968037843835775 0.6108460314924125 -0.2406331444091727
Ni 6.209708830310486 2.06648077337107 8.572969161924737 -0.007090588298194239 0.635616553568873 0.3939423694896957
Ni 7.265721700566463 8.466285928492352 5.585140982351254 -0.6611398946509582 -1.184889806554811 1.2233553096198606
Ni 1.2384507839591095 3.2838547989628797 1.788521000113399 -0.06808975368938597 0.28983351739322344 -0.04491485823481942
Ni 1.9186669878646763 1.7249580310993617 3.642326498957938 -0.8515532236726302 0.5468229916732325 0.5454708485207121
Ni 1.7763458774728047 6.870405762584247 6.975781260112687 -1.3260603393902712 1.9183121528202638 0.24306129423469103
Ni 5.726565385882987 8.513065825944219 3.590031808236728 0.5453001272708028 -0.6400925870623557 -1.4166050796490635
Ni 2.1258956667659024 2.1738275514481615 10.328687095255203 -0.17253722007219963 0.9759159409221321 -1.520506186610104
Ni -0.16327714049742634 0.5732988866679667 4.796447209703239 2.3748284883874393 1.5358309898926323 1.5205414107234136
Ni 1.7232162264070052 6.2773443045814155 10.335700393513847 0.7620384673402489 0.3394848618717637 -0.22921127572547623
Ni 7.223033661756959 1.9541021150716147 13.28456099223711 0.20592068062865182 0.2289017149048574 -1.0594657379203303
Ni 4.362317596364785 8.09520780183764 11.99941417549651 -0.24256687109677574 0.7115587134231423 0.03232750848811207
Ni 6.46232580608926 3.612576659130443 3.5940785089796585 0.503993555212532 0.0017205822355325206 -0.7079691962996711
Ni 5.6689660243632565 3.6051670772645443 1.2454954162704186 -1.0883384550906223 0.3322124965800666 -1.4316468044735344
Ni 0.4652590730730698 0.3418987509037089 11.222401553364696 1.2088707428504406 2.5924937111465285 0.6211769811047754
Ni 8.744790361312555 2.620531335803819 3.6558821630954372 -0.6796011866799392 -1.3405749880666782 0.059554462524865175
Ni 3.4669839050042497 3.7229462517000895 13.460490638883407 -1.2393763676384655 -0.7336606875285042 0.4333612376069504
Ni 8.664501459302972 5.322936708046244 2.8392402586482652 -0.8294862165702618 -2.2283249733748396 0.9493032234306104
Ni 8.292455663374728 4.190459533385596 13.021510698510099 -0.5835293459553306 -1.3077898232158573 -0.911708810116604
Ni 8.71216608294778 7.774135136879898 10.610864063365904 0.054342579306622535 -1.749804879843064 -1.1202481593150255
Ni 7.140910796076588 5.531013249549041 1.1245118741548077 -0.7809661574826873 1.4776410118154617 -0.08307260025146337
Ni 6.741208090721031 1.2987596194447282 4.4927022758702 -0.6969836438224448 0.6942096806217335 -0.4688859128761215
Ni 2.3111536452090418 0.8968165293234992 5.968549058730326 1.1328933588828616 0.9091945283351826 -0.7623644832211
Ni 5.921536920652813 6.3142447595454145 5.241362188287541 1.2781707147978438 3.029922176844317 -0.10934413235348266
P 7.407010630399901 1.6878916899741847 10.982415887169752 -0.7311253227011602 -1.316190902795359 -0.20200797583780694
Ni 6.047702562125631 4.8931440962327795 12.38885037065479 0.9320027844789498 0.3439071593091755 0.002387269285253953
P 5.451581426038871 5.563020062758324 8.997287530419367 -0.8982295446832466 -0.7881058538512621 -0.06808718258622468
Ni 3.1485193391361204 8.667634864569646 7.683126302499155 0.8959937133741924 0.012081099534250161 0.35607079125490293
P 3.1989303003381884 0.3131211882986672 10.201261640547227 0.42106570806904897 -1.2885253185592904 -0.6631839216641804
P 7.061147200244065 6.5910626830603185 3.2592013506426505 -1.0247494174850675 0.6390952561460929 0.21090759232028194
P 1.2538413333571816 4.09148079055009 9.593298997321794 0.5761075995699627 0.6991166310050476 -0.7935169975645043
Ni 4.535502748633389 3.6196729004696735 10.09896609607797 -0.8789005053373316 0.8490911352853828 -1.1759349113543682
Ni 0.5864361490433868 5.028138567839341 6.503458201342838 0.23059864299130609 -0.9150833830157917 1.0211925533717445
Ni 7.5996966225046245 1.2022415213333462 6.853724987488134 1.5411197490953974 0.7968648309908147 -0.40276768109080957
Ni 6.979282379703303 5.364288441668489 7.546191884396609 0.07906296487143803 -0.07559428959654722 -0.6700528808698718
Ni 8.302814332550437 0.7563035780884547 1.608397198358682 0.8440600006193785 1.0105741544259499 0.09297366141525924
Ni 0.5162828914817079 5.393521269626983 0.8331531070229713 0.36686633920851014 -0.8921429721695346 -1.080809750813745
Ni 8.968036270665188 7.506754292756388 1.2351459629925532 -0.6331488087546708 0.9031115553658963 0.5171547751848384
Ni 4.661898787552286 3.960264837059223 7.434198450626997 1.335011635046288 -0.1266872516176205 1.6166957838594995
Ni 5.1654370139066925 1.3704500887666455 10.863569511763972 -0.08307902800936659 0.151631580267784 0.7236027890718698
Ni 1.805873614162279 7.829992693707272 4.727791535541074 -0.7770632228838552 0.5489176694187321 0.959491991038154
Ni 1.226967775246536 8.501140454135173 9.21673003873213 0.8605148037412921 0.14128057605076313 0.023836183187649275
Ni 2.650989878175453 1.5076010804685065 1.133471570037925 -0.15902838695248742 -0.2400777861263349 0.18753343637071573
Ni 5.282939711406943 9.24446712647068 8.95493402870157 -1.1484999550718673 -0.7358049875650167 0.2326246722823994
Ni 4.1412835024945105 8.274908593881358 5.136138753073513 -0.0705001629030915 1.0018133775141844 2.2928522065239476
Ni 3.3950538223384106 7.529987571218986 3.13843991166506 0.7595812640490079 -0.10388053813575013 -1.5657349765409163
Ni 2.7681055079662906 1.3922272553700255 12.300151040273542 0.5931588986252946 -0.5341163427398413 0.5047988247226467
Ni 3.0711518767428188 5.31115879060269 4.026839561488404 0.5727448537453168 -0.5600523458793129 1.254269482700214
Ni 1.4437256925175859 8.88244822739579 13.441660716410269 -0.5800246752361816 -0.03918438350894542 -0.21307528939556208
Ni 5.6385259137873085 7.53239292055605 7.401515190516026 -1.0102998177186406 -0.5775942114178182 -0.35364212720875227
Ni 6.501244542680912 8.515738436318733 1.1240142156712774 -0.7599957258786072 -0.7723475625757409 0.09835086656677257
Ni 9.157644152890297 6.231651883075044 8.657069759282251 0.37859854004377375 -0.30853289357493957 0.5475465001028184
Ni 6.8890218762274245 3.8729995003823703 9.957310373510373 0.2998387082350513 -1.2795475405407126 0.8199749346457169
Ni 4.735782640560875 6.227624535717584 0.6672051993305981 -0.9682751365474226 -0.045292039068580064 -0.4706926270675571
Ni 8.115160220668077 8.522770166373062 3.401827507253131 0.03727996739738095 -1.8135332712399606 -1.95264306489165
Ni 9.179854466692305 2.8264329254156304 10.854370202536932 -0.8825350167661252 -0.3684861342001202 0.7400923020864609
P 6.281196549879854 2.7889150052961384 6.260100438127084 -0.541127741060668 0.5812744884828828 -0.045347317786547714
Ni 1.3736203576246915 6.322308670158177 2.9629286667808428 -0.11118735620980852 0.2751077811472746 -0.18332556893695526
P 0.4311897419264874 1.9735200118271463 0.07452896585760979 0.43388368576932373 -0.12380633052539969 -0.09512618898188778
Ni 3.84199722003799 8.576360612331019 0.9120734482028453 -0.12006948919078675 0.050155537808468466 0.528229030721129
P 0.7824859438608633 2.503664535254747 5.762890768821573 -0.34592856061457844 0.2729927916868008 -0.7200382116490632
P 3.5726165260825145 6.4290011194884045 6.127091070915938 1.5063340088747799 -0.9715898027429526 -0.49989213144964867
P 6.185581609757101 7.045885673415797 12.819818931033042 0.47664755909941137 1.6542971391520414 -0.473203566414869
Ni 8.989739710085821 5.09206925117732 10.834676750435891 0.5428539797231554 -0.19729462952253765 0.29324562839856594
