# total energy = -340859.4373271457 ev
CRYSTAL
PRIMVEC
9.43903914089029 0.00000000000000 0.00000000000000
0.00000000000000 9.43903914089029 0.00000000000000
0.00000000000000 0.00000000000000 13.81498789539363
PRIMCOORD
 96 1
Ni 7.1278621133665006 1.711005191608829 7.339710020727551 2.524675723061291 -0.7302940850491164 -0.03201460523338358
Ni 1.468780568385521 8.041995300985722 12.557713760351804 -0.6243124414099636 -0.10530055841172832 -0.3681973993151078
Ni 4.854658309654039 4.504913591226278 1.1991685730056227 -0.07825229604468459 0.8752773067624474 0.6338106107083858
Ni 3.3807995381941613 2.4212362550417086 0.34534140665417923 0.8512050963045922 0.04433173203783978 1.400876356059897
Ni 2.280811669284825 4.403189066073226 9.926635393773028 -1.5058776380636518 0.07692200726903525 0.1121324937318972
Ni 2.336492561358486 4.541131184527962 1.8034086655798587 1.868044000693331 1.1481034909643968 0.44723850980967494
Ni 6.499288177807708 5.99233626197584 8.77265527689784 0.7678424756165357 -0.5937016585026419 0.5279546940138199
Ni 3.87268674750805 0.501279997193614 11.198913100778876 -0.3702676515805752 -0.11140898530231136 0.09982847955356355
Ni 2.106151688452307 4.241309544279145 4.020562510787047 -0.050239612881842505 -1.1872595923385683 1.1186083097187574
Ni 7.8676845646025555 8.925121244926018 13.335925727802946 -1.1744238740264805 -0.16072480081830384 0.34789031232663953
Ni 8.564257338354034 2.4683276214691534 11.260472626448651 1.8899523707306483 2.65996614296689 1.273388462917852
Ni 9.068566323217835 4.0469408496561865 1.5041486481617556 -4.111433324600461 1.5304967221639125 2.7904797103091363
Ni 4.761806481322355 0.9220072340962255 2.2214637104929715 0.7577385544133143 1.5274697624121307 -0.22162600717905057
Ni 5.478267310608535 7.702775111234368 13.885443934683362 0.767969231002387 -0.2672000962644237 0.286071736357946
Ni 3.0033229226800433 6.75320777056471 8.515945504161692 -0.1153096059082982 1.1768484243075732 0.6715022117218887
Ni 1.1524122924687725 3.49599357224518 14.116292627896977 1.8484066860783779 -1.1951359097628513 -4.620660617408107
Ni 4.8917631726378605 3.689767607400323 12.726339363441877 0.35617594937419955 -0.4491349555014394 -0.1628539313461647
Ni 3.0281759128190413 1.6207868552060396 5.188094256200995 -0.07158902509189607 0.21376743036658025 -0.9385197596618611
Ni 6.6469902627659465 3.9036184788736015 5.497259601325845 4.8007273130881325 0.5954790621180389 -1.2001112514902559
Ni 2.033357818360414 8.623713846096361 4.166323929291591 0.36718232778703214 -1.451290803956707 1.5128959783630138
Ni 0.8078675407206818 3.9946485726451537 11.727115125497917 1.6735441603071115 -1.452290191755499 -1.317894515750027
Ni -0.011530730252107891 5.515579832454133 12.964896919946993 -1.1023651083870174 0.9907260093517714 2.5654963566220785
Ni 3.4043121847707827 6.851817412791112 5.853271841763593 -0.7337630174343234 0.425700378627583 -0.38239888762647045
Ni 5.041324748312918 1.1306269900605659 7.420389264143454 -2.6287442088381305 0.19238896469080416 0.7758095529824123
P 5.030347145756269 3.1003562453647757 6.362230497323358 -3.026952552693032 -0.07061869075882676 5.557338952985855
P 4.889205193022339 7.112646382221774 9.479568518061878 -0.6727774788898865 0.5281087030931807 1.1835296929824906
P 4.319247690719596 3.075484377147434 2.8933562285222933 -0.3151755957024378 -1.6207383293599895 -2.970853652816935
P 8.474897954515866 -0.24221140856846735 7.901868988866663 -0.03504310764706223 1.6293646375764197 0.943538295922375
P 7.132213510424639 0.630877061116679 1.56590167413455 -1.7469314149500108 -1.713698878149126 -0.8852184771355592
P 8.161795586152515 1.5425372204729237 5.40315238078433 -1.8325596917437923 0.8495914719605691 -0.32709497284784317
P 8.171725455361107 4.68345301715835 3.677107968063284 0.5559622349703393 0.5092247217044843 -0.27939278167587367
P 2.042872369845454 5.237864421945359 6.238019349151646 0.49545183629010797 -0.22629153097551993 -0.9157487845139327
Ni 1.1228586608222844 8.015603747461743 8.059415047777032 -0.09994597896803432 1.2147066328059275 2.5995657875019615
Ni 2.6479147807492813 5.366433574502629 13.378434440712546 0.3197819841261977 -0.735481799897643 -1.3314838243986877
Ni 6.276838341649042 2.5128515692419042 0.9825624459981354 -0.6949653278408354 0.156878173378704 -2.0931690221645756
Ni 3.995120524603737 5.168487484033609 10.986259099472564 1.878694538428642 0.5312930143584333 -0.7355969853192686
Ni 6.833335774092989 9.166987184660803 3.68260620838078 0.28097015346532256 0.010519154363768981 -1.4689272860915474
Ni 5.9049307592462075 3.3764103849793363 8.49356554228567 -0.34460495670714847 0.8351529279377359 -0.11461515094443486
Ni 2.6381736923241217 6.551674845210458 3.206168818383075 -0.5437613220287733 -0.9938182751238498 1.335643869313648
Ni 3.292129204215525 9.189083975361674 0.41133539292680327 0.4206810710361207 -0.4002698543696203 -0.13643301815047473
Ni 7.91777754548659 6.121688854784359 5.322652479112688 -0.618259036127032 0.169868672101101 -0.29124248192560814
Ni 3.626894167477852 6.7434006088653495 1.2807029933704788 0.6986049814759517 -0.014784614508342281 -1.6168878452656474
Ni 7.5787555755578415 6.086273579812265 1.3587024935655454 -0.7919730501161523 0.13395216071014995 0.10283847002448095
Ni 0.3912292955872363 0.7481080398209435 4.468043760317831 0.20755230269480385 0.3010944350190234 -0.03357346508007121
Ni 7.05213270209222 8.845814437805675 5.965311348923441 0.36605798437460185 0.44616404579857355 0.9889450061919485
Ni 6.233399883381033 8.830287218368284 8.642711800237175 -0.6325898509274073 0.19625924627948782 -0.38874334178725956
Ni 4.398932059406805 3.977733814449527 4.664478660615466 -1.0402621684086857 2.0148439639004265 0.09195961832844808
Ni 2.2772248343995916 0.579965715536461 2.4643179176290295 -0.5283017929405934 1.5384509440139826 -1.255606970564715
Ni 0.759596294396779 0.9821792210077657 10.175664620335189 2.2211809061308907 -0.16828821498785854 -1.1408069573029835
Ni 0.6778343931878859 6.02127635607617 4.438935651320245 -0.36447804148199164 0.7620184127355909 -0.12966073242364765
Ni 8.434404476469416 1.9213258624319036 13.961565066083267 0.6356492065790214 0.20704245293792084 -1.6836257129128296
Ni 6.50909533950707 3.4435030754115425 2.9871868852160794 0.270891686183398 0.39744626887789614 1.0958208795105966
Ni 3.1550460383254118 0.02562510354324042 8.584177486621918 -0.43789537803187806 -0.7611984879374568 0.12309747738383314
Ni 3.573686303667168 4.694185204696535 8.110834213664686 1.2841580427295305 -1.1745195190640803 -1.0252579816903697
Ni 6.50246913400856 1.8716387602322504 12.078554151456991 -1.447887691812429 -1.0533092314006312 0.6645615187379975
Ni 7.962424200768572 0.6818497604515129 10.374889700611968 -2.681511216127517 -2.4066366340369716 -2.08708399231276
P 5.398630137117183 7.549796603379169 6.271217393822315 0.3337865259354058 -0.35182872814909727 0.3439755506532656
P 1.124425541324781 8.661083002176989 0.7900683445546702 1.218694670919398 0.9363114391566326 0.2709449080188366
P 8.926971296603664 8.042108569455783 3.959638232453525 0.09546403193728074 -0.26097005619431185 1.108292529615046
P 0.8366443394433417 3.022436977002668 9.119259626993188 -1.063885721364897 -0.5972101858765327 -0.16391939649620157
P 8.661101880255334 5.987003204843848 11.10171081929297 -0.7509171606161068 -0.1260820139334538 -1.9205860364561052
P 1.2574121642143914 2.727297100182997 2.279017307938291 0.17768071194635204 -1.3871227539192303 1.4584233012364303
P 7.565163359150641 3.9502945275774923 13.239497447529118 -0.039696804368989695 -0.7673855905847752 0.037265569219677754
P 5.120206798670535 0.26109703814313784 13.179484980379579 0.48976352765607906 0.6379362028409852 -1.027833969947662
Ni 8.455123167451225 4.353322622129312 9.452325563204615 1.9467688654990598 0.36676400930269093 -0.8093053707470126
Ni 5.733763222907205 1.7035389116240405 5.188564320351744 2.7061488121705395 -0.8942636180569631 -3.1984397342341624
Ni 7.994970007832479 7.86035043116617 9.83649256968361 1.2380507068485067 -1.743917310714035 0.6029825695839358
Ni 1.425379866274198 1.2126899966190352 13.492891285804259 -0.8955602253811996 -1.0691215158425396 -0.5355656735918582
Ni 3.6324915177066504 7.246180469383341 11.842055249395218 0.10267751896658447 1.8667000850709272 -0.35212131968885163
Ni 0.45100484285356635 8.04617679533877 6.034497618243923 -0.8068954757539394 -0.16090297826738093 -3.3338551097534
Ni 5.888327489343246 8.287136587313075 11.144122310099101 -0.41470145641391803 0.6893112148788516 0.009712085081441337
Ni 8.80517937417165 8.344629774907697 1.8457380367451974 -1.3629245594064723 0.21870266288466853 0.2630323380399792
Ni 0.6166165607361251 5.574205704749353 7.756936318001391 0.1312897833866384 0.005126779703604074 1.0035087629387363
Ni 4.304560545768482 2.872167473389736 10.496365415231732 0.5255820800165851 -0.4595996024781891 0.49877010203006367
Ni 6.794531884058267 3.954938534849952 10.779324212000367 -2.0755412817804837 0.44212741383535464 1.7928914266198928
Ni 4.617200401212423 9.324609699788462 5.333345022686352 -1.4211055386225784 -2.623127891092618 -0.0900541737756191
Ni 8.289165980734984 7.215465835918738 7.3920542124540285 -1.2346187983488222 -1.6291782325972266 1.1111037738115963
Ni 5.411467230390651 5.378779837739169 6.624245010073983 -0.25210309272198517 0.9945528392970291 1.3067384991332076
Ni 1.057672656302755 6.462306022333119 10.156641180788611 0.07821964303453627 -0.05959457173418124 -0.0387480673024752
Ni 5.487564764192626 6.2550813563583505 4.431737440047932 0.0885945585109571 0.26886719955420146 -0.560616445912899
Ni 7.153479665678404 6.689805744448626 12.365657630325906 -0.4893102421687444 -0.4834787230886319 0.6000551115244956
Ni 2.8800773882155926 2.4389344534885837 8.802937602368381 0.3243698606071962 -1.6426703535463902 -0.20378049435719744
Ni 4.096996074383535 8.391088725710638 3.045002887950371 0.6351537549998416 -0.5245862917622192 0.5006030414737442
Ni 1.1967757765756055 6.558489831492402 0.9335190862699901 -0.6464151868462739 0.0126138321092686 1.2111896207916044
Ni 2.26611508529454 3.130183609147242 6.7543413991692285 0.3770026563115636 0.3205857109744156 -0.4630978454394347
Ni 0.09338985356446912 1.9466224874119697 7.087779233524018 1.0604435284525673 -1.062374684037009 0.9368673116601026
Ni 8.69983025797668 1.5178635720781872 2.4356930874370333 1.8883397748278898 1.1079487731223823 1.8240035746436654
Ni 0.28565269854822845 3.9482651341555846 5.9039736406742 -2.0186959906566657 0.5792721133408734 -1.1033845507904674
P -0.12074135737220736 9.746846239054625 12.00134281103276 0.3601130796450766 0.46035062171160074 1.3926133447201563
P 1.9463109991193048 0.10044459144137272 6.232479577061795 0.9768520795831565 0.26172904584752343 0.7889730869475637
P 6.019681158456158 1.552976797796787 9.758230664199571 -0.6480894892249032 0.00013498291596750946 -0.11906393074440784
P 2.743588881793294 2.4414357988690756 12.116586871991387 0.16150821595154763 0.8121502963949754 -0.5597633538839842
P 2.0324139144432474 8.37330557591122 10.326012467973245 0.7554636423362086 0.8564899988526153 -0.4656180407581271
P 5.531786662711884 6.864881043004698 2.3858757264968116 0.770346472985312 -0.22819543286645216 -1.2300556044581719
P 7.9151062974010085 4.904770168616417 7.342597422810164 -0.2526710494103132 0.04699950867799003 -0.75465862993641
P 4.844086585781772 5.801176840671248 12.942060108575063 0.2441714965797343 0.3408735146891742 0.7729980516755461
