# total energy = -381167.1975728632 ev
CRYSTAL
PRIMVEC
9.24159859843097 0.00000000000000 0.00000000000000
0.00000000000000 9.24159859843097 0.00000000000000
0.00000000000000 0.00000000000000 13.52601370390525
PRIMCOORD
 96 1
Ni 2.8359877819446866 0.7964492669158374 1.883524623443903 -0.4193168436987424 0.38011831912240984 -0.1147277652628992
Ni 5.110936608669287 0.7196294044368982 7.669777172257405 -1.0273048369170694 -0.519399348244641 2.852636386343539
Ni 0.29017787209018553 4.906604868208128 8.741294297891468 1.2766355091002402 0.3820543598028581 -1.6567548566639145
Ni 3.4166374089539433 8.7588727421941 11.187663684881379 -0.02614194850269046 -1.3256507626566782 -0.28332322707853136
Ni 7.304651785522627 5.616073135212324 7.237310106355175 1.4774888025083137 -0.2708304939281594 -0.35333616593255923
Ni 8.563533076968975 8.320811736784808 3.866438016801399 -4.361906852138824 1.3855656938447558 2.797461798053924
Ni 8.146524432698104 4.028985718449938 4.205616691889014 0.4809320454073782 0.458955541136287 -3.5460726791343573
Ni 3.8184713486641058 6.512757702454519 9.351871917135435 0.05740424895108178 -2.473762481151191 0.8300821982830479
Ni 4.302361440502474 2.8921674585735144 6.911589971006754 -0.24326235450190362 0.1789806617046982 -0.25311225071278987
Ni 5.704311916665203 2.382456340826124 10.01537709453386 1.5335753610892362 -1.166844519017326 -1.2276840189022018
Ni 3.6366521418874047 9.172646827027545 3.973131346084531 -0.33559838233316397 0.005088470266500914 1.1770811091436695
Ni 0.38948901257728047 4.669465453453114 6.127608544482421 -0.17152009166159493 1.7033496737043181 -0.6573102364922228
Ni 7.379388591723867 3.6583329317165267 0.32428214263852645 0.6964519396886909 2.4647006280592394 -3.2977336814404947
Ni 2.347920487632847 4.773590542542933 10.835472839256933 -1.083876819774843 0.09436565666677942 0.45176853646954457
Ni 3.8827466654848823 7.85049755298522 6.743245014686516 0.5383347516965632 -0.24954690195903473 -0.884935655787818
Ni 1.0427942378297552 1.6518802630931497 3.4886155980349813 -0.8726082445707166 -0.0872303311735788 0.26937782064203286
Ni 6.729547117548952 6.349893013981114 9.326511122826366 1.4251110602375456 1.2117184967118808 1.5378480203226612
Ni 5.820349426083128 2.9557034475228803 4.70478037339089 0.5955736787143743 0.9950426344492541 -1.6855645818067553
Ni 6.899269072029694 8.885704438534622 13.153209342379595 0.8791411605932279 -0.9922655859247491 -0.3500608376153971
Ni 2.614457426874833 8.292671069679235 13.468163015600595 1.543384119649542 -0.1541000964129346 1.0484917554073296
Ni 1.2461278856645102 4.0650279521812145 3.6954019070292246 -0.10852035090060666 0.6030206219107227 -0.1915037338723734
Ni 0.7449901987459672 0.011497472560277198 8.839871655466188 -1.7360237668985714 -0.9202333026478474 0.15526094949025518
Ni 0.6346288790607987 4.1806495896714715 1.5001969845149923 -0.6105488119669679 -0.5910066281689822 -2.015621979717032
Ni 5.311285220223222 6.981482331330574 4.653395238008161 -0.35866580567558876 0.06101921999584975 -0.0636448305441549
P 8.47601514019072 1.3367140331091185 11.336827703737702 -0.3102856145999882 -1.5184976408205073 -2.8674767937904813
Ni 8.68749987780778 8.06503201807185 6.500845282126413 -1.3014926773532358 -0.6555521161505355 0.08294121687992166
P 6.656630906231062 8.818351669449099 5.095546574866033 1.7404152110980478 0.24641041321258206 -1.877868957203553
Ni 1.6516122567397635 2.582786469183273 12.758344492017319 -2.0125392270266502 -0.039892722429879686 0.6594735626921288
P 1.6523700678079596 5.981301103689259 2.260345252944559 1.0846373520899515 -0.8880903993667156 3.2952775065905184
P 5.289715329574812 7.933450140157513 9.219465688644474 0.6352517140302867 2.3962979711151244 -0.14366964510823
P 5.07495906612676 1.9096561670589176 2.8385689603757496 -0.5009259720308018 -0.974040321165974 0.4925650016606163
Ni 6.207415291561859 7.829750164593755 6.7788723006499625 0.22456220698923907 -0.9946381999219839 2.2328891957067545
Ni 2.8639621002791924 3.511345309281667 1.494016203509998 0.5678379033620028 -1.672992144458383 -0.1974463246090535
Ni 8.411712098574766 8.084282267523708 11.232312619195715 -0.6650538849933837 -0.032138789516073685 -0.6931997512999803
Ni 3.449140110500841 2.0217105475696173 9.28288985425329 1.8504571408495034 1.2049855488634216 1.1339868490573568
Ni 7.796933248701508 5.32243058788474 1.763250765322794 -0.7105446703363312 -0.7539973422033273 1.884534799259503
Ni 3.3028733327406066 2.3329306150399933 4.081380036377143 0.583518290211737 1.0662164263806024 -0.7531072262888902
Ni 7.597148374649525 7.477063045135625 1.9609877011709695 -0.2483274277296368 -0.5336188342781326 -0.7211178178664871
Ni 7.594098647179955 3.9961318361641207 9.24294674184048 -2.229038968722729 0.7508024894151134 0.6462069274902097
Ni 5.165194032832448 1.0056152874961843 5.48934309645412 -0.8222092232928744 -0.7431624563713524 -0.8941224644934085
Ni 5.533333104803063 0.5196282769825272 11.341062204121208 0.15476575502139153 0.9555389199276769 0.02764347274888142
Ni 1.568955400716036 6.7266267724568785 12.244599416571544 -1.0005573936198962 -0.31837610491760654 -2.028123968838784
Ni 2.964473724397491 6.505826503660044 4.602361283364352 -0.5912675951398527 0.9047655460295514 1.0786430821797295
Ni 1.579185850136683 2.9546499053061197 6.896900450361661 0.25047944107563314 0.3615464696574935 0.6812302376429301
Ni 2.42926503668482 1.0168161047480582 7.761185821958957 -0.7520661866188855 0.4763086877027539 -3.739700915548901
Ni 4.581661027124689 4.19186889012013 10.366025517386575 -0.4087871478120121 1.3209219897224411 0.9316723977227244
Ni 5.263811129280256 6.6120586771833825 1.831760582527076 0.6877464414948931 -1.1942745902038208 -1.2407341672179408
Ni 3.041410031016177 8.53486563875502 8.776394812746537 1.1443157417871905 -0.3190587328069279 1.599321297136794
Ni 2.7135181200454874 4.259896295888317 5.301385620025032 0.22345791818146676 0.3968585146952262 1.6151662345888507
Ni 6.882504812545454 4.660362479036368 11.39850705556999 -2.027317156666773 0.1478723703356679 0.616695291184338
Ni 5.893487435762441 7.602406844134935 11.410125593069209 0.10463181447947786 -1.6858867410328642 -0.4497970145654705
Ni 8.165700749362822 0.29357138701996105 1.7318163925500853 0.10425566208698174 2.463204760240003 0.012309927715604607
Ni 0.5240402160551711 6.530094941039103 0.7093351879873422 -2.15155800362643 -0.14242214585437407 -0.9334593144198181
Ni 3.8678214840807765 6.255517811195525 11.986388233321481 1.0600794602449293 -8.381796305792017e-05 -0.4479157383823576
Ni 0.788875777033073 8.222434921895209 2.4199800027797402 2.6569124437422307 -0.1717373498787236 -2.641209688294993
Ni 7.862835086839389 1.4058873970779915 4.357378524053509 -0.4186768961218983 0.18813918827551468 0.18320884085343284
P 0.09462195346267194 4.7336298710931795 12.777213063455562 0.19035110832516894 0.9968331506907736 0.7456795663662513
Ni 1.5498715000352445 6.797731630489813 9.763793061491157 0.30313537670845214 0.8874499375692394 0.8223632323722353
P 6.246202280015749 2.872270297234172 7.987191883130363 0.1720217138883618 -0.8231980695687049 -1.4309418079867098
Ni 2.919152925880009 4.273111781589784 8.59483437072483 -0.3100976669588982 0.746710835844243 -1.0402732241522794
P 0.6816501316825254 1.7255912518728065 1.3764612236360023 0.640609121687458 0.142444000231245 -0.7630514819857955
P 5.493631198108304 4.707439181248452 13.207881714310584 -0.30987372387355017 0.9261206146665598 -0.36114820577781026
P 2.251817105947836 1.2129228226397728 5.534492925401339 0.9447235744797279 0.8817917108421974 0.6506011999031635
Ni 0.5584254311946482 6.549714854426668 4.259327937587169 1.007795306129232 -1.9504565987632925 0.2312380763475179
Ni 0.24513432152448253 1.0901481879936168 6.269347863190103 0.06863354200799793 -0.17926451149370418 -0.14752912806363624
Ni 2.9160939568120465 5.748865662516096 0.4879508501720923 0.43683376953658315 -0.40388739651754957 0.8764325034128132
Ni 8.007595484061623 2.740050749030743 2.146280824783462 0.5040064107283384 -1.4824998825696596 2.053085780990445
Ni 3.5965251216665837 1.2214435763577822 13.135314835411936 1.4652038144933732 0.05235768766610983 0.22434160633800074
Ni 8.243293209467387 1.7502755611795346 13.251205403415419 0.5630602794677012 -0.9293818019163348 1.8188724240646867
Ni 5.8928127990797785 1.2110098117724972 0.9571754495211882 -0.4611697751787864 0.6422751965359713 0.7652304919149854
Ni 8.702517475195812 2.4150791831521254 8.195898596270597 0.890062692601738 -0.9722336069745385 -0.428499795749591
Ni 8.975163110975329 3.4419039389594075 11.120763754117094 -0.9057448792236853 -1.032658130809183 1.2499343456599699
Ni 1.6002104864799276 7.677670421444554 6.929930847176778 0.43969489313446214 -0.7727046888048433 0.4434317344690751
Ni 4.885099668748467 4.916835317628775 5.545652155460446 0.5077792475072095 0.22340135391191845 0.8463858205390777
Ni 1.399030131070656 8.777328214184193 4.665973977580377 0.5144584592995979 -1.3116243664705993 0.41912221118943305
Ni 3.6527602478857677 3.6830726906136104 12.578069556332029 0.8189058699512543 0.41726793158951364 0.36118163011890697
Ni 0.2912240210282318 8.617540977975533 13.280827498743331 -1.0738114651190411 0.8121556957116142 0.8520160222416616
Ni 5.624723271307831 3.689588017480418 1.729787861702902 -0.9084638208167451 0.8921565990162894 0.7778003581601959
Ni 7.822135087518224 3.3203491953010795 6.078969087982143 -1.262759779559412 -1.7774439817165713 3.7733641121293013
Ni 3.866416761125096 4.95497539419518 2.9811742168528217 0.22800157168809118 0.2271587640718217 0.9279828646862792
Ni 7.215766092182265 0.005383231063709885 9.11093328128121 -0.2521234044369593 -0.5041419078649382 1.026332188591155
Ni 3.1568098701450102 7.504649216337641 2.4443667326182252 0.11304189292004403 0.17838750820538954 -0.886785307402047
Ni 1.2275430312969213 3.008833396682139 9.611463795185356 1.5250418696969283 -2.2528412133486495 -0.39959211157630536
Ni 1.0607691467034301 0.1862653397633976 11.24298481701953 0.8518249892767782 0.4386865064746058 -0.22868394246709647
Ni 5.633872453716538 8.473251902271322 3.056297321866873 1.1512114404657594 2.7492155614530263 -1.1694603593736181
Ni 8.736545040477495 5.732979354879157 10.811694206592684 1.1051663252812387 1.495473412011192 -0.08858530253957647
Ni 7.309041544759128 0.9634273908338057 7.013778945233316 -0.45756046056097327 0.3124957348774296 -1.3094957501633706
Ni 7.498947150129386 6.454470941392171 13.037778081816226 -0.045182252963593156 -0.3607915937693399 0.06582306914239631
P 9.068392355560231 7.051857103090489 8.654376140848898 -1.799542356277507 1.096105500630551 -1.2741348541655735
Ni 7.540793107651236 6.127743471818953 5.007912193948032 0.7541022432123078 1.4045265512179745 0.3912360263021262
P 6.295691039408309 5.142163969638001 3.62936791403433 -1.100248576264647 -0.5549309654923475 -1.0050442257466563
Ni 5.342429406806401 4.951380412420445 8.279110872357721 -1.0206852747180228 -1.2171118998133104 -1.7191465315272587
P 4.915883432994334 8.475885757813224 0.4093418142443389 -0.6840661644298284 -0.15107493643336561 0.433628375225408
P 2.8057862383975554 1.5888433204569863 11.185986334773116 -0.3499075998669845 0.5978869002285832 0.30110651920388143
P 3.3219941998149682 5.73947619854918 7.032133683800928 0.14911472738320125 0.08155796337914986 -0.6146404655378381
Ni 5.958853261193548 2.673575931792519 12.289708582485835 -0.4749580872121304 -0.9407329652630959 0.7263836942511167
