# total energy = -340859.86300026585 ev
CRYSTAL
PRIMVEC
9.42227407953096 0.00000000000000 0.00000000000000

0.00000000000000 9.42227407953096 0.00000000000000

0.00000000000000 0.00000000000000 13.79045053345265

PRIMCOORD
 96 1
Ni 1.565369454332565 7.5827821139562825 3.922073283160857 -0.2528687672434161 -0.056956619890701915 0.4183845616924601
Ni 1.5569082524787072 3.6693726115355387 12.19297818463385 0.04895868928688987 0.20525476490987876 0.7289252297260479
Ni 1.41200310402606 7.2932356407168095 9.880195342800626 1.801749134120839 0.29728637412684283 -3.415866615730201
Ni 0.5829099095869598 3.716446291337179 1.7301640805060452 -1.1470272271810826 1.0996433385804802 0.4064674985399
Ni 1.8919077744297712 4.57121612405239 7.082940854462841 -1.1686391490239034 -1.7242576275015788 0.47511543872560114
Ni 1.2803550947809608 4.715471135614262 4.632267747005699 0.2806433662535231 -0.2897759246824106 -0.771959840219019
Ni 1.0410199185116529 0.27691968414776325 12.694936629045511 1.775074195932814 0.8559752639997258 -2.236367126953026
Ni 4.339899302769311 1.718236424128764 2.134513421927892 -0.2728783775961236 -0.9150409598136305 -0.5555760552755142
Ni 4.106500158980994 8.74826084681939 2.8538927182528453 -2.371891517246302 -0.11892714805622745 -2.5082803124224027
Ni 7.099419469075549 9.125490999849506 1.7726246150653149 -1.674083063529717 1.004950123370953 -0.24112062556855252
Ni 4.8042666437108705 8.344780239039999 12.125060550777528 -0.8009806529314012 -0.7924723583500739 0.8380251072792084
Ni 9.139935345553253 5.393705246799543 6.8411662515120595 -0.4967744117562735 0.6370206330052512 -1.3993030980355061
Ni 6.076480893946472 9.243797069423044 5.704405666901038 0.9050149430361961 -0.24478059091864296 0.8683247867040141
Ni 6.755817411163937 2.0210588811233423 7.005934495318957 -1.1741202267431328 -0.14246611171843204 0.7665651515660088
Ni 9.04028537806283 1.3082732919891793 6.886344169829294 0.588481033533651 0.23260127524363167 1.2723803333683117
Ni 4.319924082357085 1.8030651549642658 9.055140534903357 -0.006993657709013761 -0.10557515222935365 -0.8145154541930423
Ni 0.12619157049947696 8.662028197190764 8.276241677341618 -1.5609840921194924 -0.9131072331260274 -0.4033099267475248
Ni 1.9298512709392197 2.1223389019775922 6.035211334792913 -1.1311336958792777 -0.6119960859364557 -0.17392330178644885
Ni 5.605979652774554 0.7925979014095382 3.7141265275327027 3.1191790515296214 0.2194876206798091 -0.8015401249792969
Ni 2.334179883358752 7.520990842511295 11.84999611233692 1.2725119738501698 -0.17505484428773077 1.241003104608611
Ni 1.0550308396215484 8.764759248207033 6.291340771846537 0.5533075709563116 0.42232811972124046 -2.301266912950204
Ni 9.212722410498742 8.340116213519218 1.72553020626136 -0.8827946981854151 -0.40616590813908116 0.4136719867081392
Ni 8.607576877019891 5.697385130708042 0.5650179539073491 -0.015335087695173588 0.5508184859858707 0.7611804902153279
Ni 0.5936710884703571 7.750913167275031 13.42150040912722 -1.5116592777424354 -1.9039548556573274 -0.23064929372358345
P 8.513344716952597 7.808813039649145 5.592207115191275 -0.07119924585264512 1.326775620289741 1.261217374772957
P 3.5600836579688404 3.0896201058920396 7.369699276891003 0.38943034055195513 -0.6772565977071626 -0.8457674702287886
P 1.0521947352139638 1.9429293869449598 0.1591930844116557 0.31489226013406413 2.4872571732035165 0.7238452440999792
P 1.678700563350605 7.067195292750167 7.4962545471583635 -0.20702342677452734 -0.9006286410430424 0.43488075957527034
P 7.591149093072347 4.314176495351681 5.3899287994687795 -0.9233173408898098 -0.6791658989147336 0.157377995833258
P 8.156287652084071 8.872502948873919 12.543283248112091 0.24057760858088892 -1.8835948039437365 -1.6358330189095829
P 8.859490788784633 4.47300776445021 12.665990461767965 0.629076181347194 0.5710109017733456 -1.191788333446857
P 0.4841267912842384 6.151614105063021 2.439847857112046 -0.343700185504692 0.03194235723455144 -0.14745688006480412
Ni 7.694860060561669 7.984670357466962 9.934612742785893 0.8881017122206254 0.17916372424978175 1.6798073676080036
Ni 3.3899268157875313 3.599223783248267 4.934788691239338 1.096343584783286 0.6946071731704682 0.11642495045966401
Ni 6.778261267306353 2.4231732592047273 9.430847106263352 -1.1694235925984118 0.5256173041298948 0.9717070450471074
Ni 6.987266144279928 8.497119561504553 7.8470693556480695 -1.1384636538817878 -0.6997277822264852 -1.4658738439772045
Ni 6.782595513244854 6.4861613578726764 11.623736225391218 0.22429841180489116 -0.5016762199332652 -1.3970284430687165
Ni 9.14476897200206 1.2889199416463912 2.120074729588414 0.4707674461695505 1.1852811284559588 2.1911239388445107
Ni 8.597674067277794 0.9860786401042541 0.04328309906020708 -1.7626796789232029 -0.17353635076067533 -0.5126442889089945
Ni 0.4980887165704815 -0.08074229069739698 10.327737329454399 -0.4880953959250368 1.732871080202203 1.9146511590289093
Ni 0.19114213034268082 6.362107701293734 11.43095933054782 -1.5232665229640605 -1.3718984807703083 1.9612979123531704
Ni 6.38395795418805 5.656511307053216 4.0709131731437616 -1.428346793566024 -1.1179321095873391 1.2452328264192425
Ni 4.040694998906003 7.082468798546496 9.908534715646784 0.631709505204983 0.02451572575317713 -0.1297409508422798
Ni 8.130197375989047 2.6304821268980194 11.868350701659097 -0.8599378481918996 -0.5430265007452777 -0.21719034000520013
Ni 4.534601168145831 5.907332235059553 12.399365553951522 -0.23156666333153023 -0.347321327197047 -0.931583437553344
Ni 4.895643854823022 3.8013315558153566 10.479997504819208 0.25959580155460454 0.24475667965924303 0.8771724669026313
Ni 1.9302093173428352 2.1145655261096272 8.53733665267696 -0.8200934625014521 0.9008934646686549 0.17627123319333513
Ni 7.341044257873239 6.790755202337773 2.437061690755492 0.7854553036022924 0.9749358363970501 -0.8416179668367892
Ni 1.838511748922186 7.75934610230755 1.4985250174597116 3.2934075432613152 -1.5743193757758178 0.2667738073602825
Ni 3.8507419595142767 6.226737893905791 3.47236605799259 -0.11975144372973567 -0.24082700558753367 0.15995141298738905
Ni 8.781144582309325 6.08842833709869 4.43203029578381 -0.0681036376464569 -0.44634325168891514 -0.7994091946792232
Ni 5.86335848333132 3.2225778111924694 4.112174252250919 -0.019131064402496085 -0.1922562957676818 0.7300104923704266
Ni 5.246369151711823 4.3117267041690495 6.56359266156401 0.9422738273876546 -0.165929742058011 -1.2398404517590778
Ni 4.968185940650249 3.895478915418637 1.955347943786145 0.8030053966709139 2.329172381111221 -0.07492117478892257
Ni 3.8514580523215067 5.024757272421476 8.284447535576055 -0.41271965009719885 0.9048509066545061 2.0294719982262466
Ni 3.4285487160090935 1.6486058208993564 12.521893744405586 0.4582847403215075 1.1229089939766401 1.1860259770417834
P 3.988015066205649 9.017719032361285 0.30470314284093714 -0.32850830825560196 2.0618894953250035 -0.15487759800890746
P 7.894876088349742 0.6480922573651356 8.92522057066939 0.28200553670837236 -0.55930672596254 -0.04003361888311815
P 5.698506381287785 7.757697204396163 3.6913585451722777 0.9081218640962941 -0.10433330940245256 0.8308699842916659
P 6.904802404163044 4.805642295682656 10.064229309804164 -0.09232548630829905 0.5342179013147123 1.1981032199212915
P 4.591549390868231 9.309743563604725 7.494820477089146 0.4582531157526237 0.4008784344878967 -0.28916940144666325
P 6.77131705153097 1.88233474426995 1.8904916066807347 -0.4526743361132656 0.36630275339555624 0.7845621023640618
P 0.4295463859625889 2.7579654911326457 3.767799567889401 -3.458548985090076 0.5052161147657234 1.8172086632090187
P 6.153347803438422 5.640672464830126 0.9368199350131823 0.8191287845953376 -1.1374750647162732 -0.04714863266134461
Ni 3.8782644212237622 8.456010181005244 5.130323485617953 -0.9547331361969299 -1.895580515550703 1.2196673192453125
Ni 2.477285377519543 9.41691250557107 8.378746593787183 1.1069982362836546 -2.1477640838016367 -0.32778942781170645
Ni 7.930831485091748 3.16444238197387 0.4961449014898013 -0.25615515130417177 0.1159680654279035 0.28864129685733514
Ni 9.116078148343934 6.015132469369115 9.122147977112592 -1.2686884863390215 -0.4658841499353202 -0.3070113147240906
Ni 5.4652674161537185 2.418707101433315 0.12922177374691643 0.4865601902274329 0.4165989305469471 0.34045545331514915
Ni 5.493166768814378 6.800111520200669 5.913427503967416 0.13502405361809006 0.28276555480284854 0.20431142716000297
Ni 7.812619638256004 1.8945742779093278 5.0223027701019545 0.7146532931880659 1.0277246980633077 -1.841176743988842
Ni 2.3127159436893896 0.6530483733730745 1.2656751922327312 0.29377347587757796 -0.6845456751694081 -0.47101812872777593
Ni 2.1583225655409355 2.28960310610864 2.911605087378751 1.3217876801568462 -2.624193099132339 2.0126662395228174
Ni 9.061560872256607 2.2956710504225426 9.647798728942433 1.86042787890897 -0.1084460460192455 0.39653661257943323
Ni 3.042150690591667 6.083283775615164 5.995080928539275 0.8095192865300316 1.4967535642751966 -0.8936822916321963
Ni 7.242355362308312 4.442206351465509 8.038825818241163 0.14254530169579965 0.20984187005992894 -0.7687958406687405
Ni 1.3745684103006965 4.182000838774938 9.558657423398122 -1.0000053777711682 -1.0082125961723087 0.27134882832547463
Ni 2.7135960039056792 3.3889092102193614 0.9866034607537639 1.1706142704724032 -0.8035067617873646 -2.7672024849487507
Ni 2.9769862451336717 0.3250119117449513 10.73630690730202 -0.5487088958420356 -1.7233952795012837 -0.5224790156112292
Ni 8.172098227485822 9.207427092634747 3.88140486507442 -0.06090403457422414 -0.7718009460436515 1.0390138978238816
Ni 4.560870467442662 7.151637710360715 0.8689352791150883 0.19361563800905365 -0.490241238623446 0.9989903062430924
Ni 4.064363750639734 1.2667870205386946 5.247431984194135 -0.538208253421028 1.6012524527212357 0.8808506870851669
Ni 2.913602609419974 5.672321882454968 0.3071755474806389 -1.2726860375341889 -0.30771065478396037 -0.008531177399462726
Ni 6.534139575957134 4.371887922250209 12.798102989110387 -0.4078697782040653 0.716924605720746 -0.15668585486223982
Ni 5.151062852433683 9.26898280723525 10.105835244131647 1.7115517498991362 0.63921764065657 -1.2909668381212476
Ni 6.236084789494908 0.580814395898432 13.045889944959773 1.0310853870054242 -2.0857341631530852 -0.04907773136325742
Ni 6.823996984231325 7.4965023529587596 13.719112348721819 0.3732969253252022 0.6171953707492082 0.0553980171543304
Ni 7.5685356360019025 4.240503736670931 2.5942874044020185 0.365102562439868 -0.34488829227552215 0.014732935334800433
P 3.0095873124102277 4.2137256345900145 2.903027991557408 0.5677435438759836 1.965353570479783 0.6118703589918689
P 4.166199685646965 3.8302673585917453 13.147277379735106 -1.048894390162387 1.4865426851804655 -0.7829186532233677
P 1.8207413405743291 2.0828501525683296 10.80051499197141 -0.8747031794265323 -0.4836707844947799 -0.90623004639022
P 5.904816487960466 1.8506099484548735 11.392111295755551 -0.6992750109597827 0.229804686335101 -0.8164705210368843
P 2.6849428693426716 5.4853839706726335 10.34646409859086 1.6469265577195829 1.2945823233866478 1.299413169116388
P 9.431224939441904 3.4322234027830403 7.832010677693909 0.32273078234187647 0.0700255372595181 -0.8378330458730604
P 2.106999440264808 0.21515667952411405 4.547566216866218 0.683863561500719 1.0851441165230409 -0.2526152564717133
P 5.604952624932604 6.303199645625228 8.007396881822759 0.14040280143150013 -0.22346588860126676 0.27815942348940487
