# total energy = -381177.70920568623 ev
CRYSTAL
PRIMVEC
9.12942234703044 0.00000000000000 0.00000000000000
0.00000000000000 9.12942234703044 0.00000000000000
0.00000000000000 0.00000000000000 13.36183242103981
PRIMCOORD
 96 1
Ni 2.75119707217992 0.5943637385363307 6.534310098443673 0.35361333085334584 -0.466335635650442 0.33560995229738977
Ni 8.804588373030766 0.3145551599995566 12.659948908942974 0.5694895800328128 1.471209140147189 -1.4933355397325832
Ni 4.259888891994308 0.8285754171477591 11.600234776746682 -0.8292756432213525 0.10590553898557889 1.0996819051278997
Ni 6.026623834521661 5.638048231053347 6.866325278686943 -1.3512445519653826 -0.09049074709240544 -0.19117951776373526
Ni 8.422248165027264 7.864969965959697 4.324663969449572 1.5267004883462738 -0.5502173620667621 0.4162253492576122
Ni 5.1031005990530325 2.573365054231014 10.028215805861684 -0.09307239177665261 0.40108592251301245 0.0310409284662046
Ni 2.3713035493661265 2.70742149201333 7.810900049151638 1.400116080855105 -0.502084254004961 0.6041331382486111
Ni 6.466862839066667 2.0035704171220714 4.175345876325339 0.7386216310782053 -0.5020595714146129 -0.8457175908274597
Ni 3.3127113232177265 6.149770612596141 3.412331579897149 -1.0322781217619448 0.5905643984252411 0.1566611722718915
Ni 6.181121048944852 3.8170114843902527 2.03484690514975 -1.407322368795557 -2.024301766879217 0.7802393066189917
Ni 6.283863568067855 7.393818737338764 8.63408180357522 -0.5529630431326993 0.01474810484345202 0.6396614130622081
Ni 3.8252005762378922 3.9144315502834086 3.288787671950459 1.1323775955887079 -0.5577982597378136 0.26164651343604617
Ni -0.05261833865446462 1.0423517967717224 4.0316122508523895 -0.6108465457130448 -0.1288631762230168 0.5877194727772782
Ni 8.315150911443476 6.832560110126749 7.415963977132319 0.8666540838698106 -0.5387641259244978 1.1533523980681621
Ni 2.37383239935698 6.054660290557448 13.049954179951245 -0.4799673675012636 -2.268606446602706 1.6488068054614313
Ni 1.676143684551738 0.0911061573961351 10.84474403727684 -0.9878872543513955 -0.20663904685191511 1.5468556231379103
Ni 4.17570648850815 2.255232073612628 5.493985033433574 0.05611149828158724 2.1624849349515793 -0.5446036154244105
Ni 0.5665445627524657 6.892403473628729 11.633292415074775 -1.6888483947643496 0.8364271666644691 1.1323986786346305
Ni 1.4086881273962801 4.662834206240977 11.17118661811788 -1.0001943538535227 0.7248320334932807 -1.5286552980797996
Ni 4.538555379795141 3.5601186688933444 7.47170914294154 1.2027042090284124 1.1724366683931229 0.5187048932807776
Ni 1.6249002369031311 2.593814960294238 5.765804454472167 0.2597577810537655 -0.35725221315751376 -2.3080515399722055
Ni 2.6466104097422862 2.232864988855976 10.452721163929297 -0.2556612423868887 1.1282504607942117 -0.32419039760653845
Ni 2.7723316849193687 5.1902865824922255 6.867193486752395 1.0964438578065763 -0.3681794015929788 -1.762374231867642
Ni 4.602616536422662 9.07610652313182 0.6227416349679946 -1.413862741017236 -0.8446783509296679 0.6432735558934987
P 3.4389073283569913 3.961776734588713 9.324260655555639 -0.1976036761225242 0.7844898543652296 -0.6103402955005875
Ni 0.9477070752728614 6.6559423053503455 5.753004091395717 -0.3868836628707014 -0.3998006280426856 -1.1288922081432688
P 0.38357176707846935 5.685822498209084 3.696137019538601 -1.4939726590959497 0.676411476098048 -0.5458727119448212
Ni 6.508803405340975 1.0759115533290498 1.4828564675071025 -0.7617682443979977 -0.9576801346403959 -0.9119229830099391
P 6.291422729773369 7.836212285558288 1.1462044536524443 -0.10947988660039855 -0.2657782762162326 0.6838260233945643
P 7.4853868435057915 1.0425617734857644 6.067661500925589 0.19764378533184027 -0.08558868180509775 -0.5428208124923748
P 2.850990787883986 1.0074134974395972 4.2522694761012865 0.26155318239129144 1.0655546244268872 -0.050035981511468666
Ni 0.669273387741945 4.23267408396999 -0.032652291975771776 -1.6837360132384487 1.5780482466906307 0.7456438280323093
Ni 1.9412803684303834 4.685402138289322 4.655141754969159 0.06712636133485214 -0.63612614621544 0.634236642502211
Ni 1.598479688623233 2.628415470999426 3.345896773458718 -0.013347624951499593 -0.28189343661054034 0.04981435241896582
Ni 7.669801174968798 5.896429142393248 5.249649738378615 1.844337915325643 -0.13235344876446237 0.08503486618415677
Ni 5.558238820872672 3.969618908387065 12.194770148423183 0.016436805399784597 0.16874844245372875 -0.26971849181090324
Ni 5.072535293026392 1.230326602951094 7.626172578502039 0.0587111406879634 -1.1981572130876785 -0.4176016607798485
Ni 6.728849872234681 8.927707762838198 3.4536860372566105 -1.275051452442572 -0.6841762076451313 -0.6567353378253592
Ni 4.551254406283509 6.841862991501046 12.660482980150428 0.19504131471198669 -0.002807387541808068 0.5600636587332225
Ni 0.7624300133978125 3.3222059224613663 9.159589612865993 -1.977650385569265 -0.2603023407033259 1.3971217741134712
Ni 4.776924597344601 0.1229587119740772 5.110513690000951 0.9063259485381359 -0.6922409869311369 0.2208027399468068
Ni 9.1978930172762 9.075951322951875 1.6856081567016241 -0.3918836871884541 -0.6909070986110617 0.6395765666578856
Ni 6.729808461581395 5.1675908385309866 0.4812492826818852 1.3968530938331167 2.4137069106201916 -1.5174450311862768
Ni 6.536885508488511 7.961614030953133 6.313519583628471 0.5357577349980064 1.864590494927092 0.09127493355659765
Ni 7.577612268081995 2.7715100369079 13.586177192253805 -0.22295475329280312 0.5323407388966573 -1.636708993756633
Ni 3.232883654192354 7.342027524349179 5.382119482556561 1.46428953020922 -0.3912241992275843 2.0592890815876794
Ni 4.630981651663036 2.275901085812244 0.2037066267722951 0.253668380326576 0.27592384929066677 1.089163264984763
Ni 8.356361123929814 1.2943421124668664 10.071454575994114 0.304382875962308 1.340148442052221 0.3943982260801917
Ni 1.768542568152584 4.593834032122294 2.1853408678726183 0.8394299580465349 1.1782990407111706 -1.030043061783839
Ni 1.3072054685575287 0.6865216053871459 8.778844314946976 -0.8817719133478557 0.24952453336153158 -1.7304629849813422
Ni 6.258018173395986 8.830114237920398 12.200368310207992 0.4892040556081833 -0.26032599485240976 1.3984060401425336
Ni 0.22645532138316246 6.497674639496747 1.4250663110915593 0.9820405657626312 -0.4804031694871017 -0.03002045762149023
Ni 0.6652719619260917 2.0203320365560358 0.6335901275460882 -0.6354926263964991 0.7560709369029043 1.2927925784760768
Ni 3.9768585403103414 6.304751686403864 8.639880812651722 -0.18268202181568538 0.34434476106722633 -0.052591143833154594
Ni 7.467739670103911 6.273592967924495 2.7501855321835786 -1.4940860447453623 0.4064597852304161 0.11691166028809542
Ni 8.438087712803915 5.387856411561084 9.928028612054348 0.07360939795603452 1.4362017708340682 -0.8833778243823948
P 6.424611872432468 1.7896497926249837 11.875288752123755 0.01329877399143516 1.1178932859296038 -0.4179641863255898
Ni 2.0122981448883404 7.640276623090018 7.53038120155606 0.7312353659164632 0.13781575743061425 1.0233939318984375
P 7.520936814135344 4.559689992534589 7.923940556685051 1.1793657914127882 -0.311524886323728 0.32740016279308776
Ni 1.8440520204065705 8.32029990564868 3.9454551533120017 -2.3235516924903337 0.1585362778074173 -0.4517690506901768
P 0.7588695386814475 7.626463807074992 9.366029588689775 -0.20373010073523623 -0.27138071000467456 0.03519788805737163
P 2.3960899310454367 1.342581980162437 13.203574969828868 2.1282794927144635 -2.7643752999126003 -0.8405686996366685
P 3.919534897376865 4.5316444070764526 0.5497875080296761 1.1864427528642276 0.7649749242607535 0.6749397766485279
Ni 8.559947242327093 4.260254068888294 2.0341923255672802 -0.33599793176442777 -1.3294439111505234 0.9182293848439411
Ni 6.477005627297132 6.600316734973905 11.529564831280243 1.012967851469107 -1.4236154495286257 -1.672639903325287
Ni 3.621194504412528 0.4076122749518127 9.43120909955513 0.19411931711834954 -1.311012186807897 -1.765107057417773
Ni 2.616337245230834 8.222806804376727 12.709160147176547 -0.4216516624795061 2.4747729246935766 0.9275128670283961
Ni 2.635143855271121 3.312830005708272 12.674085819451411 0.9078570404706815 0.7923350614412612 -0.4963126416285066
Ni 0.4896373959367471 8.99196976675741 6.2496364507367685 -0.6873417498573066 0.07604114732597872 -0.4126335181412958
Ni 7.5157330433960405 3.4200550712049558 10.638009181111164 -0.46485365178827687 -0.20938164259405875 1.0081442048282185
Ni 3.6257318273203065 5.025701356372667 11.191589964127122 2.5253208128444573 -1.2389729615524598 -0.21588627648179595
Ni 3.99351060667611 8.375049051479554 3.0158060754467555 1.2171085573792009 0.2871230604405958 -0.13768360272812416
Ni 2.366875779526544 0.8616394460715002 2.002203742596328 0.3452726721981344 -0.7773301033919967 -0.5444997428566944
Ni 0.6022780347712456 2.5906561801612584 11.557009700747775 -0.9402706809146968 -1.5619737097262711 0.2219471379638952
Ni 4.959211773400138 6.168705034549323 1.9857023116993289 0.9514220695458259 -0.160645096620304 -1.4921008959945337
Ni 8.134726137547268 8.293012062245566 10.52776136387451 -0.2747270007690882 -1.420698790102463 -0.4338911419684915
Ni 5.5768628424659665 6.9819083303447345 4.503819753639178 -0.15939836869739646 -0.8304601504477568 -1.1780079918333133
Ni 6.831939309406971 2.5095686508516333 8.41274352341904 1.159790440384022 0.3117251752599922 0.6214045237345491
Ni 9.122940459785543 2.073355721562825 7.242393573536232 -0.8802019977575744 0.6225643483706051 -0.1611166369400838
Ni 0.3330842356004139 4.4649813650792805 6.613345333609096 -0.642018600440475 0.1684234550141422 1.2273965695687699
Ni 6.560329865082422 3.1199800879941852 6.111862512173674 0.10437496127366541 0.19159063715922486 1.840290741839463
Ni 5.985705763550512 0.2052522379760915 9.942245861479464 0.23741849412661692 0.7434072253923067 -0.6410081568980895
Ni 5.9078865674420635 5.123842646631445 9.356315883309744 0.1638008686404663 -1.2154311696767777 0.7847410511440873
Ni 8.548362005365382 3.36694922139702 4.739975999211083 0.659649940368993 0.42204118460844087 -0.7681461228998835
Ni 7.985350529062233 9.33264329115709 8.079846440976794 -0.9768973309987952 -1.2885320034275098 -0.12307459456569772
Ni 4.621925264692179 1.6388043471416538 2.806372562034523 -0.9334783405832117 -0.14199020052327804 0.20921426377825902
Ni 8.02025231070496 7.522844863406422 13.250127720274223 -0.9902076749544558 -1.4118385114983556 0.4272268425744384
Ni 1.4426039314252441 5.4923791680422696 8.576706122934352 -0.5661276055391153 0.9850323014011035 1.9519581230094836
P 4.470093841595087 7.575430336140427 10.413637193908194 2.0349883000587856 0.5390184080271491 0.5845253913200127
Ni 2.5267867414030802 6.868265280936245 10.800730179186923 0.6020286903110986 1.089467169378427 -2.562350611904245
P 8.314703569748342 5.3284147426424875 12.172722593448771 -1.0479209705055241 -0.5020564860908193 -0.04077229682135559
Ni 6.379932479453263 4.403887270715397 4.214950223420372 -1.9511561959334784 0.4735313820679329 -0.31886564295951536
P 8.190004789874422 1.9378294467822144 2.2270029867652634 1.332166709398325 0.9064547608065163 1.3517340900072914
P 4.394127918223617 5.267749731129038 5.239682235057263 -0.4294552176843249 -0.9885801666533619 -0.4534518377092384
P 4.468459674994499 8.228677022947556 7.391324579152839 -0.4365172667374289 -0.033516386589890666 -0.5637925296480355
Ni 2.253935695638977 7.504750348309408 1.6615840817885101 0.301381627242139 0.0772379958475573 -0.4452837000761492
