# total energy = -340865.7145210139 ev
CRYSTAL
PRIMVEC
9.26764245727973 0.00000000000000 0.00000000000000
0.00000000000000 9.26764245727973 0.00000000000000
0.00000000000000 0.00000000000000 13.56413152388388
PRIMCOORD
 96 1
Ni 0.9506191492934167 7.8616390852941604 2.127710748616747 0.8003232218530604 -1.8527942736231122 -0.8439877526205464
Ni 8.445333737552998 7.907754873767693 6.452945395884627 0.6293867706090774 2.711756388165304 -0.31439089501761336
Ni 8.779080074873903 6.699235772375916 11.547687218035728 -0.85909838300974 2.0792560116279093 -0.8316785962358901
Ni 6.86663719665192 5.665078094686113 10.7625279219401 2.3007475501116246 -1.245639317829042 -1.198558305180839
Ni 8.775817864756805 0.12266095393138698 8.708606141937954 2.489085741771823 -1.1450814163086214 0.8330808759000555
Ni 6.730662347680124 0.18159296504962266 7.874751872494964 -1.429190629623558 1.14158754422275 0.020720520376803025
Ni 8.725448228431715 5.756605330812439 3.668609210078656 1.0200548402228755 0.412529902683896 1.7023713689514488
Ni 5.6693875483919385 4.425679208890435 3.174169368035029 -0.8424039530731944 -1.146050207979794 -4.704272635102807
Ni 4.944880337839927 8.944044109204462 13.546375702992744 0.5012987819891883 0.7304455230253163 0.7171848013606681
Ni 6.883300417647783 7.393400721781958 3.9110275655843645 0.00915029904070037 1.901474769547951 -0.6905918813634881
Ni 1.4821091720362967 8.563181078033189 7.162743004454086 -0.11605908247981302 -0.6679083237230432 -0.2662163921949157
Ni 4.750630553594503 2.613660503477776 1.6273841001345373 1.461292138143793 0.2783525133368174 0.6342415275982174
Ni 9.166476793921753 5.044850396172722 9.15120371928261 -1.735838390360643 -1.0920357014365514 0.05746981208169458
Ni 0.26074326477996784 8.292269356035945 4.354968024309608 0.31277315690853236 -1.4305147477516202 0.29708865629374
Ni 0.01955101836088475 0.5675735883420953 2.1484359772669395 -0.22045127014465907 2.036526076859551 -0.13647904089706173
Ni 6.132074594119646 4.708842754111554 7.496583871727248 1.4796618989002324 -0.7345711151579155 -0.07431130911906557
Ni 1.6342004511036456 2.7634070690234602 1.8608221101758464 0.2666007721175279 0.5900643188603709 -1.7460364139395674
Ni 1.8142985454376774 1.7058949325407924 7.41144111443521 0.9616419475016212 0.2351834341485111 -0.07699091283375772
Ni 6.657179211264 1.0143990641396476 1.3399870958750928 1.5464504172796916 -1.024508762229171 -0.3496435475723204
Ni 9.015321546734594 2.5266188062624604 11.938891084572509 0.41517839605033663 -0.06324528111289107 -0.0417310611901991
Ni 5.968760200132393 7.677222269611924 6.472559434213683 -1.0614598855322237 -0.39643916776962046 -0.964068554665243
Ni 4.806004716803779 3.8937072687438934 5.400802931395843 0.22294601154205476 -1.3385798120135204 -0.7673848192538268
Ni 2.6285165342099046 8.668952680494687 9.167508282518437 -1.4135801767798106 -0.009265484462325979 -0.3234995421871009
Ni 4.191717577054763 3.0353753022518086 7.553973747153765 -0.19446024539753606 -0.1049233775779677 1.3026787272415372
P 9.103002711274 0.8864268243613593 6.7263306516325905 0.08837755740414457 0.17252513588734159 -0.96479463419799
P 3.3918088281143546 7.741076325597181 6.287232536049916 -0.42826248292780433 -0.2875231240924919 0.52128088153807
P 5.975738734843118 2.348605931463506 8.624020369952841 1.0564812013707097 -0.3885235124669696 -0.537084938449862
P 3.3116344539012275 1.8391543622957987 9.340884555835618 -0.916367391934538 -0.740958249631182 0.10521288379392847
P 5.879299648256388 0.5128463065708132 11.795056348099829 -0.6156511661905397 -0.2380646123510481 -0.7001224465617426
P 3.1651964366845324 8.711398482586484 1.6305035885590131 0.020826192716731876 3.1355868034636836 -1.1585547682047082
P 1.4597741539050242 6.58649490284607 3.88602902703362 0.726614065094368 -0.9688780602387443 -0.2743022545268437
P 6.221145905015771 0.1261826580350731 4.759531197334452 2.3146196801080268 -0.3647202393997847 -0.6582535742420986
Ni 5.74348234920502 4.420155694033076 12.866677543338948 0.46579621820720424 1.0966732002085628 0.43263747206704845
Ni 1.8674392068338252 6.0277024056572435 8.660304116627424 1.1268458671372013 1.15455593145796 -0.4557406337434151
Ni 7.801353071624481 0.34049781479336655 12.4390138449224 0.6851208309465878 -0.30638525110431747 1.5501852017317757
Ni 1.9441382151551572 7.007950207633515 11.210008620053785 1.0098208211996933 -0.8039232804994929 0.916149619496777
Ni 6.223536956749325 2.002487291567809 3.464102926013366 0.5104043438348823 0.503511473369791 1.643596979125718
Ni 5.258117382578049 9.226568187101492 2.748133994384317 -1.5269002630619057 -1.29597020487311 0.2122599925831183
Ni 0.632736235431142 7.797386520686645 13.251220755298574 -0.03535755356368749 0.29267844304118623 0.5749621731116098
Ni 1.2295381143053563 4.248213124991791 3.786616880771988 1.9295728133357477 1.8293067320241334 0.11988796930759998
Ni 8.719526204952096 2.4864806471228174 0.8084238587574256 -0.1676536667276532 -0.40137388606707647 -0.10176117779990218
Ni 3.7300963102005396 4.568706733711982 0.6691821658473418 -0.872261145643943 -0.18835670360295947 0.7733132689231198
Ni 4.82820072029938 5.295762545917977 9.686824330233417 0.2385461799731569 -1.2509478745261489 -2.419978088340884
Ni 2.888631452836636 1.7479422260103288 3.362046721381256 1.9796625309032874 -1.0590741589088664 0.953683868996809
Ni 3.643879433156877 4.848552462961734 11.690192047827148 -1.3882021030263383 0.29562518437433605 0.3662351333824144
Ni 4.815689403088915 0.18724251984332543 9.884427147491245 0.9095431699238529 2.1381291318150337 0.07785326083405301
Ni 1.9446479354859538 3.4513256274666504 13.195512956963686 -1.0630732527659303 0.2863594428016939 0.3188335041699993
Ni 7.609605550821151 1.444881052603383 10.243590920798386 -1.112561332193729 0.7568371256449674 -0.3823847465590834
Ni 8.389987377270858 0.9104791366252978 4.431754148469294 -1.4400987918956294 1.5179032017696181 1.1953382555816445
Ni 0.9775138474747249 2.5338104967478827 9.383612094255708 -1.5696844481069678 -0.4234357509631223 1.2659492330309874
Ni 2.9673044689845076 8.224207790411022 3.685998087472725 -0.1507275803962759 -0.6514388653131103 1.213417995901491
Ni 0.392050929050142 0.15025999293343228 11.21849963400062 1.3349062198166752 -0.37091865490101283 -0.9764299044440732
Ni 4.285728541338425 6.154372541681406 5.073636620163405 -0.04691826181809339 1.4907469530698003 -2.7938121171164787
Ni 2.7361416651470276 4.020062304927199 9.596514862315576 0.6535440845815713 0.06664787903653682 -0.34214338254053334
Ni 3.2803932314445805 1.6071296677171534 0.3409231995785223 -1.2450924441866364 -2.408089564433414 -0.34209684557331405
Ni 7.5786516252782254 6.033012764739907 1.8458344789219487 -1.3299172512425161 0.18927895830691271 -1.5537667484354467
P 5.024016736106705 6.683249089273655 2.89109942600193 0.574870641839068 0.25439574541090376 0.3414412142671862
P 1.3969024680118491 3.91143626861324 7.6928567823038145 -1.0395098636236935 1.4462645543867092 0.2350296821794662
P 0.6078034971412821 2.3300706467072634 3.572832759921961 0.6138375100205686 -3.718981423613363 2.143642091213463
P 1.6716509939536341 5.480336911520642 13.160178216868625 0.572883179095394 3.175579027585905 0.2524856728723845
P 7.847737621726979 3.6047236441093147 10.497620705439642 0.819951280496633 1.3988192164205524 -0.4539280060147085
P 5.307310028321117 6.296983022595938 11.846749403756514 -1.0348191430162437 1.6137374725621239 1.9467063876922408
P 0.6427628977200314 7.578549681212067 9.725617754463995 -1.5209381319411999 0.48629973747719485 -1.3218349884550138
P 1.1113942092690656 1.3632238556097562 13.398364040100244 -0.44935607037331 -1.1731933440534892 -0.3897625270803933
Ni 8.396419121081275 2.8275669572071944 7.810022951069214 -1.4192198915640912 -1.36319632501062 0.9192902220082878
Ni 1.5128221388773906 6.387564959199695 6.151360557908516 -0.31973878959308805 -0.1677678237080143 -0.5254005601333984
Ni 0.753097887288517 5.059270847713078 1.4717896522482585 0.27856282957541056 0.7145059689769243 0.617645313802433
Ni 7.5651208674061685 6.760170521012063 8.265194865592502 -0.20322822139815322 -0.5295351511270622 1.1728434169132382
Ni 4.248991606951552 0.23528412440303076 5.241559812705297 -0.8463526533082971 -0.22157921310151518 -0.8704076373749718
Ni 8.478891870604176 4.547029718189556 13.308840468256069 -0.3367031853615685 1.3236180484973656 -1.2598068675786755
Ni 1.6096504664440023 0.7774171076529451 5.1911966637298725 -0.08791578727637762 0.4414843809347171 -0.4324528668600681
Ni 2.2317038905058837 2.26793110456196 11.389502464104764 1.03881078067414 -1.362598543525621 -1.1362956996961913
Ni 4.0465492268438705 5.4534144104122 7.124098789265796 -0.9073590177883405 1.5218297905175338 2.722259087468841
Ni 2.915674433295994 9.107803350025867 11.334676945324272 0.5156049141992153 1.0905624593251348 2.1117125894947177
Ni 6.570786249015154 2.3565853715510685 13.04655136072743 -0.14715863209809496 -0.8114008198234606 -0.7413413440022135
Ni 4.192848229424893 7.2714292804435035 10.234001691229743 -1.2238067953349825 0.18637978238224676 1.4317892435886697
Ni 9.070473286526793 3.8986469221314324 5.952673426492449 0.07199217406758569 1.5515612561436956 -1.2288749538865094
Ni 5.624661906275126 3.249114938418421 10.619982314522215 0.0830304341596183 -0.6537497728344741 0.3106355417402392
Ni 4.118892443247486 0.307976730924301 7.5559264394028345 0.17241509267203856 0.27347770174301933 -0.006883100273078468
Ni 5.131790149321877 6.4189637315767705 0.5984960039009348 1.4079533175113363 0.4249470454013262 0.2379327147588741
Ni 3.134696625618135 6.704397849180529 1.7573145927473228 -1.3472112624362735 -3.5878657039107438 2.99350198634407
Ni 8.290211939428003 3.4287774535606808 2.9846108643614113 -2.3256551119865816 1.3846979465278217 0.07531121113848965
Ni 2.5505107883132574 4.24939938321619 5.841610000233043 -0.8388162357219361 -1.0556661616685818 0.11413589731517118
Ni 6.641878333697723 5.275966861798311 4.691806047127854 1.8718903710226147 0.6046882394211327 4.001253326609244
Ni 0.6934337324224097 4.937633041500235 11.384782453841586 1.21515940407263 -2.9277007715785452 -0.9063470315840584
Ni 7.084639948312469 7.470804070924028 13.122781426344428 0.04620915156621074 -0.24979707029662784 0.31823777956752936
Ni 7.0119908997103755 8.305429408212879 10.129041934240567 0.22880684119820593 -0.35222133560182567 1.229833718255353
Ni 3.196845435405817 7.489858343653446 13.330475779387791 -1.359137581560214 -0.051330789063492234 -3.0696462349068168
P 3.666807580400349 3.8525404013002786 3.1547323416753956 -1.6786683689075543 -0.5508817351236384 -0.33777327849729566
P 7.913083768135112 5.9948856839963165 6.232474671058786 0.17141596198356285 -2.0048719402893798 -0.002128102086596335
P 8.000987356091592 8.206895834448693 1.6188652832605683 -0.5535628815002273 -0.3865180520011666 -0.7475909244563512
P 7.007940939991136 3.9723617496070087 1.1519892631779505 -1.053428787697631 -0.5609342342636339 0.7199394812876697
P 4.186879867733383 2.8317281286349707 12.461557385007179 0.5261461800501713 0.8252670362825916 0.029286150558626982
P 5.523088545810916 7.553591920287786 8.625960087502582 0.461076958354664 0.18488160057016548 -0.426252394476311
P 6.861456584562551 3.126207465199776 5.592681125956704 0.9184332733246312 0.24132657093177148 -0.25862521011121914
P 3.405904912171478 2.0974064848045275 5.793145791180896 -0.5824659376878226 -0.0579377528570486 -0.6241270648720347
