# total energy = -381162.9977036585 ev
CRYSTAL
PRIMVEC
9.28708090325546 0.00000000000000 0.00000000000000

0.00000000000000 9.28708090325546 0.00000000000000

0.00000000000000 0.00000000000000 13.59258165443748

PRIMCOORD
 96 1
Ni 6.395185889700653 2.587157777626627 6.009986574516138 -0.7040976291594067 1.4729685460404567 1.216005554123009
Ni 6.70576444061455 0.7310529845104774 4.963412454772753 1.5271437465312798 -1.1528834288515437 -1.6964827713811557
Ni 2.5687600708698413 7.35480135853718 8.729441602048086 -0.16394022243180797 -0.7694283320464168 1.6281837298944413
Ni 8.953581578571216 5.269396686891806 13.262961594742652 0.4533363951772966 -0.21282434972702055 -0.8476135222985918
Ni 2.6587890306377773 3.6546891235524264 10.263717474757572 -0.41375117668550676 0.4599842395111175 -1.2270700394672867
Ni 4.5507530995385315 6.640847746909385 7.860657496747182 1.3585487989362797 -0.6752007436193984 -0.46059076274686483
Ni 6.82603213496103 0.316142440928026 7.147223961635479 0.6423690418013582 2.1828840674332213 -1.9844964619568213
Ni 6.373537704718288 8.19400982681756 12.32512711614171 1.3100814474635116 -1.8334186973099782 0.28291904966157727
Ni 5.023809126328232 5.2805040353426485 5.787652935178365 -1.068585183723095 0.027428271414281793 -1.8034997982633585
Ni 3.485942868241575 4.088535095860981 2.220157425673104 0.6466131617896929 1.530959520732944 -0.14150914712180146
Ni 2.985629259760221 6.19157593365029 3.775298582466624 0.018556937066580945 -0.483241153156529 1.0793663334989991
Ni 3.899710172196686 8.855027078771615 10.639851670524976 2.3631425674090782 0.8368136034696104 -0.4466440707587856
Ni 5.83876902704578 7.5575197548456705 5.748167054402077 0.8919815068910056 0.3862144047178187 0.11739837011652686
Ni 8.585553146790344 5.332010184597132 2.0593172621149285 1.4501947426790507 -0.7032733334858985 1.2159214790496349
Ni 1.803588209487542 1.6368572506765502 0.8099216594678986 1.136119322019327 0.7841152446346302 -0.3400839289083433
Ni 9.015127062002422 7.513016064397151 2.8765571411307054 0.010615056511684944 -0.43206334473113334 1.0025530838936862
Ni 9.017225942228082 5.109612464402913 9.291154886794525 -1.2341400589401907 0.501744097056723 -0.5671329068751781
Ni 3.3494320698478375 1.164934247725481 12.604169527311024 -0.024407739420403127 -1.072124050114289 0.23639005286210255
Ni 8.467449342234037 3.920894003146827 11.254208771904855 -0.39243338904433706 1.2375660539026043 -0.8990250440013484
Ni 6.755673211998179 3.6077057825718213 12.774633892541111 -1.3401556411410727 1.5598471503015716 0.4146096680310602
Ni 7.708601982770653 6.8546920658300055 0.6237639853647088 -2.007104429164324 1.483314408051155 -0.248205814550108
Ni 7.8846943188713166 6.378552728266326 11.194292242418697 -0.658978111112949 -0.28504509486564455 -0.32522192419484636
Ni 5.804731876483629 1.8689228218217104 1.980738344073616 -4.436402252244236 -1.5196039865108089 0.9900973746288367
Ni 7.167518090259875 7.890173696451581 8.241752850994885 -1.3996918488334926 -2.7350577818954056 0.16686562360871907
P 7.241563984238599 2.3493249294012224 0.8171590814141698 2.565542893589298 -0.08657624252934766 -1.0620057307333646
Ni 2.655129920863838 8.961224845941652 7.013174239612538 1.0900055583804 -0.7070492555885629 1.2609849470471766
P 3.5514632221886338 0.2193543438670115 1.3938645004450527 -0.3199876723791005 0.4720511979779806 0.6324816074843171
Ni 7.1095759941187415 6.085712501383455 4.017627306432039 -0.3448353275503997 -0.18370146421913525 0.008108230929431196
P 6.015121401404491 4.791483516925025 7.48668533335382 0.04289885624605515 -1.4532659254052067 -0.18836698801560461
P 5.789946844097561 0.7187030246694002 10.203909604114955 -0.7069785502516276 -0.4717228681042844 0.8682646228900401
P 1.0353516114925523 6.6046559936377065 1.2342242277061488 -1.2472709398951938 -0.4969669873830538 -0.4097811362941652
Ni 1.9069069816577802 8.33967768672679 11.194740808413826 -2.617435468693531 0.6163980716588933 0.44130337527216257
Ni 1.0397444006374084 9.149557554331787 8.798029478732028 1.3665922380660465 -0.34816362059268424 1.6379554645692243
Ni 0.4381756093050278 6.842451693540533 6.98514583022739 1.3891894066402721 -0.17532789544345934 0.7513843300605124
Ni 2.9943312543241323 2.165459306801099 3.0307784023135347 -1.4607609482306714 -2.207654332399366 -0.26794777306372564
Ni 0.5121221315208557 9.224736472149143 6.427293184904874 0.21735643326941922 -0.19160760644008934 -0.03120085108283659
Ni 7.773592973120975 0.38625618496186237 2.7702497864090625 -1.254161239257124 -0.8323925915837794 -0.07137125265413514
Ni 2.6714287473949634 1.2153073731413346 5.289906275787155 -0.8765872838231226 0.7701952921194284 -1.6253316051576265
Ni 1.06742918803871 5.8875262004294875 11.227349605972853 -0.1787358926837438 0.45297566940376827 -0.5993267179989034
Ni 8.057944808294758 7.977630134880986 5.717284725134869 0.6150130183859085 1.2322289579604069 -1.995329805126899
Ni 5.84960705015793 8.593577184467206 1.156103162740611 1.831669061608723 1.3652431802373197 1.8733312172341996
Ni 8.38224966440125 4.025940172316945 5.417377958589586 -0.5693373707256646 0.09737924668212261 -0.8488209123431317
Ni 3.4213605094396122 1.8316537671952688 9.086953343707107 0.05133053195317611 -1.4327480079575132 0.05655475646659292
Ni 1.1756422517086078 3.7241657738540495 12.02443280515777 0.28549992301487603 -2.2873071083360026 -0.4741859849327963
Ni 6.548543452383543 4.481425042527221 1.6061671639786834 -1.317740506670666 0.017238989586105796 -0.24704084770772936
Ni 4.292117190669412 8.29344659927839 13.338617868505136 -1.8391967374443356 -1.0087658975726175 -1.8920640177570125
Ni 9.228237701552125 2.210900992394715 2.3673650835531945 2.078613235837588 0.1363980511474812 -1.2408534664046242
Ni 8.979418236924259 0.533722952391935 11.655298282072138 1.5548324706957994 2.309878822988931 0.6017227290349056
Ni 9.090408137706866 2.637967395832773 13.445318995446106 -0.5278173971050071 -0.4346766139842643 0.3752224244826893
Ni 0.9525294263047607 3.9526000964672034 6.901578821171907 -0.7437008453733257 0.7804622212630752 0.48926576208405415
Ni 0.4666107928224062 5.808130947999523 4.722266904881448 -0.38849985831788575 -0.9896687717318504 -0.300297907259657
Ni 4.732139071606569 0.725170547630241 3.9348079073684405 -1.4209319891591916 -1.0805354141064358 -0.6405291603791421
Ni 1.2454532369134328 4.284529645782842 2.993507490270964 0.197731202839324 -0.3998764755859436 0.5554043055843402
Ni 8.120614028483951 0.0690206546419768 0.3689302073114537 -0.983087518969907 0.5608293332546535 -0.9691886495006276
Ni 4.749784524831149 2.749969588405633 11.354807358154314 0.1869279415762329 -0.173783690884791 -1.4601284568529949
Ni 4.369237108341471 5.298186636889806 0.49220134353836936 1.6059341744676214 1.258948633343438 -1.3291729168773239
P 1.015467971832644 2.6672867094275095 4.446866886740914 -0.4190057402162267 0.32777631518558387 0.40930239688553377
Ni 0.6308351685674431 -0.07887796203806585 1.6351335685089283 0.3800404146966229 0.1569437365093168 1.222184172129895
P 6.093207175463578 5.9599282811341325 12.600798317037064 0.5756301457129119 0.16553584905370203 0.616525598375693
Ni 7.598661522100875 8.77695059179317 10.35969480967832 -0.5191586929887446 -1.0440540313509503 0.2896681954599527
P 3.112258604348194 6.596576233476979 11.246351901679594 1.5602328157757646 0.5624085048163153 -0.5570971199057309
P 9.01208089955102 7.5715246724576 8.954085867050212 0.944024234419858 -1.4268668665863877 1.3600773197656641
P 5.170006349834199 4.7242636272200205 3.4493081212231536 0.8706395508801199 0.5780783501430884 0.3457110452871336
Ni 3.7893982283011276 7.959836088366094 5.267179860741961 -1.4159880148903548 -0.1235098823309034 -0.005558982145016232
Ni 3.0965912993008957 4.682425328916477 12.277281934077292 1.346644848409842 1.7251107195304936 -0.5093995567194517
Ni 1.937897969768529 8.281577710214698 13.667204997496812 0.4261546925561822 0.20201183249254884 -0.5331560357091011
Ni 5.17603366517249 6.633111608732504 2.2829009425074522 2.0147382915604974 -0.4762197275333734 1.6077141491861797
Ni 7.358813377375611 2.845180739173209 3.209453475541438 -0.8029449757466236 1.342737800045952 2.510196555608509
Ni 1.212075469077043 1.8565895787257936 7.747404334411505 1.440353588218913 0.17216158190033576 -1.2768535386483173
Ni 0.5058106315148428 0.5407356269866088 4.018035009272333 0.057775002026939214 -0.3370489987367615 0.7799726832211664
Ni 2.6910244875548917 4.311972969087386 5.269640008404694 -0.3132742649146669 -1.802801229534437 -1.9306462489055845
Ni 8.357806068144884 0.9770194579643489 8.798464114106192 -0.9034452845562312 1.1730683884398507 -0.5869995638921182
Ni 7.598438632165407 6.134358229799428 6.7616429474364725 -1.1249651051747205 -3.0424653036166505 0.013773142524692408
Ni 4.635525571661671 2.9722001411482513 4.52585350762252 0.24417252502099882 0.5880025512353357 0.3215578450796978
Ni 3.6508256980043083 3.676318734373504 7.518070093683896 0.7981200435541544 -0.37120404735191553 0.16970977792573355
Ni 7.823473883262669 3.2966350163837657 7.778585707675466 -0.026895538839263357 1.0571545732886503 1.2089296211128342
Ni 6.5801659619781185 4.884335749208893 9.397788218046793 2.2035652499316565 0.11667434746630874 1.662346234708763
Ni 0.028124066315787125 7.807983032747617 12.497889105123251 -1.081387734804402 -1.506132177276619 0.6790779671866176
Ni 7.18706739501658 2.1765573681712955 11.052522170255969 0.340069273620324 -1.053345226844889 -2.131750739092516
Ni 5.697512530442696 7.274124488978271 10.189134787517593 -0.39995515134267895 -1.0797702538056373 -0.18896374105933908
Ni 3.1402684395720533 6.850067099669037 1.6241228056967902 -1.868141959723776 0.9464140748082732 -1.040706455034956
Ni 4.121578528794168 3.1404541811849436 -0.09833903952864867 0.4327621705703708 -1.103725479069654 1.7844450956247526
Ni 6.0992623520438025 1.0525512848461958 12.714989474517838 -1.0894453150015562 1.253937553282092 1.1563474761407442
Ni 4.481452903769155 4.947757222930292 9.755327820947748 -1.9757009751523782 0.7413508570839104 0.49141494721657303
Ni 0.5337740313354798 2.5045677694549484 9.758671169979772 -0.3987328488998036 0.38097989579175673 1.4081890876712264
Ni 1.6128222859685435 4.276087689476977 0.5736518269149661 0.6374883166702892 0.27144344492180994 1.435283372784857
Ni 2.611025574883033 8.673966154526134 3.3560899779618913 -0.06413231170353471 0.4165966165541019 -0.8805822639151286
Ni 5.7213060310539445 1.8586605977095205 8.442896158426066 0.18013405858285106 1.9903634622605588 -0.48195020225924734
P 1.7164661059613393 5.172346694156617 8.897771796146062 1.8544261527995807 -0.3867563932642178 -0.730871040598509
Ni 5.046692493036318 8.838161740321173 8.342582685552394 -1.9181234338482256 0.6265012215311662 0.08605507991855502
P 6.048118398934455 8.350952202629232 3.4877612786317713 0.8056333212120641 -0.7170796432413714 0.3529800681447211
Ni 2.598172255271023 5.670078494218796 6.992607999525258 0.04530129503996069 1.8150581925249194 -0.01596192264589509
P 3.8069043753160403 1.4930096585736452 6.957308734703518 1.3397272953544026 0.801896222767135 1.4220437341661316
P 2.226456852474279 1.5178618863783695 10.867363786030129 -1.1029904006758424 -0.5689966995567942 -0.10170667041288291
P 1.1869446288529835 7.683303975094993 4.9054406399735555 0.7353311332523916 2.0208914556460873 -0.20311689263126959
Ni 8.67866541733226 1.8495128232746725 6.272881538568832 -0.055763370913549125 -0.09123379590601706 -1.4199575410610643
