# total energy = -340862.35276474524 ev
CRYSTAL
PRIMVEC
9.33750965552768 0.00000000000000 0.00000000000000
0.00000000000000 9.33750965552768 0.00000000000000
0.00000000000000 0.00000000000000 13.66638923080474
PRIMCOORD
 96 1
Ni 2.446091376627126 4.928085477839048 7.845122557167415 -0.7979966306024127 0.040638085236336455 0.40094862560419975
Ni 6.652471396499098 9.073071371795537 5.240868707170433 0.741214331506046 -0.8850292439428886 -0.6666664808961421
Ni 7.269886209241836 2.9133123467310007 9.85838674671684 0.334658644127714 1.46003049782255 2.188775750327308
Ni 4.483601343720602 0.32579504902161005 6.024827341940326 -0.33392382284421845 -0.1543656913694954 -2.3652953520860236
Ni 3.9611116540283255 4.236596201082998 2.168036213167202 -1.7408417571125052 -1.3680156007761344 -2.6092948418642674
Ni 8.782161258807424 1.1626039883818649 10.72524565961644 -0.5543347266692453 0.7754316008177032 0.495539768018224
Ni 6.589284468731786 6.73802165986604 3.7742055247184503 0.6376400117568051 -0.3123496962178685 -0.0737333251284085
Ni 3.558422213080633 1.3918305126555028 0.5663573100042055 -0.944480091010354 -1.1669465918128288 -0.4670969392964988
Ni 1.7383174830503005 2.6985682999166656 1.7454578766757864 0.19404758334014968 1.8704438683840756 1.6325607759162144
Ni 2.0502183177202395 7.043255512649491 6.971662024948841 -0.18416734811196026 0.5673637919390616 -1.3082839892434566
Ni 9.136052874350659 7.240949266852166 0.9815832914011953 0.8047781723006204 0.5074450040962422 0.500812329271073
Ni 5.613206573017248 0.26824610957791434 8.107475764408408 1.4137131028132492 0.2935924702150234 0.16260144901572643
Ni 3.1414650573954708 0.8450782379018139 3.450175265019734 -2.451115947396269 0.7510971378373968 -0.32774726171986135
Ni 7.0076235758443985 5.378704355794219 9.07789886428197 0.7641084624954002 -1.420491302077347 -0.6735007302091562
Ni 8.555642612330818 5.082845362694287 2.033790837001896 -0.8330281682852492 0.1880494567751858 0.27210550398584105
Ni 3.0895671787888928 3.6280987100511766 13.522878400609171 0.007669600730115822 0.6956988635727502 -1.0507041896776164
Ni 6.702202972868049 1.2483596769609961 3.2773501002544285 0.1513482446994103 -0.6509169313713693 -0.6940078490235726
Ni 4.522940271854735 8.010173311402344 11.49090464298418 1.4813439145883456 -1.0957026087651776 -4.972446665244727
Ni 6.485890224433363 8.435300788026828 1.9950327019676783 -0.5818671277615592 1.0347152704485276 -1.0363965148056924
Ni 4.8608740834147675 7.176034899800542 5.536882702930471 0.6752673351912758 -0.2412160134958362 0.8974283889381899
Ni 3.1505691292992877 4.812533795982912 5.491933799001658 -0.9171729185549689 -0.03730567842899382 0.008955666531391028
Ni 2.6650653153106196 2.3275890417231895 5.603082845060204 0.990881818203345 -0.5396146468502513 -0.047314211704931414
Ni 0.6625523343663801 1.5136476634833933 6.309977145228476 -0.9634322066328246 -2.7350148444726123 -0.16040058470966567
Ni 0.7751188143890281 0.3538122467112533 8.446375074465728 0.6744823773961351 0.975643661097352 -0.8942083393389954
P 8.221294404474442 7.717470396562401 2.7901029732150504 2.0724718988265405 0.2992442691841621 1.8980330908562537
P 6.649576768509165 7.65052045240818 7.116744514808064 -2.0992792488273717 1.52710055199817 -0.11903359172710466
P 4.836904696156206 9.129329867406302 3.675452022713562 3.3103860800971825 -1.222121694323076 1.1718445433350786
P 3.1575349114944133 2.9434444903552235 7.657701931076104 0.9041690500961332 0.13340348729553153 -0.08866706362010536
P 5.913370158063497 4.778078385393083 5.714737050390541 0.2785031799820687 0.25271630082595187 -0.7799575137125148
P 5.308084770349535 0.5552680835498746 10.119045195957273 0.5577769195815749 0.09535784537671965 1.350342351866087
P 2.2579312197719354 6.752326724642089 2.0748039806153673 0.061151374698339846 1.368171152517392 -1.2913795001786341
P 8.468234184544531 3.190991208552234 3.063253142858487 0.5587922482199666 -1.1481474568284549 -0.25757285758730475
Ni 7.923521221897298 6.082986020763836 6.930649815086334 1.2073908158708044 -0.966280217604581 -1.091176695870366
Ni 5.10341589644209 5.994597154464832 12.21535999754169 -0.2777842995381732 -0.6888340181321169 -0.6788357692688245
Ni 7.0982441069485445 5.003934068684898 11.625833524855496 -0.015271838557405956 -1.3423901868985462 -0.2783918512151851
Ni 7.8285587488082555 2.4804253995915717 5.022562400426553 -0.6600428049320374 -0.5901910742462223 1.5425091732437566
Ni 7.629146892830912 2.531893752754482 0.7148050383394655 0.5729230311943939 1.802917443397327 1.0815067768807696
Ni 7.468308289196816 3.808863559267575 7.478835397570522 -0.7487427786726072 -1.4696271403720496 -1.2582716618810716
Ni 1.3488873057984228 5.040443731396613 1.0447954304445473 -0.15871471236681053 -0.09698689633971039 -3.2631158342563094
Ni 2.5338452922702746 3.185071227437342 11.028037753627741 -0.3877470393122612 0.32430558302816404 -0.7581080219375911
Ni 0.5664871013882702 7.953980178359093 5.15154515615597 -0.24463146693528837 0.024311580162171033 -0.5430216156492713
Ni 3.0012156625284687 7.15662221724871 4.101406802692589 -0.8995958289031539 0.28961548784514635 0.6927261540976715
Ni 4.0516481475456665 8.02721426650436 7.7264979008871295 0.22577653901231443 -3.2456732132998294 0.5867008017047768
Ni 3.994754701279045 1.6337280375173249 11.461604471469322 1.0699355271034026 -0.7695121500094747 -0.6331246403849549
Ni 4.696991451636421 2.5261605218324883 3.809260403427485 0.37554895458417253 0.43088989324832244 0.7812759754136221
Ni 3.187555005002896 0.719572770764172 7.823611736198366 -1.855476705551282 2.6616620426120745 -0.49958976971788155
Ni 0.4634019286590944 3.7579928067219406 11.14610215932933 -3.8907840795123825 0.11881761906155666 -0.11341907375380467
Ni 5.686674098903638 2.0510960436268637 13.050568487748803 0.4034276832723117 0.15762482173674144 0.03938518666584185
Ni 0.8814907905132229 0.1925469188863838 12.494838197471505 -1.0458242358774956 0.40103115801567707 -1.2095667404762007
Ni 7.956547993511452 1.5760782529694637 8.317747144102817 1.1914090957305676 -1.6552147658703042 -0.9315638971693182
Ni 7.945959257574089 4.760197054423022 4.77711382064676 -0.014994930746935467 0.7426842311833532 -0.5734537068868832
Ni 5.192430375887306 2.6043248150702833 6.52343261571181 -1.8238253971945881 2.6965521696210395 -0.6416239361052175
Ni 5.177266260223923 8.25208017377381 13.443927889059273 0.764510068809193 0.4350692214369926 3.3996534963054486
Ni 3.168076959883551 9.003245474670674 9.817633185871497 -0.5317288163442714 0.43652960803260304 0.864085551811686
Ni 6.856916170175064 9.089421351183827 11.88524915156219 -1.2606193361776417 -1.2634673471493982 -3.963650685765122
Ni 0.35672368221854567 3.6596594926510746 6.43412213721085 0.18018239532228322 2.128989631407611 0.2333191272462627
P 6.540748093597387 6.843152680958422 10.324779479715207 -0.2689530743997884 1.8873817817899947 3.074570154570995
P 8.031220058142038 2.9174488635037097 12.278662710428598 -0.8022921726539731 -0.3983209581733656 -0.7865536788727937
P 8.534773278274377 7.827251497457964 12.658000907256225 -0.15523806667211976 0.4942138501179489 -0.7365544641365316
P 2.4264826063727516 9.119077281816157 5.333021523607313 -1.0439239335309893 0.15851519476149475 0.3766082490866224
P 5.300661450181808 1.7036473097386375 1.6821682363023813 1.3614785709885648 1.0826072090338 -0.3338423188740057
P 6.72938446344447 1.3700087526152775 6.625451444839534 2.3377277268803995 -0.7947830087611215 -0.5442757997713465
P 3.3086158175495464 9.246142113064504 12.42110828756409 -2.1372680693663195 0.16945652426434687 2.142874616919819
P 9.15164651545771 4.559599334720771 8.75908920622574 -0.5717575501313831 0.5754357703139187 0.3392832873839189
Ni 0.6478457566755991 8.375017825759093 10.22438631101667 1.7040006770247556 1.020561604655965 1.5678869898869126
Ni 9.00686842841291 6.364091748624762 10.838376125221643 -1.1385510713892713 0.16269529428111337 0.7409970732889174
Ni 2.0603775282139343 7.353849095969139 11.696871430732271 1.2018418610281172 -0.8534093030447626 0.3553441975015235
Ni 5.510848792289414 4.373530780026046 13.931790357984251 0.0423129018355981 -1.1694701295656311 -0.801052386709601
Ni 1.1359267233262706 2.9063652395551656 8.666321981654225 0.12778999776349603 -0.9721251064211323 0.09295334970028508
Ni 1.9869286773468346 8.343102217792687 0.30100115966140023 1.793507462937337 -1.2242847634126657 1.5575637535840337
Ni 4.733277014116659 6.122110186176136 9.568139596913516 -2.016068066115515 0.154738758438198 0.36714813211498704
Ni 1.5583276471344325 5.132838389333297 3.1422988970067642 -0.4498805754182123 -0.8202207321079358 4.38708335140445
Ni 7.973523586045953 8.220594091251073 9.395027770602113 -2.818714022564481 1.0186641305229358 0.35447619307427336
Ni 1.7450965150525273 5.265748501619377 10.106568415569706 0.40205728528734624 -0.34951807773804966 0.5548021532239671
Ni 9.041277151454516 0.8816728719512992 3.9037223859995587 0.6929722086702065 -0.6688444623840675 -0.35468779486444724
Ni 4.711819416952586 5.36137393789321 3.845230358081724 0.9269443961194358 0.37566362578516593 1.9001843328713017
Ni 7.620304271197154 0.48396219114628836 -0.016024100301681953 1.2965278771487927 -0.9079359733377331 2.199821723728824
Ni 4.203018516399792 7.87167936834859 2.040228116151118 -0.6543647807106536 -0.3495265623784819 -0.25815778355649727
Ni 6.438465012946712 3.597014140443171 2.5303595999198185 -0.749945797841773 1.271094781787669 -0.0028516105161821856
Ni 6.947994239251811 6.305517550622053 0.11103045968605546 -0.9568676660414295 1.3403204488537113 1.2358197606354588
Ni 8.924642318479567 5.6268766871374405 13.072065302453385 1.1223294673240864 -1.9106507796202643 -0.4348427072484834
Ni 3.5034616313105147 6.176958717830516 0.2759486212840256 -0.1550956275569845 -0.06663296663820137 0.14284252122124433
Ni 8.661670034349115 8.45760809856859 7.232335414204709 -0.4058663746207914 0.20754638915753287 -1.991281088978822
Ni 4.76996408951163 5.017071944755328 7.506879674038135 0.627590597940603 0.2520143896629208 -0.7676876952062263
Ni 0.29509051605615305 6.752933662769009 8.630475282127298 0.24603811747482793 -1.295466525763814 -1.2251188292781867
Ni 1.3702982154142707 8.68906628764737 2.623878494017753 -1.1073219381716608 0.011502087102328579 0.3222715833172708
Ni 5.157526764834519 3.1869947544241994 8.938556141601492 -0.7994379910346296 -0.4426606606310054 0.6289519970645039
Ni 0.751067257045591 2.5591779559369976 13.128083824066273 -0.11924210819348498 -0.009666319445170449 0.8924607605202693
P 1.2420661954603063 0.9319385538719416 0.9646254401350193 -0.6731772854314665 -1.7796882976660575 -0.1574481869495611
P 5.419005047421781 5.859044526949234 1.774362137781699 0.6520376752393738 1.4191345309391366 0.30928237014645443
P 4.430340188705863 3.8594355115045715 11.68380638723707 1.863788824961403 0.3972444372797352 0.886317623737009
P 0.5363540240130836 5.626858012118151 5.46107519712706 1.009850645996364 1.0974887541313227 -0.1981459217792394
P 2.3833713243420624 7.005475948626063 9.323634105607862 1.5778183900680116 1.8670952636268168 -1.5818611926788178
P 2.6731889487017177 3.3446586047790157 3.683775478811062 0.05763410557370074 -0.3600657713469089 0.8273671133447299
P 1.6480891273512428 5.339710915516949 12.483453905712391 0.7410400107117109 -1.0051159595248562 -0.19345211584799588
P 1.5318464697813818 1.3049636604286237 10.184944670276442 0.8505936879728383 -0.006717264119175528 1.2304140162388553
