# total energy = -340866.03443600214 ev
CRYSTAL
PRIMVEC
9.26708734069653 0.00000000000000 0.00000000000000
0.00000000000000 9.26708734069653 0.00000000000000
0.00000000000000 0.00000000000000 13.56331905465249
PRIMCOORD
 96 1
Ni 8.623608532377384 2.7233838060071895 5.188214023729613 -0.14115870576091816 -0.42637195077331086 1.7940350533060327
Ni 4.5387413328302015 8.582277323147698 6.233389487693084 -0.7226867050155037 1.1583755623143663 -1.3716909927451926
Ni 6.715561598667531 0.27963899195299374 4.609602115649659 -1.6788519456732702 0.6588310440121234 1.5715978630795966
Ni 7.6393697274746115 9.144492973718664 11.049954390079845 -0.20474825758710544 1.316056948320656 -0.06596396559563478
Ni 6.8720085659804315 1.4008963157045322 1.9019297294021136 -0.811673613868873 -2.1150820201875833 -2.1268810697050404
Ni 3.6883470693858023 1.154975620787908 4.005139667626611 0.7166271290849852 -0.10844887423272288 -1.0091631330110362
Ni 3.2103599750230423 7.1235729170452355 7.499172597691812 -1.451211099758707 0.3048307621330041 -0.7070407709481308
Ni 1.1646226586372581 1.8689305583379914 3.971556670064401 0.6188136230789214 -0.3908375053121269 0.15928524015829987
Ni 1.313646689045904 6.1262304507409455 10.572919025579841 -1.0428245298192234 0.4517327981356027 0.6738707119540652
Ni 9.091281358607265 0.0840821362293219 4.831742537919581 0.0721361558446177 -0.36955442756363455 0.006779227705362518
Ni 7.472877237559699 7.107689129462347 6.2451355208093675 -0.2183151976382627 1.5570145659487828 -0.5800807252850978
Ni 1.7800869926687117 4.404238828175573 0.23475385475479238 -0.8975101500187189 -0.8677573442363183 -0.9293375789419608
Ni 2.502095029057494 8.868528381868714 2.4570495712495 -0.3625337732714272 -0.586059568576352 1.585123151259541
Ni 7.315197747639724 7.94997469154442 3.0830376095861625 1.3160368937159979 0.2475175302338318 -1.742576994636057
Ni 2.5806428607684375 3.7009873764237593 4.859655931489253 1.1616732592290315 0.6036474568614443 -0.5150626685425
Ni 2.942856233851724 5.56003921973062 9.08279826691918 -0.889178490224572 0.5002649414080352 2.0978522865728584
Ni 5.456173705594677 6.576453351639101 7.395861255374689 0.9663768910834454 -0.8546750571310635 -1.153702582318729
Ni 0.6557140741765858 1.4409393998035158 7.202746277146986 0.7151448881125039 1.2676865274370686 -1.4320121582327532
Ni 1.0530469278916517 8.819625962338435 10.031349518740445 1.845353501074351 0.33255753862431114 0.14647034778181872
Ni 5.129101127443894 3.1596597405621445 10.862441366107602 1.263245460946579 0.9252286989799098 -0.1908347328298068
Ni 1.24270713598464 4.231324246781696 2.7100058388224424 -0.2027736503592379 0.26135932121293054 -1.7168327957924172
Ni 1.0890032265040233 3.890721721214918 9.142219757211032 -0.7933519327415498 0.7887128913076417 -0.7217320544117184
Ni 5.317222999049858 3.1102383641446756 1.9976596676226441 -0.7740979696079443 -2.1800406844471554 2.230626624924823
Ni 4.052135847305198 2.781377238150545 13.506909437039178 -2.520333901152827 -1.7818202564073957 -0.6605418560556431
P 2.976032406282726 6.440495914282889 12.04155496911088 -0.02116634966497 -0.5693499691311549 0.6158923356670682
P 2.810485159269478 2.932532698631574 2.675174564604798 2.507075493481024 -1.4098986141631655 0.9099864281088587
P 5.764823314250256 1.0251993306416063 10.575672277208124 -0.43933236758872085 -1.2125201666775698 0.2854780686380051
P 4.874756650197721 1.5176245469729424 5.985166848298285 1.7321974511739457 -0.5324135011161218 -1.277489115349787
P 1.0480241665906451 3.775170410029954 6.452667306704922 0.1069640621570803 -0.87732596176136 0.8892579373122556
P 7.778969130128417 -0.06643482193871905 6.749175177617736 1.3961720086056921 0.06980853615270557 -0.7551358266831447
P 0.09056168364936575 -0.0814641840751995 2.2365503501353134 -0.870351844436372 0.024819373036524997 2.3012041780330694
P 7.714516538157014 1.8859263963934267 3.596029272698538 0.8216366386188559 0.853696495267878 0.9309689438977967
Ni 7.837147904017198 6.661098926774513 11.39412381753732 0.011433181537606116 -0.6844963099887115 0.11517128055822101
Ni 4.795217240148756 4.786496911026529 3.642008852903472 -0.163368409088738 0.3224309917132705 -0.26213013794068407
Ni 5.8473467264005565 6.230512983804093 13.187710176234033 -0.5732233360436321 1.684628443145731 0.17308049417017934
Ni 8.26760410776582 5.925876023936957 7.934134459271708 0.8161293356473815 -1.1641605444272596 0.3613492660450229
Ni 0.30164925093089157 4.653254730240787 4.5501268762516345 -1.7535856870417348 1.056666320798322 1.3479193442468915
Ni 3.719984905329781 4.4841118533663025 1.4203238374599383 -1.0405102798637498 2.3392631896883196 0.5960166797890639
Ni 7.0027949686392965 1.9742695393500602 6.9866693100786295 -0.16186662773223093 0.7084584772312638 -4.720859850037527
Ni 5.047207877228036 4.143787340417661 6.2276253594103785 -0.18872257158281047 -1.429664483936183 0.6268377789349785
Ni 5.516558046254009 8.086460352875093 11.53463973512225 -0.47353601005362317 0.8959440910831795 -0.17420380914134512
Ni 0.5861682910409148 6.3040009858649455 13.118591605821564 0.9351868386338861 1.624154297020074 -0.16590737346050782
Ni 2.934627060354872 3.9505315024634347 11.37919083310846 -0.9372856301444438 1.3202961832129843 1.0224302824335876
Ni 1.241242936195786 9.03571590332897 0.5732045626571916 0.6518646399966193 -1.1956894682734762 -3.181192774228257
Ni 1.081404214941615 6.025256267833626 6.325064148523724 0.5617796129830648 0.02614760492964529 -0.0534501493993402
Ni 1.240890786879479 1.9049887949103463 1.6098302119042243 -0.05779659929349401 -0.21691626040820705 -1.233308564177831
Ni 5.765601749581039 4.044036413030144 13.60997705496107 1.4731876040297984 0.022799000172386542 -2.18420510023749
Ni 3.803518429992646 1.372010804680109 11.361815971183631 -1.4299655601163697 -0.058687229428563435 -1.3496576670942368
Ni 5.782152767447455 1.1490632191088632 12.853184079790998 -0.6948064336654679 0.19358427055048594 0.11025533131384238
Ni 7.618444644416175 4.298362356101773 9.603969061257144 0.14840767401384766 -0.4107589268264023 0.9399220393260262
Ni 5.658872705478286 2.7788287891509573 4.460243543390523 1.26770966736552 -1.4622069366485786 -0.6743710486292515
Ni 7.754772765263237 7.135425521665137 0.5596495941055638 0.9327502041679355 0.6899185094455472 0.17187593233911688
Ni 2.8300294463245015 6.24255093016942 3.747396022769351 -0.21090964920281094 -0.8260764195577645 -0.37278681845800316
Ni 8.414255763833031 0.621119110684358 0.006435065401141948 -1.2378529890154035 -0.039658237821570415 0.46722986532993727
Ni 2.4681589554702508 8.626889081271399 11.887571193594672 -0.6441045364352262 -1.218570743747024 -1.2334697723460435
Ni 0.285013902570307 3.82864150358495 11.600150628460026 1.5298112660611136 -0.00026610917719309006 -1.3266504075657861
P 4.669157051998218 7.012395671052292 9.301954687087765 -0.19329939232021548 1.1626302238256623 0.06486559032513345
P 8.854692620572768 2.2789621017408237 10.09997971365372 0.11830159865708657 0.9566992587843653 -0.4242654459532693
P -0.28711753138087615 2.8347556608328284 0.3188332108579329 0.9093007148957437 -0.7701952921194284 -0.996910026675296
P 7.854097406636277 6.349122433788564 4.342120615487793 1.2392699239675882 -0.3053786642166741 -1.308228967635805
P 6.7523890034833975 4.165120175316031 7.56842646757844 1.126045482723093 0.3126800829740938 -0.13401438140665306
P 1.711445677250713 6.117769600062312 1.768589317491297 -0.24665415379227199 0.7417486067429612 -0.8348857903192785
P 6.632055875266479 4.691805813289104 11.548636743736715 0.7469566333064619 -0.32902098622596243 0.6999362986928656
P 3.2346860791100203 3.291808405049881 9.420850490068917 -0.07837416633452954 -0.6720521706880878 -0.5235367674517822
Ni 5.431597390151375 7.1000252482890405 4.522363609495757 0.3816147011622783 -0.9132167621206981 1.0131259743135261
Ni 6.653722325306615 4.936410581813213 5.058670337473821 2.051190620850261 -0.7341677090719098 0.4955078863390241
Ni 0.527474267099854 6.90627825470944 3.823987572357338 0.09148165025076503 1.032676385641628 -1.1396831281111854
Ni 8.169799268705262 4.621959776525845 13.115322177432276 -0.9836811866898477 2.4748649701867507 1.0540800481283847
Ni 4.432901929105487 0.629823685758224 1.560839755044868 0.9403982076314965 0.4843035329827724 -0.46381646877301413
Ni 7.436652193416461 2.5631929354367116 12.107771087789999 0.5597463846031199 -0.007372124094355046 -1.086987854599999
Ni 3.1690287657933576 4.244928330895862 7.252469760609497 -4.055012008387939 -0.6562717679253796 -0.4698482767893908
Ni 2.199719238484538 8.142377957469693 4.774084574335444 0.3962766740498272 1.7868200236148324 2.0291585807508863
Ni 6.89656634724919 7.566845502489968 9.187331011338651 0.29157775377783973 -0.5988451503767944 0.7646625352266572
Ni 7.504320464670981 3.6998382576021274 1.615594340186929 0.49015202134374936 -1.9753572186597141 1.3364553094713498
Ni 6.747495981404189 1.976966261745988 8.997567011868226 -0.23196081344615532 1.5544126095495618 4.428242599251581
Ni 1.780985900134021 1.6968870831476108 9.608173538752101 0.5725350517273559 -0.25191771618405645 -0.19610575142075903
Ni 4.5407152224189735 1.9108733953275774 7.9853091686008915 -0.9444685210461283 0.9058721488301689 1.411581144071911
Ni 4.9151796848748255 5.801919464596988 11.021132821957593 -1.4232791492351295 -0.5915846121596391 -0.24847886570583658
Ni 3.4172291641787043 7.985727114236824 0.4341213367643939 0.16759864512000167 -1.4903918837232266 -0.9513637055040647
Ni 0.5802577427793245 1.3277233946109022 11.787378226144318 0.4752769040041299 -0.14827860463515108 0.3329172359565751
Ni 0.5661754769619638 8.17778749793306 7.315348801162244 0.0879147588351131 -0.017955556037156175 -0.7313114705700372
Ni 4.868825714344134 4.49660388700792 8.708274495104792 3.3805414580663458 -0.3384733898881139 0.7755282742965677
Ni 2.8286115819720035 1.6451396678250638 6.138730824761107 -1.6199713692869777 -0.00030159040081883544 0.3344159319892886
Ni 4.535090100445337 6.813060623848139 2.0966451336015575 0.20251525449152863 0.17731741506966237 0.3344295588360434
Ni 5.946671367773597 9.196916886412012 7.908106917961732 -0.04197711576273416 -0.11227878950177436 0.3653146784506741
Ni 8.562019470372789 0.5895155629632831 8.714649324438671 -0.5147507937290361 -1.4091136563680249 1.06433643574907
Ni 3.5762245804911936 9.133455872778631 9.285380501503171 0.8370290619145262 -0.6445488230614965 0.8175940931183661
Ni 8.464492643930368 5.611554957871386 2.15647252231589 0.7713612874030715 1.2581305083175172 1.0140641698570794
P 3.1758215407631685 0.7789644814664873 13.235697007541914 -0.2845319026746519 0.32839466549587315 2.2471485338392463
P 9.110399359647811 7.494905104003411 9.200989771267718 -2.0045006729928896 -2.340415815235524 -0.15960585672251223
P 2.553814643118227 9.205720619319681 7.438693732742314 -1.14358657693065 0.5337111368816227 -0.48154551062166095
P 0.11008280298621125 8.271171936365244 11.906627105150502 0.8557531206865908 -0.4025041430167778 2.08977439466073
P 6.220282119456656 5.498626232384181 1.739088471872064 -0.08884087019380829 -0.042726849444565125 -0.1702869905854422
P 3.9568516559824136 5.88233924793672 5.611592952929199 -0.9081010381606877 0.46589006347259115 0.3095263678364605
P 6.443452115122411 8.70369470057535 0.19481641545070058 -0.5886075318091863 -0.5502207045008718 0.060289798028992946
P 5.207213406053089 8.628788834162 3.1875156781907337 -1.2993190667406849 1.9093127775351313 -0.9643243794297907
