# total energy = -340860.13090273464 ev
CRYSTAL
PRIMVEC
9.33169277520840 0.00000000000000 0.00000000000000
0.00000000000000 9.33169277520840 0.00000000000000
0.00000000000000 0.00000000000000 13.65787563848168
PRIMCOORD
 96 1
Ni 2.797912159228936 6.363626680968495 6.002991276523931 -0.8315510695190905 -0.3013348331646036 0.3546708255835827
Ni 1.5309855370213585 2.0748272692343974 7.856542643516436 -0.40182948554725634 0.16418961943845273 -0.1503804814695023
Ni 4.902106266111104 2.9584266093018003 1.5839447607323942 0.7188089672276524 -2.1911630196125618 -0.44058423771795086
Ni 1.4014896342447092 2.73782538845868 3.032799268777164 0.3923781103263694 0.02167671364248525 -0.10828020986534256
Ni 0.29012233316466257 0.9947398028525797 4.418992391972548 -0.38697776524640454 -0.5245814066662127 -0.2631349250561146
Ni 8.511735734774849 3.432448615019567 3.418948454859087 -0.46009968204305923 -0.5990891480668005 -1.3653205704424745
Ni 1.339956451070448 4.389525705210437 7.293483222885278 -0.0628542163220595 1.2801617770859437 0.9162738037794672
Ni 8.024966636515977 7.5358366199460525 12.980977426831831 -0.18025747153459276 -0.8273971952517171 -0.28801729012009103
Ni 8.924672478578948 8.311925525777685 9.41752864013545 0.14196757481545874 -0.2379607397833321 0.13296408576526778
Ni 7.364637381469407 6.226936042943536 6.005736660583662 -1.4813421148161325 0.5032479352957592 -1.6626858774363689
Ni 7.040137091554065 8.28811104542271 10.921670629277056 0.2966693093681342 -0.24510454991696495 -1.0670957436617623
Ni 4.430921095043773 6.920010208478199 8.305395207065926 0.16722120717592492 0.049022709755605895 0.8491369009216537
Ni 5.0023659749409894 4.500031612876437 11.546832466351146 -0.9957252623385755 0.5419918888331762 -0.5154719881657768
Ni 4.815349516949577 7.7872697542268074 6.354162477999837 0.5486893554580099 -1.021783392878208 -1.8027060987174692
Ni 7.005413862165011 0.7479053268472686 12.423258534063978 0.5734215680973673 0.14603068914123882 -0.70630363567179
Ni 7.443648825499809 1.8203426713658377 5.255769029599071 1.734623287006619 -0.7423726134802053 -1.0715818044575738
Ni 3.6505676055435567 3.9467368757262538 6.895615296823034 -1.0342167335455543 0.3795483055515528 -0.7538556744191404
Ni 2.8770262518815577 8.586659897302319 7.465517647879076 -1.0292876716750532 0.051870977837678404 1.4214140710019327
Ni 0.49287949078882326 5.436364349685992 2.717221010471302 0.03785640872614125 0.7238239039437405 0.300133870877967
Ni 7.2336484078241075 5.528860089998894 3.5636671483109224 1.0855868604874144 -1.210202574287987 0.8091922422079161
Ni 3.042178553340168 8.847480714669715 5.176184619622823 -0.5099564576641863 -0.2236039568410278 -1.3538102558100298
Ni 3.4303489841105272 4.9776463203718935 9.075221613772863 -0.8177221340557982 -0.10271634262431988 1.0424290941530179
Ni 0.8106852241968532 6.295001411168144 12.28760837980061 -0.015063064980709542 -0.48862427184531326 0.6533713064491329
Ni 6.996016847385441 1.748302001953448 0.8781589630897578 0.9537478894655251 -2.2403993880408706 2.0571625221629795
P 3.3010770419641755 7.638429252008204 1.309802951708757 0.436193564849423 -0.1637597309898857 0.47761095145394517
P 5.303126438044787 4.178050880051942 8.182433355678208 0.8847896171282569 1.0485969135266264 -0.6757861838092233
P 1.1796193031632356 0.5422964038639854 6.473709862944808 -0.8347631486984849 -1.5793422829117059 0.2726274379275821
P 7.063438328797943 8.937344917576619 0.6524057145804998 -1.448115491552519 -0.11474267766123465 -0.3743011982200006
P 7.373661128531815 4.060284915287129 5.138421124677479 0.4806160568288561 0.7168441301917977 0.5357572207773741
P 1.3049439392005924 7.268464954142452 4.474825777105736 0.28629490811234565 -0.4599682986715175 -0.3849149691801048
P 4.783565770833179 1.212186911485676 5.087764029612043 0.1667003016754484 -0.16069523313194906 -0.16462799252745194
P 8.467606158913295 3.225145056600365 7.593834024669491 1.547551363653354 -0.6140275145441877 0.4160926803344898
Ni 1.6137203265304578 0.2291639822748317 9.469661075852969 -0.3560239971773675 -0.23631729064263818 -0.49528702857746953
Ni 7.20004498158654 7.5283712656028 2.4881232832162667 -0.7423098785630698 3.4058282576575922 0.69073586314052
Ni 9.483612889951216 5.354086813130416 5.305388440410793 0.37587162803091395 4.321428175298487 -1.0549254268478154
Ni 6.592794395920499 9.010692023999079 8.57195594875399 0.9367138168013738 -2.561162762243731 -0.17310363409863092
Ni 1.7819707500415183 8.599649613859578 2.5328668844725524 0.18799392094690204 -0.8154243391605569 1.4599052850985954
Ni 9.141531690557514 8.745224023553009 1.1398989522106662 -0.3807572382579894 0.12063718876879868 0.2174469361006965
Ni 6.0471609786650795 1.871834952948424 8.247021735117446 1.1082560199501559 0.8381644610705501 -0.008223159240740678
Ni 4.202481252140237 8.037041847166188 10.592775111992125 -0.3544808210599637 -0.3455871181147597 -0.6577452671471123
Ni 1.7085116633039106 8.784090524602568 13.634042892102416 1.4948653461135482 -0.6586662362994851 -1.1018362324667412
Ni 8.595403693576854 5.72822237773546 7.776548572220603 3.4322142038502887 -2.909339495462538 1.1522529943563964
Ni 3.889057681731697 4.387948649105424 13.957529760165661 -0.4367352962855059 1.7837436986823538 -1.5461470271066597
Ni 5.813915313903075 3.3262726128726543 3.533565906429634 0.8784459342984162 0.6475009637112848 2.735754293741798
Ni 1.418118711044305 2.9313926948862963 11.649321516621788 -0.6659152045524145 0.3867160269445856 1.4993267243190116
Ni 8.587639725059871 8.045561682810426 7.007732787857884 1.4096505027081014 0.537786592502577 -0.28950338774731427
Ni 7.674449586714399 5.8089415215718825 1.259216777509583 -0.18713877203545837 -2.1513410025196174 -1.8150329957139386
Ni 0.9723810665945375 4.779319850550452 9.964826831409413 0.7817410879754988 -1.6736544606327304 -0.6480558077734904
Ni 3.438756839439616 1.155758164343614 3.2073065923971633 -0.34993433933986184 1.0158390023693151 0.21086105535306268
Ni 3.4814866613618096 6.107061115576754 3.4639244152693065 -0.8784662460133904 -0.20091268589109915 -0.042173548044256395
Ni 4.246694813238152 9.132451953337533 12.871496139049443 1.3386335480695912 -1.0023427676550931 -0.44116762102524665
Ni 1.6189274111848768 4.880204782806586 0.578248617211798 -0.5083284351424601 -0.5913894654296976 0.04830125820854907
Ni 8.515319104859609 8.098761664199031 4.622671520858101 0.3118226200698049 -0.6651215050065256 -0.40769828562320753
Ni 8.24814340460752 4.87556693142084 12.689123131459533 -0.364898673959178 -0.15885972258510705 0.2953616463003042
Ni 3.9933393502140095 1.699786530415234 7.189888367002545 -0.8834359313138398 -1.3355366543118223 -0.3465001168473323
Ni 5.929068404647748 6.279501469212965 9.948505700476476 0.6488014276902633 -0.6527830380458306 -1.7211095687909004
P 7.145482573030292 3.618886508049377 1.685067651158218 0.478206418946099 1.8589731487403143 0.9028349046657419
P 5.809529418226413 5.241574591484667 13.456900298399248 0.8714679603186862 1.2126430654086793 0.8633201344005712
P 8.34325201894056 0.23635685118455582 2.877195155523574 -1.7007718856748129 0.8006844618472211 1.7294322297239828
P 2.4991486784119585 4.952273447297763 11.623726549255945 0.5217431658864692 -0.9935184844952438 -0.3594569341183164
P 0.2785920933815086 6.631138322166031 0.7829169055478314 0.3282910500384733 -0.44025616495457087 -0.08261828632286417
P 2.457062743301871 4.1196531457018475 5.041641204140843 -0.46483899650025745 0.8410430681699257 0.5050194253738851
P 4.613551657358524 9.550147860535455 8.752049223761327 -3.1825480027045705 -1.1832851810718525 -2.163190702769352
P 9.409145980377268 1.1572232401334772 11.914188556043225 -0.15315290200831685 0.6483622832703156 0.0632913038594781
Ni 2.2651564782156277 1.8592091724153976 5.242780246211103 1.9150730770576763 1.2685121086621574 0.4383594621524902
Ni 6.509285075898287 9.107638981839147 5.838673228413179 0.36343905869451604 0.4429967038141855 -0.22445679175962632
Ni 2.765568511536793 0.46408468591760427 11.44251347109712 -1.2276184557715888 1.9854855653429677 -0.1407774111620995
Ni 2.607965549657797 2.3465381722500123 9.90411763672079 -0.3787813454785412 0.1906205599364717 -0.9551920781112194
Ni 0.3321028201446519 3.3134135400164015 5.432215479009729 -0.22316018443538985 -3.802471571018219 0.8698250253986246
Ni 4.557598826555845 0.7168578513029731 1.1975576164807793 0.5864632317726739 -0.5849920465437861 0.41054989613938964
Ni 5.682282453445668 6.84705503315876 12.018944274526335 -0.35123865997358217 0.12506977061885557 2.0906038325405607
Ni 5.872537008883466 3.0395843427058877 6.176077383310833 -1.9706731829204833 -0.21225253638395059 1.2070306043179084
Ni 3.148223911786074 6.579599382118799 13.010711000011714 0.9403665830626127 0.6943729456724751 -0.4244053139652433
Ni 0.10764947646041272 2.71764093665311 0.2716623782123842 0.24849454943512042 -0.6108755991787672 0.04979686891746908
Ni 4.679508062981164 3.0040585877249333 9.767907580881678 0.751023604286984 -0.8637381957745963 1.3897319094073033
Ni 3.1713011883996542 2.242405810854565 -0.052034452941765036 -1.0174431136316415 -1.2013826620035117 -1.0362093384955509
Ni 8.111135489022972 0.9184214854015061 7.508294128265914 2.0025584616648544 1.932216421606182 -0.5590745553470758
Ni 8.60812279103917 6.09090795511654 10.497880193427159 -1.9197082618368422 0.7730746705497524 0.01995895962043014
Ni 5.348870396783068 7.582467089512595 0.654011698933592 0.5006212963061895 -1.0060451562073447 0.4641208873873104
Ni 5.189167803995033 5.18878520458494 5.470894413031415 -0.4287134544222939 1.082594867738626 -0.7699469235540481
Ni 1.9389204934154796 6.951607320736016 9.934725589528124 0.6892644208013162 -1.699664768653563 -3.1926796918219336
Ni 5.408751870308885 5.237263349351439 2.1446693917926987 -0.5114723800880804 1.080947819053506 -0.9185145201845277
Ni 6.037045423529971 1.0833722222928488 3.161033526669803 0.9636993442512821 -1.1416852461428788 0.14593015900763254
Ni 5.528496153974661 0.7605423054118098 10.435818836433112 0.9849520829824715 0.3230390576109146 1.5296338599429848
Ni 6.309950783240508 3.079775944151375 12.971622404670441 0.30318885565420683 1.620845801472131 -0.9686991114587188
Ni 4.67744575884384 8.44127212146747 2.993451252372464 0.12343737722175514 -1.653371027793346 0.5411179708686552
Ni 7.285168684485481 4.28837015385936 9.20394671871357 -0.4032896150325506 -0.5903540821866479 -0.4497229667944255
Ni 9.248622198611475 2.344354556104611 9.696573320624017 -0.6381519183962171 0.2877496382810012 0.6323918759839884
P 1.1637180984121072 6.812070516367692 7.823777203303899 0.8538913848875036 -0.08704084087059204 -0.26950380469693586
P 6.052899969816455 7.032877034455252 4.404268846869068 -1.7229962442906521 1.7930472354714668 0.2631547225504565
P 4.835683275842012 1.8540674096114824 12.040141215014708 -1.3792911736899536 0.4087447246098509 0.9461459087485511
P 3.1688749482380976 3.8237824896928796 2.398077112297244 -0.2504912681501751 1.7524574869745626 -0.4192160564548199
P 1.6230333560736658 8.011099740823385 11.50077869540762 0.12878989978292013 3.642662597145965 1.9335253702255928
P 7.0732086112946755 6.921363303952912 8.068171441608259 -3.3427938070039267 1.4591164706487127 1.6553839444583165
P 7.5533522075739095 3.5591543416104257 11.157828715402223 0.8749816298988995 -0.32263616574554116 0.05687897257523107
P 1.761982263787459 1.1395583454187552 1.44400669356812 0.07724108117135084 1.490966268169458 -0.4257890816866473
