# total energy = -340871.9438410781 ev
CRYSTAL
PRIMVEC
9.26871908392127 0.00000000000000 0.00000000000000
0.00000000000000 9.26871908392127 0.00000000000000
0.00000000000000 0.00000000000000 13.56570727579970
PRIMCOORD
 96 1
Ni 6.1619094409213435 0.9529541013540577 3.5940033566971836 0.2891822569624697 0.08058325817070637 0.509925861536567
Ni 0.3235283530395075 3.9033450080469163 11.008734065501145 1.0967876142992403 1.0054550880318296 -1.424453629159205
Ni 2.274441748956084 6.580688714243839 6.7015815463422985 0.9753484984544364 1.3697410681076732 1.2740744332412832
Ni 5.314572395463657 5.709225192568667 5.166052291885572 -1.3279853243271258 1.1700784525735912 0.45545318440998334
Ni 7.248713117018665 4.493780961948683 5.706116464130961 1.1804217434811284 0.35199893517837444 0.8494271784685629
Ni 5.539144194262531 3.3553412508887734 4.4407212517087205 -0.027827820845545623 -1.6277309586277389 0.5923844823531152
Ni 8.345721653014355 1.9862679986380438 9.783819057547689 -2.1326405978966365 -1.1384055469503425 -0.20134360278093064
Ni 4.120399875531008 1.4252509596476495 13.170673953899179 1.2992758722075752 -0.8329412649983978 2.4855602451170675
Ni 7.252856234525087 7.8196384168913085 11.057190929759699 -0.011619072296167085 0.7495454770795608 0.7858656516668336
Ni 2.126003210107433 5.4967027287996535 4.798272292512933 0.017521296713214986 -2.168776424387245 -1.461721769482044
Ni 7.093035708432843 7.325402500124113 5.850631554119505 0.21065639554142426 0.3150182441889671 1.1085390984082133
Ni 4.0688472590417035 1.536457053254026 5.4213990192226404 -0.3997517770826212 -0.2783334871734239 -2.175027033282648
Ni 8.68423381759946 1.5515001846028467 3.84528111628186 -0.48603182852778876 -1.0039252816508646 1.2386451458993957
Ni 1.124916649668702 6.764607910395808 10.604408432982932 0.6370532860153997 -1.5101145589631346 0.8918316115767028
Ni 8.013224887224927 1.9700755461017594 1.715573199088707 -1.0687600187380624 -1.088406075103764 -1.2384227454759444
Ni 7.617070557600813 5.427771263709587 1.4151063464244307 -0.8657282296214316 -0.09630529689165349 -0.40624612655771325
Ni 6.993387707735881 0.5910977404564831 12.546664845116515 -1.2835126958360474 -0.08056834577237093 -0.56230591780018
Ni 3.1466838430485713 8.557048451999634 11.663890705336003 -0.06446321268039222 -1.7087330495034185 -0.8198762042843234
Ni 8.19308438434376 7.835543539130726 2.045912207035863 0.326646829566831 -1.5056449532275553 -0.03068405934741812
Ni 2.324372339575983 4.9341748885709 1.0102802030665161 -0.9495533917682033 -0.6221066920078964 -0.19647830426882937
Ni 0.6132156852116837 6.516771626270045 0.5379342205608795 -0.4242312502812242 0.7290864378942604 -0.6196260916778876
Ni 9.01290260233709 4.1381216667441585 13.288519231107008 -0.6470235098542341 0.6149834506995538 0.554058075969091
Ni 5.359293965862953 7.1485553367627475 7.619016988644098 0.1464934877102703 -1.14139496859597 0.6151433733161857
Ni 4.79503287513375 8.818361453920335 9.136436092550943 -0.5885404260166768 0.20124512952985338 0.4916787424009209
P 2.957750269780328 0.9763854236275132 3.485464800492034 -0.7946387698737734 -0.10769168435172422 0.537672435522216
P 3.690655707331337 3.972165248505938 5.519561244223229 0.2842817343370588 -0.6252115561854652 -0.442875861965605
P 5.694191329939099 2.1493696513461122 1.8546762839049908 0.17583543120749717 0.20190564593198773 -0.2892912717365082
P 2.159741348191048 1.0228031696502449 12.48697614686628 -0.7031272948263375 -0.28872537193070924 2.2390053359068216
P 6.121711005517872 1.2870358181358739 8.88974356838109 0.9180658626828835 -0.8077159147727058 -1.5907086157671184
P 7.593333367591985 5.929477768195298 7.730038634737325 -0.5041686473378155 -0.08376679810501057 -0.5112993448453259
P 8.487227189861208 6.075265453337379 12.307827560514207 1.832969011367069 -0.5255142028931271 -1.1976586761847052
P 5.482512319622177 4.966531987485708 9.651091924706051 0.08351148756109487 -0.276992142654181 -0.21260940550273705
Ni 0.2027523068036442 0.710180391684688 7.957169526922157 1.6397737487248856 -0.06530910562045526 2.125204967554198
Ni 7.525032175411171 6.365617352680048 3.8788153425418925 -0.19410363338906572 -0.9698136846791363 -1.0544849968762873
Ni 1.0247496006935302 1.372623171724912 10.796770505503133 1.0339213137923227 0.4001644391400076 -1.3712526196561932
Ni 0.1820218893207286 7.040064977897717 8.448654487814842 0.5720691678345309 0.5571487990792727 -1.5399056741826385
Ni 2.0080958324806026 2.3467841027315273 6.461264974147096 1.065101596049869 -0.21736826034396112 0.5070644808283719
Ni 6.668973265135715 5.003495639869624 11.823776112463023 0.7237578265924954 -1.0601609642151417 -1.029956929827936
Ni 1.218493639254464 0.17714376237748508 4.839267837772225 -1.2361912850422647 1.934328068632546 0.6831009723030815
Ni 4.944574391573597 5.305878336803649 13.291612202721982 -0.7741910435423828 0.8604790654073503 -0.21144135333656489
Ni 1.0245271514314405 9.37021172956878 2.3320264479357222 -0.8974219611802866 -0.532827962945721 0.21014526023296065
Ni 5.0519339666896705 6.619089018112085 10.979378177880697 -0.4327493150545644 0.8030267368271524 0.3677250876643796
Ni 1.8755716845906232 3.2812007655781046 12.879486016079822 0.9667124200459931 -1.2863177693850105 -0.0607669947757276
Ni 4.988230059258713 8.198061686583017 13.473663751944324 -1.7340008229312716 -1.5258322268087077 -2.689396018192233
Ni 3.7938258213447207 9.033006454398453 1.9477638851141559 0.7360281593194163 0.898522393333317 0.7636749745024073
Ni 3.489487424648157 4.038065842400032 3.139335602424206 -0.33203380491035717 0.48501907099255825 0.742174124316154
Ni 0.6503702732122272 3.022223480909346 8.513268583476517 1.6628077477262138 1.1130925221068508 -0.186756191885059
Ni 2.952939804487637 4.766568638305515 11.249647543216287 1.2019267074324398 0.6825576982051019 1.8273439518708077
Ni 6.262502850982187 -0.0974856084950646 1.3112475665704943 1.14335877719056 2.017754966899634 1.9849638885115426
Ni 3.497532672960404 6.369083853680947 9.150476348476507 0.6941112073706562 0.10530055841172832 -0.43768660445518176
Ni 7.380347467860285 8.112205540135621 8.7443062408268 -0.3280408817008802 1.0720317475107988 -0.8042708936468987
Ni 5.9529090904687525 0.1345882916677871 6.868358246234475 0.0015002386946103194 0.807432836314648 0.47078415834009896
Ni 6.628292856331049 3.169707341674862 -0.04562156303883525 -0.9096447284987238 -0.35685780593257255 0.02787384359213264
Ni 7.7154116688829975 3.754804513286474 3.329811490576271 -0.5764176746112137 -0.07926993867592155 -0.1813141949338813
Ni 7.420193691932115 3.1813673904960678 7.9033136336983 -0.157568000356877 0.43265135602411936 0.18113781725701708
Ni 7.402805574612098 7.4388608925091475 13.436318228327153 -1.681293208124911 -0.6044231586852041 -0.5326006774262634
P 7.893751096044216 2.850464844418284 11.688308219338056 -1.4787802676262276 0.15154750519440996 0.05667122743979918
P 4.440059465154003 3.296077059980358 12.182317052483535 0.49376982060199476 1.1737422745784236 -0.06844970813196599
P 5.94321401012934 6.903138188362211 1.58238541090016 1.4737697017855134 -0.08549020855402051 -0.16862811482578055
P 8.634025165401948 9.0147841523456 0.39855678165468467 1.0849898503333637 1.5601983629934033 0.663404779425735
P 4.893234955627129 7.909007407935872 5.7561063745540855 -1.273324699559452 0.041948833627960015 -1.8613573327017752
P 8.245109705515004 8.526665590285873 3.931029745585913 -0.19381541272468555 2.128629934075347 2.688013278912093
P 0.03571608277236296 4.143979497312523 4.7680479258984105 0.3681691171803337 0.9352940536357117 0.38348286471926857
P 2.777232693594482 1.4277535138461597 8.900908667594146 -1.1094829503787216 -0.6580576561812086 -0.1703558961501647
Ni 3.8968569045692982 6.538451160604543 1.5231851741545954 -0.2487143787554104 0.40747331409659504 0.5564947104350416
Ni 2.1118869506839864 8.24502628704172 9.011604981641568 0.461580894574276 1.790582575981058 -0.03804872724260544
Ni 2.2535871306351685 1.8172158281690742 1.3143396113135422 0.9014858468370152 -0.1629575468035645 0.2201471086406789
Ni 0.3256499628766887 5.0874795050277655 7.066377018115235 -1.034319834782322 -1.1424036123661423 -1.0955293164121067
Ni 2.639740512184498 4.5111134669531765 7.353142849978632 0.1365021808255133 -1.0382626214801538 0.10326887269368022
Ni 5.693903999642234 5.1353524399733335 3.033753767660999 -0.43509981756461197 0.30160171367274513 -2.468911066596161
Ni 2.327004655844046 8.41234520701024 0.3778671465364855 -1.1023728216965016 0.6565594743691273 -0.5902352972205964
Ni 0.3733199128706005 8.4759286210909 12.027423777546579 0.11891095010631134 0.09709873932722632 1.725549606840125
Ni 9.01210549248127 2.4627543180343263 6.1723701174711145 -0.9701199030656453 0.6109781861949026 -0.05553531406314307
Ni 3.3558046868514606 0.18427974933093974 7.2282431505467795 -0.13048631364873656 -0.5482864635926363 -0.5529802695238799
Ni 5.154464539074547 2.463949982818059 7.216142837561022 0.2737594946494963 -0.24477544871232038 0.10770582541911129
Ni 5.18696066877816 7.748704908442433 3.489154677626948 0.4443817570871701 -0.19453095073447144 0.6479434505653421
Ni 0.48797860439899515 7.066619858559682 4.264230934038624 0.6578882204828799 0.2934551733062107 -0.3614130294034227
Ni 8.398970445127093 0.14500355149321512 6.208196498002597 -1.0561924664856972 -0.9753076179141718 -2.238906091324796
Ni 0.27807177320338883 5.1258705401767575 2.6737465162545457 1.1480610677622358 -0.5992709250603034 0.23347519320815274
Ni 5.143258657496774 4.833479522598266 7.34591232208879 0.4714058510844978 -0.6186346742988958 1.0940236784008577
Ni 1.5248526167483432 2.6784559525073712 3.9760683061836883 0.1953076809994959 0.016958225120893376 -0.5693566539993742
Ni 4.206459933801987 3.5209732639531133 0.9926325616073947 0.9002244636260883 -1.2637434836289203 0.15602148180536354
Ni 3.7132621135912096 1.5365960840428323 10.938707964667211 0.39026723463095364 0.45554111613809933 -2.1951099200754522
Ni 8.104141754384866 6.005601759426267 9.996298885208134 -0.5235979597070208 -1.4710649012598407 -0.2608906091066281
Ni 9.05812468357609 1.5747832073682422 12.96975221914815 1.910655664716271 0.9994487339367498 0.6485890545691411
Ni 3.7318273582564516 3.317098515247841 9.064686936807739 1.0193891816144185 0.44655639614098575 0.9827548182208364
Ni 2.808607308268393 8.028054838030913 4.639689140441063 2.647415045774757 -1.5077604569086613 -0.26284721861236665
Ni 6.031980534422411 2.78022648991344 10.267639714489457 -0.3734437353157117 1.7096694452747587 1.488617051210991
P 2.092923151090834 4.852656502734254 9.401984899170602 -3.0045335615678836 -0.8134541028080635 -0.55780314483382
P 5.28261385147676 8.886569958908611 11.180476018297549 0.6856257956074644 0.33954245458257654 1.7627812374980738
P 6.840055285121254 1.743659272171391 5.657049718145512 -0.06780410412816709 1.0826298347416192 -0.26085564210363466
P 1.3958598508940392 8.379663702921551 6.8003944354345 -1.1869348620092977 1.735900868167462 -0.018185412659775132
P 2.120043423627278 6.4522613402640125 2.6965781523922843 -0.7091768434545271 -0.06693738525249764 1.249530425353332
P 0.538728549800925 3.0207960981442703 1.4514221153325109 0.49979468663983595 1.4750999905611628 0.49570354728959787
P 2.9090987624174454 6.600709147831918 12.985312545031327 0.24339450920439373 -0.971268671958108 -0.8343751692314468
P 9.266022056437485 8.868523762521578 10.001168670304049 -1.010408318272047 -0.7902164724363616 -1.6744008518804516
