# total energy = -340853.9500596148 ev
CRYSTAL
PRIMVEC
9.43830267151634 0.00000000000000 0.00000000000000
0.00000000000000 9.43830267151634 0.00000000000000
0.00000000000000 0.00000000000000 13.81390999801522
PRIMCOORD
 96 1
Ni 7.153902997610858 9.497763863101603 9.396470112399447 1.7397549518062296 1.052967017569864 0.6134557012011177
Ni 3.250862864612615 8.664286240898706 0.34149949460787155 0.7779731362926343 0.0018131419493388127 0.012701249616752319
Ni 6.528039716754125 6.027045178726403 1.244420371704098 0.5241111518980135 -0.9382122557237712 2.5552471680902444
Ni 6.982352410334962 7.732489820959615 3.052376305669317 -0.7069579814263373 -0.5960310779667671 -0.01408038935246607
Ni 2.9424568902603263 3.5023275596385677 0.5452762221343636 0.7463822488602307 3.323166776801619 -1.653836911686171
Ni 0.5168471110024462 4.878564208683879 3.9009929651736313 -1.328675151305299 -0.6091922979390734 1.086460264231303
Ni 4.122018190623027 4.324818997665126 12.343211992020647 -1.2395589159629168 0.8492394879377891 -1.7467416675367078
Ni 3.538400752011393 1.7819043312474083 12.655061059145726 -0.9550018164772843 -0.6850485829477556 0.45592138229565354
Ni 5.064961245881925 1.199646008203981 9.659528818286411 -0.27317431156998756 2.7435995008178296 0.13960961610624345
Ni 5.797175319950851 0.47327707490860155 3.9373653517375136 -0.8849377126703469 1.0860357750993748 1.4126065000126318
Ni 0.7817642186628802 7.896216055415765 0.9576809647016415 3.314488532301331 -1.1843768714741343 0.08389406771149423
Ni 9.215832327421678 4.269114135973756 8.655174503610185 -1.1546325503321664 0.133572408773228 0.12758456662090928
Ni 6.83990954814483 1.3769728366447571 2.2673879628529683 1.4133559765841466 1.5194108966633961 -1.6966079841051105
Ni 4.776904251842512 1.5458806992046956 0.9600915071746975 1.022421026462207 0.9554862123128707 0.04627085804208161
Ni 3.995762017318138 9.20120295845834 11.212115431457848 -0.5619678177344708 0.1310136469071163 -0.0038972781718771598
Ni 2.5677279638400514 4.268670535753578 5.176058561450029 -0.5501106612855686 -0.8339396243559251 0.9145897312088249
Ni 9.281721117572044 1.7360247425178676 7.7011442743375875 -1.3305844525128696 0.34898560227334735 -1.073995298995073
Ni 2.6662732808376104 5.38966716875014 10.674656955331443 -0.9814962632233871 -1.7708503876594535 -0.27149281010250664
Ni 1.5935158122098374 2.924014447063963 8.535048507816063 2.0419369634624767 0.4959953674984039 0.08076812048800283
Ni 8.657330211914202 8.024444833955066 10.314583825121666 1.034022358146561 -0.5277029830143298 1.6960842503911564
Ni 0.9154964714231634 0.5042460332586055 5.4629036774411235 0.6621724496805305 0.7958245626517585 0.1145462453797124
Ni 4.5338490843948405 7.1470224750468105 4.210396568106194 0.7235112577993281 0.4495195925343678 1.1485256661034802
Ni 2.770547647487264 4.122933705971056 2.8058818207698772 2.3072365002700783 0.3527406984404054 0.6405535858591742
Ni 0.5546833782929179 0.28751806696340837 9.27021110760379 -1.097317261550465 -0.5610674174073885 0.2643302309157964
P 1.8106817157436788 0.6980540256244019 13.631442132703539 -1.4238872151327735 -0.2645526313392476 -2.045768421393425
P 5.3526690227267295 8.950002535903984 8.64015816424201 -2.428158310158831 -4.539831818885498 1.3318648618871902
P 7.281036933053548 3.746402063762395 12.369624137896137 2.015656175389077 1.0554841275647628 -0.627626593384861
P 0.3223925949114958 8.112390937181123 6.4582236489097955 0.2657901032907745 -1.388283864106867 0.12375747956533523
P 5.015410157457715 5.699904173798485 10.244506316296507 -1.026262254585168 -2.8369899380555337 1.4820183149475508
P 1.7262277844637095 5.277889351567677 8.813108451787107 -0.6841936911466281 0.38740174015770057 -0.9988483813485894
P 4.451301690231384 5.1984943504582555 5.2182600436731095 0.6998257412569302 0.704155993201168 1.1524777087726927
P 0.7061077291962837 3.015452722236107 6.1291628932417845 0.4570886631308773 0.6430370144026603 -0.2585701885035676
Ni 3.042606718692574 6.301256182914709 7.296203341432379 -1.9410185932788444 -2.9115820116398115 -1.3192908818769213
Ni 2.8473943069062972 1.5028042863345819 6.877655207730755 -1.819576649220563 0.1294696994587641 -1.169124059080122
Ni 3.851412618011494 9.229829330113699 5.614290275134262 -0.23536032604600757 -0.013282318931202932 -1.0829622783803736
Ni 1.5724589592051867 8.45535053719456 12.366985188501202 -0.2831661326753768 -0.24327700978992298 -0.6288576375784847
Ni 0.8801575789892718 4.607382899616369 1.6656678599370223 -0.3938719212630765 0.8820269667814551 -3.601842220695493
Ni 7.90803281021712 -0.2125987089265129 6.646686730537567 1.539972779975148 -0.30716789490661295 0.16179026596834073
Ni 5.774882049311233 0.44990783777748794 6.981743639820036 -0.0677169437309995 1.7635301998489565 -2.205117939130757
Ni 5.95481384925774 3.4834981460373675 10.065754304169625 -0.10146781492919944 2.197071928897829 0.5353057350622523
Ni 8.213965949299476 5.090718373559957 13.756775240018355 1.4081304665191492 -2.888085728290084 -0.9780309303826059
Ni 0.4213211069928689 3.6452517752591054 10.824192701893153 0.03663564894516271 0.5922672400489606 0.16001414790452442
Ni 0.7961689560253623 5.779242545092565 6.06723535867459 -0.18956229387528645 -0.3888474714652916 1.4155550411179945
Ni 3.9252390206122896 9.471336615942025 2.899636255389507 -1.2171165277990006 0.23732542019217834 -0.8395063198104252
Ni 0.7908957763867704 2.6774859842753176 12.858028924143087 -0.07260846749534593 -1.595522492215994 1.3965443043434465
Ni 7.887013710422698 5.345118380681135 10.92178852565348 -1.4477614506472096 -1.6740303559149103 -0.3366785027712202
Ni 5.725708492989303 2.5490967545925476 12.21528146384215 -0.6834066764689585 -4.062186928869823 -0.8676858675684346
Ni 1.4131498503457096 -0.009030567886530472 2.830193944326434 -0.24711900924383248 0.21636964387611768 0.5672930866021263
Ni 5.588720969677112 3.8872592911229518 0.10923230698284188 2.154879097579863 1.2744832386439275 -0.011586162175702627
Ni 8.867936495170934 0.7969495036468255 11.471775404594037 0.7036201753023559 -0.09168939538619694 -0.14808654322900303
Ni 6.510333461157207 6.227797874113635 5.755676047438009 -0.19930111842960516 0.4055992370023337 -0.3249231620075049
Ni 6.098417622662382 5.98848971278109 12.726243793200311 1.1417639218996143 0.14177011409267196 -2.9298568986895988
Ni 1.8126920741883183 1.7351375420775104 10.759875389118529 0.5710229859582038 -0.18339961670800026 1.1762951229072645
Ni 3.7571900435850374 7.05162011280073 9.313932156538549 1.064089866955903 1.7275800070065923 -0.6673341963871281
Ni 1.8074632545717444 7.917074704066719 10.045033454736004 -0.5971919310440875 -0.2152915803205905 0.4199305660233412
Ni 5.298899013059542 4.291794377018209 7.3078341616733615 -0.39313761420021326 0.1155201792572075 -0.4911606651139218
P 8.397503180822754 6.942069735021717 0.5871728471848534 -0.7398071667458743 -0.014075504256459629 3.118003028943649
P 1.3477801668359792 6.387163612788455 2.6988099412423305 0.7973106602789817 1.8031969223109592 0.2287425636191738
P 8.911182797487072 1.451667563080796 1.6552932777663762 1.4411727416860984 1.734701191432406 0.41176911325847154
P 6.603130851897557 8.534887112842338 5.082082326720309 0.9232862305415582 -3.0962484108753774 1.7331189345469507
P 3.1644740813084624 1.6537699357336777 4.065143923244846 -0.9529469908307845 0.22874539183265122 0.9027030070735679
P 3.9365932985883516 2.7394861937722017 8.215822463412437 0.5513607316425859 0.23036775792742262 -0.16399138738471758
P 6.805233224550439 9.269894924468131 11.708476706760342 0.969285580089808 -0.1756217725347943 -0.5493341881308604
P 4.966255477740897 3.6528968003302698 1.9134478416447251 -1.8243738134988903 -1.1952084148719995 4.065476398254372
Ni 8.746720375431478 7.02940234858157 4.682583519069463 -0.10527998958643806 0.36567026201787994 -0.0410286358065358
Ni 6.892188306008012 2.617109162818236 8.226446216770588 1.1269163153638204 -1.179021777809808 -0.21476733238600432
Ni 1.074371418365019 2.6122012454886003 2.8394217727364057 0.39767663972114736 -1.2177379634330832 0.0335616380055293
Ni 5.427665774844592 9.190320595610128 13.351917364175648 0.3982661936760302 -0.7495272222471155 -0.5485273759588489
Ni 4.813760823327569 7.472757172893737 7.122617856125195 1.969992354803375 1.0975676869983744 -0.5197289636699179
Ni 2.033501162509159 7.613133046823888 5.105511025157532 0.14619781084672243 -0.11557211554106546 -1.2282586604587493
Ni 2.250147959402366 8.465874244545608 7.446996269894682 -0.3795776161275915 0.3596348544570774 -0.0694732643004739
Ni 6.288873129959933 2.852028513461781 3.95985399524006 -0.13405346217470462 1.2105059644610183 0.03891827433175233
Ni 8.566892396813099 8.251124546466356 12.978375776217042 -0.31784902876954285 1.957405262166984 -3.3668883860592853
Ni 0.42068402157027196 5.979306244393136 11.419834537962398 1.8943818672569117 1.4792996304648072 1.0606034510691993
Ni 8.307518404244387 3.4831866820529864 1.9810393015763716 -0.9052419714453377 0.2686931358701824 0.2710474950349719
Ni 2.545094914308383 1.669682913844767 1.3923044153183357 -0.09303793899429139 -2.2987994252463184 2.4030779701514358
Ni 2.833057525322226 6.265107484121427 -0.30653435895523695 -2.8089338032492654 -0.8821683774553258 2.764651693502439
Ni 7.6003347085566055 1.3122732726165731 13.400777568852686 -0.3440570546234784 0.40416404721770394 0.592317890781238
Ni 3.718691207455065 6.9393515038853035 11.773499060735976 2.922204524350664 2.0981353650309154 -0.9269955610723454
Ni 8.533943282586637 0.1847123001916227 3.954425083609278 -0.8979567506378342 -1.2382049730381837 -0.06006354095079977
Ni 9.340946466117172 6.702138645720409 8.564333672989898 0.8058485225466637 0.21008972440467688 -0.6671431634222447
Ni 7.959254478193918 4.465204309897834 6.739792753771532 0.15895048252670044 0.24679685001772336 -0.7162625466567147
Ni 8.981922875151731 2.3556209904767575 4.329914737215646 -1.7778047074900996 1.135790735035315 1.8321858533441415
Ni 6.543896065049872 6.950620837138353 10.073130337617913 0.3768483901218864 2.4002204460979826 -0.9571669424494031
Ni 3.2464268624108286 7.418543563006373 2.344814134049001 -1.277209379325839 -1.820936248572251 -0.6128802883136218
Ni 4.668222197898743 2.224758925524056 5.758038454568025 0.6116158197789016 0.9923159795467105 -1.2101737779325803
Ni 8.41643641575208 8.973626607204135 1.5457627204227333 -2.131337305704181 -0.880704905535922 0.4811531602792487
Ni 2.7011478087856977 0.732898351004307 8.951372033605002 1.9592330594043421 -0.7111653346394655 1.111453443841531
P 6.946902145930898 2.626500273862444 6.093329433753906 -0.44178160046016174 -0.181463576027552 -0.5818843541527399
P 5.798666571754855 9.062912949393287 1.7480397016729192 -0.5001536126411515 -0.684399379399531 -0.6096350419034469
P 7.28457629651242 6.774624809358112 7.902053645547266 -0.28190474946445 -0.6633685268711608 -0.5149963340809388
P 8.555028450498959 2.1780015746567147 9.896657675558547 -0.2592836696308244 0.5348575917812401 -1.9695236426970724
P 7.280565017925698 4.76931585658669 3.5029174535483794 0.8790779114554603 1.259900455733746 -0.05581710696962
P 3.9883529498108987 2.744224221655812 10.770208442757923 -1.5766248839805428 -0.015022698661077355 0.5550062988149732
P 1.4606433888124961 4.675942729390363 13.025301128869899 -0.5292435880285724 0.054981241331885956 -0.39352122279187707
P 4.780849462311336 6.552390537351166 0.32400371315797444 -1.9007098663574684 1.644185504639336 1.0517868812188338
