# total energy = -381164.8583247522 ev
CRYSTAL
PRIMVEC
9.32187334961289 0.00000000000000 0.00000000000000
0.00000000000000 9.32187334961289 0.00000000000000
0.00000000000000 0.00000000000000 13.64350391656201
PRIMCOORD
 96 1
Ni 0.5891172372024944 8.006314794857616 4.399048043813269 0.4140124007666934 -1.2301656476734748 -0.9790987095254878
Ni 5.755753515446568 1.9593645944936302 1.2234744587693118 1.9156975980155522 -0.28042533670544606 -1.881421707551818
Ni 4.852715662254782 0.03607098957321044 10.151394414489452 0.5938358700876611 -0.6591717151809938 1.9166409357654284
Ni 1.500458083135683 8.47816938853038 11.481800084369835 0.5405001347789982 0.7057079110693201 1.065709404837197
Ni 1.6781982454802762 6.139926566820427 5.731267750280021 0.9702733979243741 0.7622115025830035 -1.198275740943414
Ni 6.676325812723431 5.520357565400642 10.465290793607599 -0.9087867513738025 0.13832200764307145 -0.9023404815278266
Ni 4.128834896182141 2.1646042837127477 5.111279264551981 -3.1419765090401115 3.4544133656551477 -2.9461402092306552
Ni 4.148019311879691 0.8746974933260474 3.28360943816677 0.9437738089719487 -1.1282741149432955 -1.2073730752589917
Ni 2.5725854000484834 0.45738891034941415 9.74850210890653 0.35011843032620993 0.5954559221895874 1.3039231411715997
Ni 7.086311131865276 7.462709740726135 6.248547833600094 -0.014354726059775278 -0.7270015303407737 -0.8317888965615096
Ni 2.8281165968906707 7.984771945160319 0.8844509695866625 0.9517231457260127 -0.5307787937261762 -0.07726962041644113
Ni 0.6776144434341195 3.6083014790047097 13.718543550666949 -1.2348697380173637 1.183925899979645 -1.3996093164220156
Ni 3.2341214760408468 3.4386899903667554 13.576050324276682 0.30867610402102325 -0.15793541099862476 0.5963203270724117
Ni 0.8521264409798492 0.35636030954917125 5.913941048089699 0.13269514837459728 2.217621470914407 -0.07952190678572756
Ni 1.6439683259266316 4.887262525507998 9.002352319189635 0.8674159017364997 -1.2650593742268663 -0.8034471121940227
Ni 5.116095876598105 9.178148870905977 0.3975284995613612 1.0920441860769838 -0.7199286826543924 -0.7383246686630769
Ni 4.418801093795342 1.6149772992894216 8.483585397043635 0.4069421241834733 0.15110604678161718 -0.1467680815278956
Ni 8.23649049573414 5.204877399971992 12.099141158019108 1.593845104513571 -0.14165004357503994 0.8558199693687841
Ni 7.509263177068973 3.7629047512806357 3.62649777610948 0.020168247417758814 -0.3741369047279944 0.03403626364910267
Ni 2.590735087785669 1.2110045885659046 12.517218795560876 -0.8257822853561133 -0.9539126971781635 -0.9044377303764874
Ni 5.2952809293378005 4.045832934388662 4.350177189714158 -0.2067542322735407 0.45109824987539726 -1.1378869554427113
Ni 8.415722157841419 2.6613855671694036 1.73220638407449 -1.8655433457586648 0.9646632508264483 0.44056675421645414
Ni 5.109384127666018 6.1404672354844 5.510243332634927 -1.2815964526499413 -0.07909484655063798 0.11262563131823185
Ni 0.47491123599892027 1.5029470233646656 10.496930164510928 0.048900068134812555 -0.3474822782549435 1.5643589221289962
P 4.487531267234619 6.4900095267433935 0.36024193768156165 -1.6028514217772394 0.5090043781635621 0.2145379899840176
Ni 7.2251138285302465 4.916141689663006 6.2534865621892886 0.31809585467302637 -0.014501021829652447 -0.4575347495293604
P 3.5783223337747203 7.498170147583996 6.576141773663809 -1.2398319671186453 -0.7509631833626937 -1.4549397135632038
Ni 0.4557631756080864 7.441968572151281 1.2624417544441882 -1.4012129134637092 1.2424048700521442 0.8494786005317887
P 4.816145952448424 1.8480241372091168 12.685129974469369 -0.4096636368796945 -1.2897463354505851 0.6724589192082031
P 2.0006511722994835 2.8660566221039967 9.675659124871649 0.7663309240680157 -0.766595233472996 -0.2829786992549191
P 9.086598751097604 5.804012854642979 8.370849455293659 -0.1699692022347073 -0.585827655071204 -1.4766038288001988
Ni 7.452530254845803 1.4562444370455585 9.477119066149045 0.9532488383419195 -0.017836256850472507 -0.7286583492179064
Ni 5.6250235612471355 6.220598060234709 7.811956528594646 -0.01601385892975307 -1.8418727416146023 0.45942785278701526
Ni 2.348235870119951 9.441100279067529 7.588598846008298 0.533489764899436 -0.7093442222703267 -0.361583493543016
Ni 2.9726615676419823 7.062111548215695 10.145145962671148 0.9296150009730635 -0.055114938696272826 0.20315828739216624
Ni 8.210929918551109 0.4194404954499227 1.1955256175912785 -0.1337932665347825 -0.8122099459883173 -1.1255225203400874
Ni 4.221112122124824 2.9977653730226916 2.1791408132748264 -2.291964404602356 2.036930511386821 2.312724519967843
Ni 6.586817183215234 1.000386178327601 3.129137604307431 0.8250865448406695 -0.6677969949561595 0.5359325700129738
Ni 7.9448370390144 2.7495052375235987 11.404632683210515 0.672400555166442 1.4014705380004702 0.025188326340169525
Ni 3.3649632927224804 7.513252938934158 4.153342101657777 -0.6279376968673767 -1.4343696027213362 -0.6200539232439256
Ni 8.617167844539203 8.586498880668971 10.674009406023181 -2.390882199416192 2.416696332265819 -1.1354418363363283
Ni 0.740697425896926 3.9267087127176312 3.7349232835452937 -0.24378737376743823 0.8897078803654805 -0.5498466089909047
Ni 8.775947316150651 8.2256957662017 12.827759300212982 -0.34524516139430866 -0.34343896142350533 1.519170755628132
Ni 5.071984771116665 3.5438873330037057 6.690078372722748 -0.025717459370762162 0.11498718957187294 -1.334917789780901
Ni 6.107337297005737 5.645429142375384 12.966758688409156 0.09010122496347063 1.3650534328240167 -0.23381020795006827
Ni 0.5444412261859372 2.1053358118930108 8.21312988070107 0.39361018296125755 0.5194402287849055 -1.671556183342805
Ni 3.4325468757191926 5.107939237270916 7.166236875398215 -0.13904705873455409 1.1010746717103683 0.27253102155903386
Ni 4.855195280610248 0.8404964715803047 6.350286761162316 2.398496264318024 -3.3925449102851255 3.290038883899398
Ni 3.082193581464239 0.04297756566179853 5.1990894487054184 -1.0241974016363393 0.508316350957602 0.9634923704467987
Ni 4.619957802414107 8.203127510417557 8.215722293726088 -1.1885597992072303 1.8966392958325207 -0.446948746483398
Ni 7.616194388180046 2.5722871000959455 7.1669602527831175 0.21788042409368927 -0.3540491328391838 0.5469201793727291
Ni 0.4685136342043488 4.389082961023823 6.541241611404307 -0.5427318523229944 -0.9763265460969897 0.3699321226180274
Ni 2.938543510570539 4.3684443330576554 4.7253322606478765 0.09961019289517038 -0.20321150922760486 -0.05667534120485723
Ni 8.772377038593723 2.271600747938438 4.929261294450534 1.6588680463521752 0.8567648497805568 0.21746364827124484
Ni 7.98224571743727 0.2552235750161335 5.425598856727791 -1.9139201944001556 -1.1615750430882705 -0.03396401565027054
Ni 7.271900311711004 1.068482464367736 12.74546113987002 -0.6160265472520875 -0.9340336988660494 -0.05314238835093428
P 1.0175384255984905 6.388755336604045 12.034457609873469 0.28591952705079793 -0.35226607279683203 1.3086418868035075
Ni 3.8359509521581847 8.095823424365813 12.212178196283679 -0.44151677683454926 -0.16374661836376317 0.04650045755438443
P 9.140777479977176 9.511200767913774 8.646925129179493 -0.7002679710006714 -1.3134403366334153 -0.16715667248657665
Ni 6.074170071033006 3.867477528391961 8.48724236802427 1.263285055935263 -0.0234101513938242 2.489995912290918
P 1.6615493793792935 2.552515406366839 5.517078130297436 -0.6076786895080244 0.7098954667881063 0.9039463925623659
P 1.7219644416415951 8.74788847686512 2.557120411884132 -0.04017065868161469 0.5756774540110795 0.671360801048018
P 8.525813484074684 6.140746891689905 4.651220569627358 0.656640721229024 -0.1401415773503135 0.5755825803044281
Ni 5.529446392079509 8.353265605278942 4.6207548225997925 0.9026574985476131 1.3851738577229757 2.6196137072917725
Ni 3.963138594421238 5.630747191586443 2.7074850282719742 -0.4293078934731832 0.1276701843561801 0.25968836126841083
Ni 1.9156729733204458 6.863033617391174 8.089820137821002 0.8070535985983585 1.7511266839782806 -1.4259482114268602
Ni 7.515872385392376 7.309905590038948 8.684922950008625 2.0140248104332414 0.5267606737057187 -0.5313732327770655
Ni 6.507907523895626 2.245285099000546 5.175431465907163 -0.6523557207004248 -0.4535299992453415 0.10230162368440444
Ni 1.1845677552722944 1.9234101283393796 1.442200102405166 0.6600556604478438 -1.2252039327928252 0.10317399898702877
Ni 6.600511015411396 5.8930181029812685 3.6654231233535306 -0.5227613227383384 0.3029805962981428 -0.12392434416050271
Ni 9.15472300275829 0.5922326073318049 3.2010521297400425 0.6539564895286415 0.4965370989344868 0.6217963598563291
Ni 5.795576559110285 3.6145937436285416 12.154002248040108 0.3790045172329408 0.5482882633648493 0.398727449583165
Ni 0.14297516725108475 7.5779094536465985 6.66685758579243 -1.3771689851406281 0.17104366624580866 1.4065818910851067
Ni 2.857415245353935 2.8526238023663057 7.314337208708829 -1.1856642228269902 -0.39676286965762636 0.09034059466778635
Ni 8.516034838755573 3.852198977697946 9.243746894843614 -0.3897249889742385 0.29022766750784856 -0.12195667891117061
Ni 1.6683357032995147 5.747811279210264 0.41091937086822694 0.8416261943669054 -0.29738176205412653 0.1327609686155262
Ni 6.7176869655174185 0.09354313636626234 7.582977756277677 0.63629018259713 0.49249892430937114 0.16893047655754778
Ni 5.692765616093633 4.818681502044989 1.579576552422068 1.7033962106715372 -0.78330303314598 -0.4922814089819264
Ni 4.268858758277811 4.7220136736759 9.884978065941711 0.14250364982458683 0.6267002249158498 -0.5443151376497142
Ni 0.991110914178397 4.355235238284367 11.084965132198123 -0.2336898803221201 -0.6192080303038626 1.4181860509829383
Ni 7.636432175584992 7.931655909861662 3.4433882146192163 0.0760753429980238 0.7643352337942256 -0.7752202561378456
Ni 1.6823278354482132 6.2274962466371315 3.0205219306518742 -0.6739696994257748 -0.7907402061503156 -0.09148036469918439
Ni 6.19099178994539 8.0473962914461 12.169691893356212 1.0749851737121678 -0.3778588336642718 -0.7025143438326868
Ni 5.108004490385532 8.100083520562984 2.596290924401674 0.24230307591242783 -1.1003861302837759 -3.1398759177573408
Ni 0.47512843565186136 6.939976361398741 10.063161949465703 0.5747410582397393 -2.006938335900105 -1.0995194114081064
Ni 8.52527281541071 5.3094408552098 2.0633752626318937 0.7937365697744782 0.8948068921549428 0.5433993107036642
Ni 3.1695768238106083 5.387791202118402 12.136142470569295 0.46758030669082057 0.8413729407055187 -0.07671837589866143
Ni 3.431251135300359 3.061545631624554 11.258633500190584 -0.1750417316616082 0.0452843257590962 -0.6504744445173121
P 5.800852739520787 7.443227025076048 9.81431826468446 -0.7739768706490476 -0.7581694713031458 2.0422709497631275
Ni 2.002823168828895 1.8372946607912939 3.5895374798027677 0.626474739168605 -0.744667323051653 0.01765962206329217
P 7.157297198695615 7.836703306219661 0.8558104453936837 0.2288564634892188 0.3907590866657077 -0.24985209190427937
Ni 3.2992813719231937 1.0519734263695046 1.0407787884631943 0.04160224892181867 0.2211405829021998 1.0281661564761002
P 7.6363389568498246 4.3384185784600815 14.105746210933765 -0.5236347264822272 -0.411090342023892 -1.1903431163598985
P 0.34903238477762427 1.5314439907054858 13.006734610798548 -0.9340056738415914 -0.7266613733925357 -0.61270442485739
P 2.251922272944499 4.063125009762303 1.8139312491961688 -0.47396846960535144 0.21349360787990326 1.2027458608996253
Ni 5.5515951635553975 2.1818590715923216 10.40613231989536 -0.14230207533674205 0.732492378252016 0.7587124882908094
