# total energy = -340896.3703913742 ev
CRYSTAL
PRIMVEC
9.01483829205679 0.00000000000000 0.00000000000000

0.00000000000000 9.01483829205679 0.00000000000000

0.00000000000000 0.00000000000000 13.19412707425058

PRIMCOORD
 96 1
Ni 6.670538408623023 1.7226904716607134 11.35355925200422 -1.8060891562570895 0.8771922643969731 0.14720953994068842
Ni 4.62268272953772 0.32417537820986203 5.836091646480315 0.45549457917088004 -0.730933004184696 1.0556497066083497
Ni 2.6396347209868054 1.3795136178697716 4.975742550251301 -0.032092509659170536 0.428011800369579 -1.0447448867703877
Ni 3.369782511675666 4.207062637408436 4.921092799199198 0.33226083331949874 0.04541416646874114 -0.39934194323871225
Ni 5.206159105621699 4.630201104447399 2.4199350050560056 -0.3122795051015654 -0.32478689353995677 0.2798987747780147
Ni 7.2602891119697555 6.25101489163056 2.6179918978655143 -0.31467834435104514 -0.5842556825983938 -1.1514718932159975
Ni 4.902440197849539 4.72687622738672 11.267308887752613 0.9450038247243079 -0.23509961618545316 0.08260723057927064
Ni 5.675696943955765 7.846650236220519 12.384508748881583 -1.224685341285194 0.814600557707681 0.7153431201662389
Ni 1.8755821245002209 6.709942265613678 0.20953368309429496 0.518575566791765 -0.5308140178394859 0.580934845755277
Ni 2.954405820172954 1.7774826571535511 0.4952842157226053 -1.0365194135368019 0.051672488673627136 0.22008180262038224
Ni 0.4410509501870819 0.029913035521937147 4.91391518516672 0.29684748681721135 -0.6157640376193202 -0.76180861071763
Ni 8.56235625639942 2.318021359742567 1.4697593583323745 0.4549101674223198 0.3628947561552718 -0.3895774076527807
Ni 7.020386242549651 0.5400365761112355 4.76851576420663 -1.617554532315369 -0.18552257658827406 0.19069049394245868
Ni 0.8241193637056243 7.335563009446754 2.5563754799906304 -0.0476422844683115 0.0935408467726389 -0.3705995809986972
Ni 7.579189006969613 3.9023340677779013 3.6515403725443876 0.5957739676506384 -0.46155106977760507 0.07376906346235038
Ni 7.731188190845022 3.9686291865857863 12.479110459076027 0.697203987363367 -0.6865249103829661 -0.29543183741660733
Ni 7.823283776069575 8.762954432047104 6.891041346621511 -0.3346604438999269 -0.22342089429594425 0.5674928613177582
Ni 6.841360574286693 0.7568073711689477 0.3848452380925204 -0.3034788760907999 -0.744451350386105 0.8587877937478564
Ni 1.665906006965191 6.558222541716925 9.215200008088908 0.951679951192903 -0.13173792666765052 -1.3014690232041521
Ni 0.06863897669339686 4.853678938992882 1.446062955109855 0.5778304957983403 -0.029151938973607856 -0.2619257352393618
Ni 6.311937166977812 1.9923693510648333 6.888970638328042 0.078121169783459 -1.1752998488735307 0.5043352548226668
Ni 3.705440990556929 4.299401623259561 0.30244330819216153 -0.69747009654056 0.37297013811340285 0.5569050584995828
Ni 5.865026572076952 5.339759005095845 4.745756002654513 0.009578130606738343 1.952817642796301 0.1742796566846031
Ni 4.997114026748153 2.806832921765953 9.328894243728449 1.013981894555918 -0.14163667383860123 0.10126495488977397
P 0.3439521298607649 5.504820689263968 12.462367200419258 -0.20991771760318684 -0.21048798828436008 -0.19109801379352248
P 4.034662875091057 6.27201044938193 12.54506842294192 -0.5221902807262168 0.009367814368145157 0.1529353866808721
P 2.4833895484034123 8.556721982636173 1.4810666696623622 -0.33241278551633074 -0.2729634811107622 0.07938435276659878
P 6.225836449037357 7.52570397298985 5.71161836901883 -0.182779209515182 0.4294091949377378 0.4865594188964847
P 4.75074751846685 1.2156959813485728 12.604058818501231 0.6614818513714091 -0.8779749081992685 -0.8725953890549101
P 4.033247545521729 6.054320140846055 8.089517184381993 -0.11334631153434029 1.1536156790318777 0.45710280419826443
P 4.586100516847701 0.9922542061551746 3.8133792521199337 0.500568331581067 0.939789370402904 -0.5454744480651381
P 0.10920484630498295 5.544386813339004 3.600386575676905 1.687679828377545 -0.45082519871966875 -1.0037972407134326
Ni 1.4395524390909462 1.125042770207412 2.6327032120323066 -0.008880847429397608 0.36630763849156267 0.04789990900507234
Ni 1.916266088489885 6.425397918312603 4.737140521957655 -0.3045042320315207 -0.5106575974962689 -0.3305214820308888
Ni 5.974601928224606 5.632263454369636 9.213920802573702 -0.3316404261266805 0.23803195934089977 0.5029610001829596
Ni 8.650007526479524 2.4937025230996617 10.303345947759363 0.490347168073691 -0.4792474586161037 -0.19360561070672463
Ni 2.3748599134662167 5.21452487530537 6.986118138779673 -0.78273121980291 -0.21298581500554933 0.22570840477854032
Ni 0.4552357978134359 0.14190256529166798 9.326558499197155 -0.04847275078940684 -0.08613272723402585 -0.1379114024682141
Ni 1.6940052570772635 1.191400992881446 11.532986080559123 -0.7384971896851991 -0.014937852256754917 -1.3097916841372348
Ni 4.138198289764509 6.814902024694478 1.538540769466506 0.45780728646445673 0.793590274004601 -0.17432105144549978
Ni 5.637852653942778 7.79479688792259 7.858131533924316 -0.8177141636359982 0.20601606855593552 0.18101928940128179
Ni 5.490946853549346 3.024279829675255 4.834261879379025 -1.1775305379762626 -1.8529212861192799 -1.0858172313306655
Ni 0.6494199162090382 7.268276258456536 6.742291110368941 -0.441612164761833 -0.7406427752732921 1.1363226962793849
Ni 5.042467676832797 4.400692343265734 7.154620786620488 -0.08014411375075875 -0.09312689916367187 -0.29621628099111563
Ni 8.117573163271564 7.144105879552565 9.19162260072827 -0.5931830669950107 0.29721361190737844 -0.22169748384693433
Ni 4.481077653900752 0.4448074331905148 10.269463679056692 0.30680305536802643 -1.1079035217067434 1.6290463350050526
Ni 8.03940550278976 6.868062524505479 4.783833776972249 -0.0839118083233071 1.8473473915759282 0.9708444399364958
Ni 7.104972467702546 5.905566298658276 7.1197486887030905 0.9488838765050045 0.13112420434305158 -0.8270485536630465
Ni 2.395594040914971 5.304520003270984 2.349847343892603 -0.15311767789500727 0.01912437953427674 0.914683833584528
Ni 2.4752040754801645 5.244400048507619 11.27497510600584 -1.4074192993847374 -0.3544430258434928 1.2127716205667436
Ni 1.0644901032190293 3.3378970295946906 3.881025695147197 0.3279490933180223 0.0953295632419455 -0.9089366466881056
Ni 3.762126292034218 2.7413942125700808 2.627755868926273 -0.2626276464023929 -0.10441327071076857 0.8384886771791882
Ni 0.8892831203418495 3.337644614130097 8.17384107774847 -0.17741588832073962 0.4168593832971853 -0.3051241250037068
Ni 3.6592579753743353 2.4984894020889175 7.077329368394347 -0.3000307696411994 0.23486718845967294 -0.6187624581260118
Ni 4.0183009440825845 6.851141673539692 5.818108847595631 0.7779888200219182 0.14554860729849772 0.7248670004962742
Ni 0.6676785691371713 7.240231097372592 11.192102601560775 0.4817457995579252 0.2919472213021166 0.8985108233690913
P 0.08902873732974109 5.507480066480222 8.11552228762174 0.04142638546558672 -0.20289886308319247 -1.058275831377287
P 8.37382894886212 1.5289075135570547 8.00514010347119 -0.02115143726663454 0.9244080028508274 0.11541167870380124
P 1.766980370858856 3.2627673695260317 10.29904496853945 -0.971846913059081 -0.9034992777226182 1.0026291885472602
P 4.033752376450916 6.002511866738233 3.7112176987609122 -0.981455896903755 0.34544365055835996 -0.0933680686402005
P 6.696735527912622 3.784897772875763 10.409981565228305 0.5105591242451917 0.3978648444725535 0.6534499822058681
P 6.151112456679652 7.6545891121789085 10.33962976931088 0.31378180067870476 0.23388734104490688 -2.0885950296406484
P 2.305698076167591 8.322822995338184 5.968073382529656 0.5397753407978317 0.7655212836825268 -0.7116546155710582
P 7.061719274876841 4.053774331695996 1.4788237779626883 -0.1326928343817521 -0.3088707365303326 0.5085027559367953
Ni 5.711368658005643 2.9249633591957234 0.2274560825642375 -0.8434251952488572 0.7298778234473042 -0.03423783813694749
Ni 1.3631607016993195 1.1178940036566025 7.046797914984155 -0.31872320384438013 -0.20949605668473598 0.2906333875866995
Ni 6.827883391445003 0.501793830257712 9.302862095974637 -0.19521974927137992 0.2474712503769286 -0.9562788834174949
Ni 2.6547796488624162 1.5417987319273667 9.190435346560879 -0.5713166059392225 0.6953797896704347 0.11758168977192654
Ni 6.273831446662212 2.0420140640475672 2.5682894899194446 0.10189744626745031 -0.21909501322708075 0.44840527642426653
Ni 3.905308964324896 6.847914361528104 10.310220663234329 0.9907450355151647 1.1382111715513494 -0.5675951912235773
Ni 8.212057680571734 7.261848678947423 0.20529670922433219 -0.07185924803414721 -0.2140682494364507 0.872031289021324
Ni 7.297547437511365 3.6231805936135033 8.324200462587823 1.0960023993937833 0.30024802785832805 -0.008330631352882426
Ni 3.2131226565432978 8.608070500004912 12.591353305794156 0.8061498558371665 -0.8175413855035597 -0.9241105262150665
Ni 0.09595032996241644 4.929412593208961 10.26365812337104 -0.3666809626705814 -0.6879117634281636 0.22083307896410997
Ni 8.548680747121264 2.3427941346248176 5.6297230730152625 0.08855650618417006 0.5534248132604662 1.2951734200034275
Ni 3.617997061751314 2.786378254295856 11.474483387736761 0.07117687725514195 -0.5198184380599306 -0.352515984024109
Ni 1.3448425508402466 3.30596647332361 12.580969113877538 -1.307704976811535 0.8837735171589166 0.47869929942211753
Ni 3.05405583965927 8.414657150260123 8.10250035410012 0.455552428992009 -0.9555180939920705 -0.4708075553788666
Ni 5.536913512619431 7.809536148087249 3.5790655822729716 -0.4171272922465913 0.22587424093244327 0.1252068104173521
Ni 2.910476514495659 8.285483536254386 3.58884217410696 1.190795887626601 0.1825727499313307 0.3412920902838316
Ni 3.1964091468519977 4.27040990418339 9.215305481693758 0.9755336178820488 0.8944790765018789 -1.318330317735865
Ni 7.216855622383626 6.178373326855752 11.45694862630173 0.5714459324282352 -1.0480119875574339 -0.8094539805097348
Ni 9.835188281126342 9.018624253166285 0.1868226016674924 -0.6211191312836464 -0.0660729803696733 0.6980984741531784
Ni 4.53662708578737 0.4213165682748786 1.6687934595833809 0.591541931847162 -0.9610089419033128 -0.12470056020489491
Ni 6.117279769586098 5.621616930666602 0.299232222889011 -0.5816766090173079 0.5667559831517336 0.09878486878039762
Ni 7.936609304834047 8.708622003293348 11.373970648251818 0.02467719103170589 0.11869086367570526 0.15693190943477492
Ni 0.19520730251100807 4.9206321409763145 5.644209917715327 -0.3432101332421508 -1.1738659446404816 1.7036445792369177
Ni 7.887703808569051 8.703573694001477 2.6111045616173194 0.16824373490316832 0.35182024350866503 -0.4029587140556931
P 8.453276716342932 1.581220618594063 3.5976289367262213 0.35401236606397746 0.7145640759083693 -0.7622498120201067
P 1.8960638364843814 3.384828276333044 1.6141428070474757 -0.16081658920116176 -1.0690739504340554 -0.22125345433098023
P 4.681648785034372 0.9649482617889676 8.180754557026926 0.7829181390027354 -0.3457321283330562 -0.6751012419270568
P 8.5506099224578 1.5250671925600243 12.488544487065212 0.9195308772641841 0.9895523007586443 -0.58027715756662
P 6.32058239664014 7.821183318810635 1.3165584965487396 -0.03554087321908718 -0.4516620927986673 1.008737101217211
P 1.8088452786292968 3.155626019644101 6.045865124265974 -0.9305585958332554 0.19923195575456654 -0.03467672544657899
P 6.939568219689616 3.9742454306729926 6.047000092372843 1.066713420621679 -0.2310449865001053 0.10680465376108059
P 2.310259584206316 8.464410041299113 10.264172870622051 0.43980467923944905 0.48214792009235025 0.38265368394975385
