# total energy = -340854.3528676893 ev
CRYSTAL
PRIMVEC
9.46583102820822 0.00000000000000 0.00000000000000

0.00000000000000 9.46583102820822 0.00000000000000

0.00000000000000 0.00000000000000 13.85420053064304

PRIMCOORD
 96 1
Ni 7.742017887994103 6.833364383893657 7.9466861902136285 1.4331208179158996 -0.8251726767965725 1.1444067588391003
Ni 0.26185422634234834 0.6634004519634185 0.1701293784879868 0.10835425763638758 -0.8180579201286622 0.20865761994384063
Ni 3.893693807711871 6.23005965246697 1.5659958242977534 -0.44722308319070725 -0.3183802186826646 0.736755524403744
Ni 4.469235257154177 8.417774089011122 3.102385369337905 0.0836852941347978 -0.7086711074627021 -2.5518240013413087
Ni 0.9075393758053346 4.35758578187093 4.574532213330804 -0.41540516734916205 1.3146140452265422 -1.0214504350188214
Ni 8.166626663982285 4.5358936382431665 5.994989941195539 -0.780451679740114 0.29637363250458637 -0.14874217453513094
Ni 4.244866667697729 7.363668627538706 5.0868740962893355 0.5214917119972954 -1.8540448582007616 1.338277193171437
Ni 8.332591076881071 2.4233568305840976 5.19730626572083 0.8822995037165514 -1.2224369115706495 0.8261471248946998
Ni 2.78638091083741 3.381081201990042 1.3027406549844918 0.6182011863059031 -0.48251661628567866 0.31595978216663
Ni 1.3707280387296716 1.390483227785724 4.389356896651828 -0.4508889620780686 0.060192610329496334 1.3098780732034538
Ni 0.1653661723868821 5.965508610905613 10.118443129052608 -1.4601174011094014 -0.24963457657683458 1.0932739447190267
Ni 0.4679982515967761 2.6745989139217787 10.66914718483695 1.0441831007296467 -0.44744085562846814 -1.2772417752256713
Ni 4.181530793249216 0.48187705283970084 10.388447435786553 0.6570109600842492 0.9146210986673926 0.5854802990341142
Ni 8.757379703656062 0.10575983530688136 4.842736119030508 -1.1578551710345222 0.7634608016090723 -2.2820098644928053
Ni 2.8462144278586394 1.0463056168235474 0.5188884515982847 -0.7408201813914209 -0.9627680906862646 0.7574984133780502
Ni 7.950360825763011 6.921311418641994 11.74247396250353 -1.0299119355226134 -0.3942678711499145 0.6036639119216765
Ni 8.941679430978217 3.3957248423684385 8.130281659717975 -1.3443884482754975 -2.246204424758422 -0.5664137693209664
Ni 2.886983761478389 8.210557585117474 9.511892564215612 1.0774848002055701 -2.578580700609862 -0.3989007419362356
Ni 8.979192518773683 3.945538163466542 12.251199898064161 -0.47736566821235854 1.8093027780983808 0.7122218009284379
Ni 1.7210679055976894 9.531902384122457 2.339018170568949 -0.6004307496963595 -1.0944178285154829 0.40555038604226934
Ni 8.47177665420747 5.219279298953132 3.145914939243589 1.6641930581095143 0.646347566833132 -1.2411856529330625
Ni 0.02057493001065421 8.160312954782292 6.309964517295795 -0.04371903815450535 -0.5971914168234553 0.4695770254058752
Ni 9.268288459818672 0.5033465038689449 11.538775907949669 0.21323032691618762 1.9093012075709053 -0.843902906216224
Ni 1.400043716979118 7.663621876608273 13.626174308528642 -1.7683936985888447 0.5809834396050253 0.05573765988193626
P 0.8118540243088781 4.666238129523397 8.720582232675469 3.37012437649808 -0.09835523744214675 -0.4035539244375308
P 8.404427267463909 1.9302438364844376 12.580860710781796 -1.121283028337443 2.652236121312484 1.7280371491486692
P 8.777636581748995 -0.12385945054122618 2.63944660434892 0.609161444701138 1.6979593559266821 0.8085173276280785
P 6.240699246381202 0.7874113557987974 9.142677830563805 0.7596787088588207 0.7591012390887959 0.5823299263305907
P 7.801898734169755 4.314904350412502 1.1155273449160725 -0.3151820234603411 -0.3552220701013624 2.2489233663514816
P 3.6814225501258755 3.8541266346144596 12.902097880595269 1.4691530289491086 -0.6784806999222509 -0.3790019461297795
P 3.577118559609038 0.6586514446086406 8.316801124382557 0.10668304058155174 1.5521214995225399 0.45420234272201776
P 7.508704088351756 5.185836518438023 9.651791865190704 -0.2820883262301658 -0.20645701274809602 0.21846046496687538
Ni 5.370524344826444 2.042234081679529 7.524354893136267 -0.3151768812540185 1.8219875726549009 0.49276451926593207
Ni 0.3774831369294598 5.775368465927691 6.78393097526528 0.44347312922997173 -0.2825822351474488 1.1406467775760354
Ni 5.840663767369305 1.9629956113449751 1.5705952715245555 0.4126134635366378 0.5386296572291627 0.062374962692795806
Ni 7.203866470545762 0.28279453742514615 13.200559314717431 -0.40657857019646754 -0.8519959676370037 0.6376634087955728
Ni 2.309236773439983 2.606037900824995 8.893413159297905 0.056108412957793695 -0.11673399705965058 -0.8065722880865659
Ni 1.204451253411696 4.96262276034949 1.9574874443532564 1.7930546916706347 -0.099761373761054 2.711561498545678
Ni 5.761453694527406 5.422378166412001 5.680388318832134 -0.27687618590160706 -0.4544494257358173 -1.201917194350743
Ni 4.358286253356387 3.267481765544578 3.4386959282519336 0.5108221480985913 -0.3039445028733088 0.6206946421517181
Ni 3.5365480084378635 8.006938096959956 0.08623466594132356 -0.14413038679473245 1.5141252227844246 0.14232392971361296
Ni 1.4830590538366066 0.3485820620727569 9.760754937668915 -0.5280415973006712 1.6216526136441425 0.8307455428986595
Ni 7.038271225051473 3.717288583347429 3.906552192385442 -2.307560973489032 0.9004360654162621 -1.2926257138809094
Ni 0.5115637916598212 7.541190819947525 4.0965484567339185 0.5600988828465321 -0.9308745844117775 -0.8881793595360962
Ni 9.276514266857344 5.7264490519163465 0.571736185426718 -1.8033439894117844 0.2346445309259056 -3.1509380891087733
Ni 4.837153171974801 4.08441136837375 9.267240592339752 -0.2221543688786948 0.2762377809866598 1.987493339801616
Ni 2.055069748358976 9.15117720011504 7.359710963645877 -1.1723286820603487 0.12870196805480416 -1.1862337221772152
Ni 7.1433798111934985 0.6106549491085383 6.850223028699037 0.7985571310915731 -0.20994625684827714 0.2588126435316768
Ni 6.738308510151023 4.155206317559287 7.90578812129385 -0.5043098009013702 0.060794248469237235 -0.45977289483125977
Ni 0.08432067493646789 7.656749683386091 1.6267049306758041 -0.40989503616421014 0.7310942123529087 1.2168997838025044
Ni 0.46730535277602714 8.061934574399181 11.205235997735546 2.98327645196132 -2.698865648245565 -0.16401092776874332
Ni 2.054747910108902 5.0633865301155065 13.47117322096034 -0.16797711150534297 0.8862407477524866 0.24313302801289097
Ni 6.5637680544708354 6.25553220337729 2.1021395390154813 -0.19370536950938252 -0.41118058774485317 0.07185539137940529
Ni 5.411019169350542 4.398506568784832 1.5738922204216437 -0.23549428052071056 -1.3701215913755436 -0.32863480653113725
Ni 3.1935536263362554 1.7843564508917793 6.010783680026408 -0.4672746025249436 0.7767945426035009 -0.05736953905840443
Ni 8.318941348745554 2.321807396854663 2.5265069363161086 0.3317000757200223 -0.8904568427163632 0.23210633788508417
P 3.1735144623536664 5.889422262255614 9.22682812054435 0.9499961357325768 -0.9276889875949442 0.4207427775119915
P 0.23519182048984116 0.9895579606706804 6.602912104927708 -0.20215015784262608 0.33764600889081203 0.2775405589584833
P 6.105697566305774 7.147090416900241 6.812179854374037 -2.3786100669170587 2.0545302267464556 -0.0677411121007156
P 7.925087057301266 7.786649280614747 0.01425080839668748 0.06527002485240371 -0.1908002800474456 0.5556485603846624
P 1.9249051078655526 6.338396086940625 5.498690748420141 1.395959121263938 0.4570171864629935 -0.5829043107768219
P 4.765657751303808 5.537463738306339 3.465448259497844 0.26032368085956453 -0.33063049680492734 0.4084217940527934
P 8.365503770866646 8.721068776382934 9.959646243299606 -1.1546808870715985 -3.0803471662640884 0.5301018222638096
P 0.562755951666547 6.036123709304344 12.27404568090402 -0.017342862153821744 0.19552468210630844 -0.2871798818204602
Ni 6.596415705191643 3.627845947319332 13.509452094474364 -0.8120016866322531 -1.4483625745663185 -1.1200445279446516
Ni 6.218861574530549 4.605779867663787 11.442613478576629 -0.1272706349249163 0.7747785406147366 -1.346488782447952
Ni 4.727112887941927 9.625140818335257 6.477752995806035 0.19017421642767246 -2.8202584842334653 -1.187551412547374
Ni 2.6274685419476125 7.111177054524265 11.82342385506201 1.705708660854798 -0.8186423318772224 -1.444744518197757
Ni 7.637051289315346 2.610572033818694 10.004838013108614 -0.6564334903142243 0.7586361265269194 -0.8650440590702134
Ni 0.9973104761651254 3.0697216267045944 6.368775724581495 0.6273969938725582 -0.8045863680047884 0.902083371211698
Ni 5.707072496095676 7.6614920646592495 0.01681888831566544 2.495044530458419 2.0187687528761296 0.4911071861681671
Ni 6.88692205503843 8.404569254927177 2.296070749262665 -0.24114607948984923 1.892569239528205 -0.27727419267097414
Ni 3.1383678322793385 4.267991692548681 5.3704561908440756 -0.7792967402000643 0.5128864868267876 -1.9999644756854331
Ni 2.542891342994174 8.956304139694844 4.790657957252989 -0.02768563884072651 -0.7270789205459285 0.2785939399236621
Ni 4.139152268379093 4.356487745488323 7.208326770058561 0.4363228913384357 -0.07304915457719033 0.7875016446083598
Ni 3.179430606656509 6.949576389663256 7.366499857556274 0.03592036804569297 -0.4351095877566248 -0.8132777251311993
Ni 5.732308401233881 8.359048074203384 11.308865074510315 0.8185911669243128 0.7008446694397479 0.002116789232686677
Ni 4.17820828660874 1.725725094392887 12.696141278792355 0.8534895214633946 0.3382029098355466 -0.5472551941146446
Ni 4.90393460886529 5.748911468605379 13.314718181768171 -0.9613668394633638 -2.119848331227975 -1.1449240647951509
Ni 0.497613050102174 7.538928486366118 8.375889680513172 0.8971301409714808 0.8481537110727779 2.2421503092937063
Ni 6.302634177858802 1.805427390440784 11.622053448322658 -0.745361006684568 -0.05149688232771132 -0.08969216245051004
Ni 1.837970917021861 2.6500256169454914 12.984475220451138 -0.7100042244518288 -0.3690857154573321 -1.3896563189743616
Ni 6.563862712779682 1.3183062672910433 3.836948044725181 -1.081427586903402 -1.077096563628216 0.5389214774379687
Ni 8.833077953239794 0.7423947038611509 8.718530987122787 0.31062397177601336 2.0856824839795434 -1.5623598894210964
Ni 2.876987844064306 4.00678208928957 10.750665027248502 -0.3423464996902749 0.6527128469295275 0.524416084732942
Ni 0.10754414442861872 2.9937867313487483 0.715757855752032 0.4820949553672278 0.8362045091307018 -0.28864489640176094
Ni 5.548358909654453 6.950882674325324 9.020719118864195 -0.7884984613039904 -0.564877535182098 0.47981027309810914
Ni 6.6062601693115734 8.449664473261166 5.08118039901228 -0.18049041348100528 -0.8100201374258501 -0.394210792659734
P 4.7978794396348095 6.478140148289212 11.182528416026603 0.07886010483201257 -0.2955706769873168 0.21914540684904196
P 7.723285008673581 6.260019007216566 4.791752207303243 0.16020955174478216 1.5345091857574154 0.01768996108059534
P 2.233140958959099 6.971404595683024 2.7019296074347348 -1.307419327250316 1.0847620505932736 -0.3600164061662122
P 4.799517028377838 9.721692293357652 1.0351321500474266 -0.03478599733093364 -1.644478867510039 -0.26842702669298935
P 5.958210455293627 3.2614047021166974 5.612849615470882 -0.40878766203264433 -1.516467497764356 1.8004882651305443
P 2.2839346074855853 0.16203136016625572 12.32130194842895 -0.11621694821391597 -0.2920194693009487 -0.28956972220887545
P 1.017794534199288 2.8336627361057283 3.0303844732976772 0.05193165587228476 1.611217791464064 -2.511049647637424
P 4.285787454611631 0.6729363299965124 4.154320315788494 0.3408879128668774 2.014126626118428 1.7593917522005507
