# total energy = -381177.5853391948 ev
CRYSTAL
PRIMVEC
9.14127364153933 0.00000000000000 0.00000000000000

0.00000000000000 9.14127364153933 0.00000000000000

0.00000000000000 0.00000000000000 13.37917798850303

PRIMCOORD
 96 1
Ni 6.636208270872878 0.5619141006342707 8.371164448545738 2.0490918293397034 -1.2733164720293362 1.2125091109339763
Ni 1.0514933016700547 7.798777190516042 1.6545230236128146 1.7434280297824427 0.40749876801789175 0.34493842878716724
Ni 2.231905987775527 2.5684145589899208 6.726836687604752 0.4786576475509046 0.12612443713561505 -1.267157908627108
Ni 2.9442306075546862 6.194200258704847 5.854554402321466 1.189329073273087 -1.3518248499488847 0.11058160430500953
Ni 0.7816785499906794 5.075390616753829 12.291745258859889 1.1014773064654255 -0.38996230179602515 0.3495993245979463
Ni 7.351732336482883 4.386604777015882 2.4034355917861285 0.30633871413709823 -1.2209796102988326 -0.1034658191958347
Ni 8.064404324666533 6.75926809880095 3.121202011859863 0.7523983731473236 -1.6201708868922933 0.6118454192912043
Ni -0.47297681955584314 8.723115373594545 8.131877894856897 1.5589596054902957 0.1389966651125929 -0.23051765324172557
Ni 3.099522566910063 8.841988498121111 0.15405605913729037 -0.1335019605466088 0.1057049929389986 0.1604440363530914
Ni 4.419970426394686 3.361602886825217 5.7969168427424975 -1.1725796217288904 1.9951544558912995 1.970367735864923
Ni 3.8583762703434994 2.9661605234066726 1.3394964458340892 -1.3021639923886479 -1.9078917288178883 0.25178504726093415
Ni 7.67912705771627 1.656343965354255 12.5378155518375 -0.16587497756067562 -0.7542966186113009 2.266754995216264
Ni 6.519702736261136 8.875198745845275 3.4754291140854723 1.1982168626810201 0.2758796263162926 -0.3120663606494948
Ni 3.3349469324173837 4.269404505595157 12.838485759109536 -0.5963514374206633 -0.062055374569847964 0.9495652188427454
Ni 6.233023248543691 1.9855943651695334 1.7939603576852874 1.2023403979310907 0.16827381681015535 0.6214117228234008
Ni 6.178989179097633 5.059649343266075 8.683327065242166 1.3360130797276086 -0.3421066157653269 -0.011759968749405552
Ni 3.5829131255816136 2.0685148598312137 8.839904287694162 0.27510006783779073 0.4418224810004262 0.348780942461709
Ni 8.283548081531757 3.9684737720197503 8.020108454202184 0.07249636739751386 -1.0382137705200893 0.8531218537113308
Ni 8.16126526187689 6.081195831959429 10.993858063119621 -1.017070303673255 -0.048543456126342206 -0.2607617968382477
Ni 4.029510057198456 6.411342076607344 8.576762665890547 -1.0409633082407685 -2.0830473603495414 1.4578923684336247
Ni 1.7473819111524769 7.006411577322963 7.756525308873914 0.29304405391072114 0.7070261156601114 1.991253063954364
Ni 2.2493749620119368 9.202703162364292 3.6549637315648456 0.20863370868444067 -1.5626475958648443 -1.371052587830245
Ni 5.18787399089251 5.678732970260632 6.734730177533135 -1.7957692623883204 -0.9049380670516737 -1.9435413597006979
Ni 4.493685658337337 0.21148154116404308 2.4597083591863966 -1.106046671003663 0.7079095467063292 -1.0157688112530119
P 2.502533398695937 1.7944411886872944 12.615855520416071 -0.6405152764220711 -0.10633517032382978 0.9343070071320941
Ni 1.1938137934998083 3.298784053255041 0.5912255950817051 0.3352883072919129 -0.2604668913056482 0.7529223639715936
P 4.214136364185773 4.014829171471782 8.06662748245528 -0.033577321734813134 0.2122417377506732 -0.3381923683125853
Ni 4.228460740234152 7.8383589060804875 6.872736902255531 -0.26365531633595884 1.959026856930807 -0.8489520386043573
P -0.04650074570549003 7.886460288828779 4.450771034344533 1.2407917599287535 0.6002322605323082 1.7810278424130876
P -0.5538057907715312 1.795209055686697 7.270954556400487 0.4635274767776855 -1.8202628766543105 1.4300874304062146
P 7.270237880534379 5.515963448934882 6.665827826247454 1.8744275356221716 -0.9810087820640073 1.1029022118374103
Ni 4.724082323253331 8.641904297133916 11.645223184420013 -0.8556505336704553 -1.1412643565553764 -0.24933555727917703
Ni 1.624687734176502 4.662890636419984 8.008829950584769 0.5271350263260018 -0.7461397938321215 -0.03183668489462259
Ni 2.051850317689416 7.274031509162379 11.822296970991777 0.54844561487832 0.254066129985627 2.337156170647646
Ni 3.6082161714666903 7.054604372809279 2.2025341609209965 -0.42952438035936347 0.1995739124750176 -1.0585123728681252
Ni 1.6988326059878665 6.533652320083617 3.9743113894699706 -0.38760331464554537 0.9955979927320918 -1.244580023326592
Ni 6.733453141582938 2.5275256412717315 6.417924707872461 -0.5543753500991937 -0.2208539048997164 -0.29809395762980273
Ni 4.70983107739537 6.677727936483434 12.89435722458988 -0.7282168908051135 -0.5964571097605921 0.1961612872490428
Ni -0.039152075695730953 7.242448408175045 13.056244612993698 1.6187295264600767 -1.3624113672154794 -0.4763698799579925
Ni 6.989235123848231 6.178230453372033 0.3088653592358995 0.8867385133245116 0.13345105270401533 0.5130047575722068
Ni 0.478918647527411 2.632504029618632 11.86797317380029 -0.053449892289024074 0.2209197251406453 -0.9245406717739496
Ni 2.9004896124101447 2.4153256466209254 3.9475000334074966 -0.2159019602110798 1.060912497669186 -0.1472931007934302
Ni 5.736798341453554 6.454004401443201 10.476953766433665 -1.3315488733086682 -0.2235399363723118 1.0372696614392654
Ni 4.913754613379579 3.9855862365778663 10.293444523105004 -0.2687414726096146 -1.2703777011159865 0.6772409139778789
Ni 7.856330650376028 8.0438181760635 1.3836341722616559 -1.381039523839628 2.242939380853905 -0.790549173185432
Ni 4.555279561217989 8.564633109682127 9.248236761301488 0.5328529026463855 1.491395899507709 0.11621900509644502
Ni 5.224740748137639 4.785886475431439 1.0560008637820242 -0.49658055057791256 -0.0025834444564600666 -0.43471183809757385
Ni 4.308584005112294 1.7412298338834538 11.426299732253426 -0.45198425202477643 0.8570710681670658 -0.41049127498731236
Ni 8.538946130297349 1.074547594199738 10.151370845667916 0.7407808435130533 0.9889912860488516 -0.14839173317424767
Ni 6.389540138588591 4.665002270668341 4.872214836966658 1.026659747133903 -0.7605356575424773 -0.9677074369694108
Ni 5.31141830633211 0.8922806499808238 13.525412263756076 -0.45499989892264864 -1.8905758632472605 -1.0078942936009418
Ni 2.146279676068333 0.11318268158456521 7.985442915688678 0.715535181572387 0.9988707499460926 0.34592418973920425
Ni 6.159116049851189 2.597666635157639 8.812958554906793 -0.8402514255065657 1.5506336021231037 -0.2682318799630477
Ni 0.3777713670311015 5.45099641602114 1.6569975664311274 -1.0153597487400512 -0.35242985206820593 -0.5474166593931733
Ni 2.445994620228018 3.175038629791789 10.682899352182968 -0.05923513151223347 0.7068073147810859 -0.11648717115616714
Ni 6.415949278603759 7.455037871723941 7.822070070291969 0.47699182981270755 -0.41704733093827523 0.7835791696255021
P 2.706228402835085 7.673514315601589 9.9173295548869 0.04440320870572353 0.05806425113258388 -1.680545531325609
Ni 0.8379942813778193 3.0707458369800698 3.037769605865248 -0.7122179442736959 -0.9958458470768399 -0.8482483276691133
P 5.564997241611021 7.78845669239312 1.2409644837726501 -0.3069411236077875 1.4731819476028434 -0.5370373730413782
Ni 7.478083022979822 2.363046701744931 3.974659672001843 1.000793163779786 -0.04723347906566704 -0.37259655682406795
P 8.424451675922137 2.0454879911229376 1.634480780801026 0.553324540237176 0.6351583829855318 -0.22077034404697463
P 5.757503326616017 9.005745277017521 5.473153949590807 -0.6094056995014601 0.9836788726970026 1.250702334174246
P 0.14201517328475316 3.979397594213633 10.09598112531696 0.4607969652204 0.028665229145176437 -0.23309261305775342
Ni 7.292058101100737 8.197391575944025 12.242389693345906 -1.0632252049627624 0.9086062599318804 -0.4397002924511008
Ni 4.257731098949476 5.3429831247718385 3.888511393560531 -0.1809390709826497 -0.9155279267523782 1.2930833702436182
Ni 2.204418177451674 0.6932358118249622 10.344834022040024 0.17570301939469096 -0.06225154974105409 1.2355456810384657
Ni 5.955466752081053 6.223635160348614 2.5889915663191507 -0.4328184777296029 1.291291825560834 1.7677115849201555
Ni 0.686887197169187 5.9730819866983005 6.065263505849205 -2.092172205468945 -0.44479261937234366 0.05119297793404732
Ni 4.362928877867634 7.821538962284048 4.361277963818919 -0.52799917409851 -1.1003383077649758 -0.11105674416921518
Ni 3.360597346706952 5.373679522200339 10.9627786463188 -0.4465034314158633 2.482539713123189 -0.666530212428594
Ni 1.1781547914762764 5.920400825775 10.08256173537502 0.4992832942210562 -0.43208802732148166 -1.2077399716801072
Ni 8.001091862311027 3.9879264026712833 13.312161886111264 -0.08680018561469569 -0.415835055797729 0.40877737761999916
Ni 7.192847856523158 3.250015357519173 10.756511287731652 1.1972580983121768 1.0130691529336617 0.5152989529230223
Ni 6.436389166825953 0.8593418980885923 10.87209446781673 -1.5675584029029004 0.2162035506118986 -0.783928839655437
Ni 2.065937020618933 1.3129794387880525 1.6902718030719075 -0.31498430562723817 -0.3106157442458973 -0.45989682200363374
Ni 1.1391306936137793 2.2886824393623084 8.74529941685824 -1.357261447583424 0.083617674121656 0.34637516123369383
Ni 9.116766047347816 0.2530734228376378 2.9263210239210005 -0.6929066455395938 1.641421568740954 -0.06935987865106119
Ni 4.939459875311962 1.0879304190464691 7.268077797534867 -1.881274383340676 0.3844575699277121 -2.1010651370832005
Ni -0.1929238412177663 3.194079903122213 5.807888199560152 0.6265243614596178 1.733395585247105 -0.1554866923478161
Ni 5.16353992003049 1.8944284415380779 4.452857987153624 1.9920897009230465 -1.338663115755946 -1.7687677940988118
Ni 6.860937346031378 7.117633455676911 5.366227555796613 0.2052809901621239 0.12692302177751044 -1.318434190303581
Ni 0.7616902406943252 1.363283868522726 4.967956882263601 0.902935177689032 -0.6704375179028003 -0.11969616501176805
Ni 2.5078993264179528 4.925181205632594 2.4642305473364496 0.17661961767168938 -1.507226181671746 -1.1353125098473158
Ni 8.65745360387182 6.275319922427452 8.235954953606878 -0.2722679977056343 0.3523311217068126 0.2896759087694366
Ni 5.614268707406022 3.128345003209068 12.8751843169167 0.3908783858523913 0.19615357393955896 -0.9767800886946404
Ni 0.6607888604633005 0.31024569158006365 12.625194245732617 0.4436428220386166 0.14425662795995153 -0.044382639880433235
Ni 8.000095463466563 9.26696631719525 5.793090305528807 -0.5311490325814013 0.502673807959844 0.07844641433336168
Ni 9.027538073762473 4.728726090344956 4.155425619062401 -0.7073259062887173 1.5058293013242194 -0.6618258649743892
P 6.981894680984894 8.055473300161577 10.04550209725266 1.4095214333294048 0.9722552042410932 -1.3751619820129284
Ni 1.7969276151615505 8.389925084770427 5.8431287241958305 -1.5544938564094584 -1.1707669940001837 -0.17013246728544892
P 1.9138536483682034 4.236642180287312 5.041916186216777 0.20850052554068604 -0.3008193269807658 0.05445622206635138
Ni 0.45634518599973456 8.24448741857405 10.315319591314177 -0.6849783918314526 -1.2999554147731032 0.01421023006211101
P 6.413846785629205 5.032499760072913 12.047896295416267 -0.8691873918146256 -0.6100659587932783 -0.8038052668643899
P 5.212445734873394 3.4885568973931163 2.8616995311569893 0.22341009566266687 1.2119740643661128 1.8067239616276107
P 2.177085768782462 6.1575254682095695 0.5527033531509603 0.3050680749547907 -0.15626599371600183 -0.5199300239371304
Ni 3.5027441543344597 0.6183111893582521 5.428855336744317 0.11547904160662693 0.9981436419720809 0.9861113933978952
