# total energy = -381173.03741720645 ev
CRYSTAL
PRIMVEC
9.15798294514449 0.00000000000000 0.00000000000000
0.00000000000000 9.15798294514449 0.00000000000000
0.00000000000000 0.00000000000000 13.40363374331814
PRIMCOORD
 96 1
Ni 8.975491972670635 5.872309398577231 1.0585034976786432 -1.7676704472695748 0.10139839514384473 -1.082051079420014
Ni 3.8084480107571403 3.124758782281582 9.16791127142387 -0.07576295396392758 0.7230721133793805 -1.4735534720096493
Ni 0.48677885480913013 7.967674248268007 1.6746370322060986 -0.9690968611177698 2.2138800015941036 0.44298204852616613
Ni 3.9357989237727606 8.311400828033234 4.783716431618844 0.527023440448802 0.1537321715505546 2.0705011482534146
Ni 2.883006344356489 8.59563714956824 12.389783138115078 -1.5163510267911497 1.3084464829632498 -0.9680172549003456
Ni 2.8613843462528012 2.7995221703991766 0.6640535969066826 0.5369962353907978 0.9198769477496932 1.2370965704653534
Ni 5.187814267588702 3.7399279811884028 4.5250134827703645 0.9702790543513291 0.4106308858889702 1.6878783175415963
Ni 9.068124971746789 0.283427671627105 4.060630475637036 -1.4545692175976626 -0.09568951768452552 -0.10932664885198591
Ni 5.053256021871853 1.0014804000960846 7.471869285313601 -0.7392116992537204 -1.024782841826164 -1.206715901290967
Ni 7.231152615277338 4.8151118292889254 5.392550137815741 0.8819050964916102 -0.40891827407323766 0.13890847627416078
Ni 3.1019645623408456 4.81461729820142 10.46191138877067 -0.020038920928746134 -1.3594844233766714 1.1651948992290448
Ni 5.78053724991266 3.142836640924817 1.184206889534224 -1.1566038151259241 0.12144245827891342 -1.9179725100926583
Ni 5.09189355257895 3.2820471420574537 6.993560649075458 -0.6321291092409048 0.8536389025570652 -0.49687519900019594
Ni 2.265337016062838 2.246334201126306 11.802047593388437 0.7865955878543227 0.001193506087468912 -0.8106701123050232
Ni 2.2896697771647005 6.987339631154309 6.6845931941736545 -0.8275653453984652 -0.27435341947975334 -0.834025242091196
Ni 6.126269427977214 2.1844994992219866 8.931859677979737 0.8615046784583873 0.884320133691006 2.657306593856856
Ni 4.502961975259196 7.822547690051515 0.40886181877948846 1.0849520551168927 -0.2749321748013588 0.5765698839183618
Ni 7.103600226633475 8.506960399192126 2.830070454632328 0.010445106592723947 0.11787530975294538 -1.0957954255892999
Ni 4.704996240471162 9.123942878753132 2.706917561070638 -1.2310063984072155 -0.285197818393425 -1.2312205713005506
Ni 4.21722374449547 1.2206309357255818 -0.20381182973205286 0.9091125101443375 -0.2473905177376643 -0.2466112163694785
Ni 6.5942240485203 4.5404547580785515 8.236385956848599 -0.15784799349114106 0.9945998904848806 -0.6760327526023905
Ni 3.7823569168997047 6.9891529118084925 2.766482914762296 0.6038269198621019 -1.1147789086703381 -0.8058876033147152
Ni -0.1184456902472907 3.6323949436053877 12.189036485327245 -0.025470890577594843 -1.506919449064605 1.370874153270852
Ni 6.140793989176896 1.4260353387190627 3.509728338946411 2.937311812305748 1.3896113246690391 0.05157144431938859
P 0.8058869443997155 0.5601223940776615 11.464382682638384 0.33769665962308937 -0.2576065390387176 -0.4943619456600389
Ni 0.23467240118898058 7.597224673811308 8.080166333700724 -0.4346290485757805 -0.9800680154172928 -0.3043039430952566
P 2.0938354665127505 4.467969321826672 12.755059367917488 0.15342209650930352 -1.0689261120022817 0.060925117620146685
Ni 1.8140957146807977 1.2537828345546158 4.771278058969785 1.5997781821685546 0.34658342058975794 2.209746953262336
P 8.90576308933244 2.1074442294022377 8.702014449683793 -0.4477992674091514 -0.43551196540136605 -1.5341518024179965
P 1.939963034433903 3.7512106163699968 3.0497558164749785 0.32502317792047897 -0.800344304898983 -0.2195431565080929
P 4.716599405061324 1.7881694645191968 10.838701034928844 -0.02951446451934917 0.39080742340513985 0.677373325790685
Ni 4.276714002725693 5.807663195860615 8.864922147891015 0.7779895913528666 -0.14369252792636542 -0.7087204726433988
Ni 4.584541288731304 1.6522924692356677 5.158482163511488 -0.8888419328207595 -1.399348606561461 0.15454489725983708
Ni 6.772163660191054 0.7092381697333594 5.761109504560198 0.5633608414272556 -1.133035797997997 -0.39489470610063604
Ni 5.7569371274589525 6.183900615637742 3.8752582448807456 -0.9632874535248444 0.4101639735548807 1.53164317706353
Ni 6.026438254182933 4.917479764402445 12.909643375283355 1.2914304080212275 1.7313232760991086 0.18204747355548004
Ni 6.843907299811676 2.897329429927928 12.121442327850113 -0.8668116924935975 -0.7094005294295589 0.09273429171094351
Ni 1.1058447755258278 0.3244178881930919 8.840299994523132 -1.2345077266922546 1.928617134290698 0.046508685084500546
Ni 7.001406293198893 6.811634567360429 7.469898487350062 -1.0793992436194637 0.49858472549213484 2.5619562046793036
Ni 6.274784439941424 7.186782187148424 12.146493990625478 -1.3523496121041032 1.4598453783949374 0.8705379923052491
Ni 1.4162729287323916 7.847576457869125 10.453869763808854 -0.3982582232562302 -0.6805645790344731 0.6280032599979894
Ni 7.598012260358074 9.295078108979142 8.177730906677274 -0.8557466929286875 0.26658020329223764 0.34716500412484086
Ni 1.6061637083511808 5.545277822006844 8.727749297998562 0.38285371577570193 0.5181472210050947 0.3795259369540496
Ni 6.273264214746502 0.38021747923323096 11.975235127627593 -0.44977104642354154 0.43907294327974705 -0.07257607159551371
Ni 2.914363278497542 7.778992322418674 8.763979194948158 0.31837250537318074 0.2115503681106034 0.6586734353883367
Ni 7.969341001192559 6.41125670412658 3.2619490323419296 1.2036238926292044 -0.17923751491051065 0.18732029191864513
Ni 5.505541333327514 9.172727454737181 9.697274747657037 -0.0020427414616416436 -0.9819027546331864 0.6821908017839865
Ni 0.8614786492234404 5.242872061997583 11.08250028207722 1.0413949964615485 0.6960935279080076 -1.3374179304949354
Ni 3.828687153412435 5.250445714022891 0.4586574360979936 1.7024204770218294 -0.7070492555885629 0.647906940900452
Ni 0.20716181995074365 7.757461904146005 12.499371227106169 0.7605626541256708 -0.12048626501323119 0.5819581448134686
Ni 8.762614655465969 5.487316946954648 7.229853097475172 -0.0010886050784884476 -1.2510016105822197 1.4502572204858701
Ni 4.019740996885171 4.498950778660545 2.799040460488014 -0.8590906697002559 2.254318569225124 -1.0396957543822545
Ni 8.097076549498462 3.884239478908821 9.881507725315446 0.026811720876205435 -0.23269846294312826 0.6332423969097416
Ni 0.49255662634814606 3.277999313526395 5.214629757909501 -0.43347282348415017 -2.8540944589463044 1.2049071302170022
Ni 5.873051195208489 6.167077400679472 1.6025252416647786 0.5853422307943532 0.11158741986170459 -0.7057493058302168
Ni 1.356535404958417 2.998451879339583 9.725274365192917 0.39528319978830634 0.42672856278178123 0.271691556376874
P 5.820676689848476 7.6064833947273724 5.616243033063801 0.2469817123350198 0.7044586120432513 0.1235240233982905
Ni 3.1164982815236293 5.82969730320389 4.797495532994027 0.591722166178768 -0.3278727315541321 0.02168725516544652
P 3.09321868847849 4.872953650560797 7.258375635846174 0.4509894922116749 -0.9417220686492427 -1.35108334379717
Ni 4.287960005974879 2.3384726691149553 2.6012161201080115 -1.7017579037371662 -1.9326751064101555 0.6830300098558302
P 7.640807515393455 4.0156382204555 0.8261801191553111 1.6314788557059454 0.3945990292370882 -0.49942573333619145
P 2.8744802620885803 9.053875150040165 6.918673989654249 0.2624430411954125 1.2918957776934203 0.0838498447371201
P 4.127017610941332 7.665039538681196 10.74616236307864 0.6813755049715426 -0.5539300350316588 -0.5979267523275831
Ni 8.984933853248739 4.286439780779957 3.432482583078142 -0.2867566782401126 -0.37659102269544176 -2.2085231081575643
Ni 1.4344606831728504 5.92123134430781 2.8182749723970253 0.17359394347148813 0.33030936602008276 1.6013118452042616
Ni 6.761631979623819 4.109589969098334 2.9464675040597137 0.3900733734525927 0.4211526113559005 0.22718884597880873
Ni 5.591195949279988 4.010601329749432 10.354132917240522 0.2907411168091573 0.45711411705217403 0.6781616260199352
Ni 8.674615595839398 1.8301862909909117 1.964061351168356 -1.940065999557588 0.20359434648832034 -0.16064021152429753
Ni 2.926305288462476 3.397684994685689 4.979892335040496 -0.5925593173680828 1.008645312834353 -0.519349211732996
Ni 8.135549236509725 1.4396349436254483 10.629028096011547 -0.029972635102690312 -0.4439760370083192 -0.43236544935258436
Ni 7.387635072540238 2.5502510283473887 7.161709461011924 1.569847713157709 0.7473273863823194 -1.5154647675314545
Ni 0.0714057100441602 0.9324017335581283 6.681711176891473 0.9259915452878632 0.28914806129042464 -0.8991751964259675
Ni 2.7112117393471395 6.394515911016228 11.977648256174955 0.4972189554928598 0.7138642216278672 0.3136733001252985
Ni 0.833490021267282 3.8364714390490864 1.0495689693643877 -0.5916730581083873 -0.7607320898239995 0.6558002276055996
Ni 7.983224503575106 7.325809528619021 5.637729493017581 0.16846407844409053 1.1444921194640547 -1.073839233033183
Ni 1.0710078078060363 3.647871935047671 7.397412135299874 0.3268499467165726 -0.5640180153952802 -0.16138351744822527
Ni 4.3950992502845105 3.597228288493926 12.357359298942649 -1.3740844326780335 -1.9510070719501238 -1.2252985493891608
Ni 8.004800711763284 5.867080190226022 11.94538559750512 0.08390280946224259 -0.8475482162782952 -0.2596379676464496
Ni 2.3196255398911565 6.696701879431043 0.9239754733060304 -1.2919916798413362 1.778903596981233 -0.9773087075046006
Ni 6.2915618649841845 0.9497469535532083 0.9471735603015624 0.6893096722169548 -1.3292261387127624 0.6693463417211505
Ni 3.010375573338313 2.1801769311978694 6.8814660201093645 -1.2142767443573603 -1.3495414532313468 1.2086002627978734
Ni 0.6128778715347147 5.503434997214067 5.273177659678534 1.2181385413056116 0.7882454647529199 0.031110605361875453
Ni 1.2190923945644554 1.095505412603734 0.15732957069983072 2.1228009860983956 -0.7471774910680163 1.5381362409870414
Ni 7.94841500980462 7.920208421850635 10.302743810862278 0.3070789347372324 0.7711525138263752 0.05132976062222773
Ni 4.982867763750318 7.889391808712597 7.737931589382801 0.06818128496192774 -0.37027922154480103 -0.9614583707359055
Ni 3.1640648457551217 1.036024312356614 9.262259560735018 1.0255559725467627 -0.9945520679660808 0.6791993232558303
Ni 5.2466817829679915 5.637370500079984 6.398680045932682 -1.7798754739761993 -0.21244254090756962 -0.03212259156615758
Ni 1.6426949029448317 1.5252804015948196 2.5248156460800515 1.2846820335538005 0.6277888299943383 -0.6093591625342408
P 0.584708831311448 7.44523878625146 4.553590053241668 1.2301443075172362 0.7518586985937696 -1.77603013208818
Ni 6.325235768850028 6.248024813317547 9.97494387950964 -0.017671192027517952 0.2156412503505254 -0.10360183055306675
P 2.799274904855424 8.942404179723315 1.215356853257173 -0.2778064110253603 0.17745779730226857 0.8067985451647589
Ni 2.1391400089180626 8.521475802408707 3.4413960480312626 -0.8589515730192303 -0.6541662915466024 -1.0093253696205133
P 7.726709396889681 8.177685116761765 0.3889999850279944 -1.4088388054400833 0.3124723378386618 0.9494060675570616
P 8.714672613927297 5.986729239452908 9.567661812815237 -1.1512893448915464 0.9424419775344026 -0.9102646214709098
P 7.546315445747607 2.7043798839530897 4.842840370524988 -0.510355749985134 -0.4331550351334153 -0.3595464085083292
Ni 8.326484026202136 1.2114912685898427 13.036052847636098 -1.9150221692150826 -0.6382578478464621 -0.37259629971375186
