# total energy = -340894.2914870899 ev
CRYSTAL
PRIMVEC
9.03610566438165 0.00000000000000 0.00000000000000

0.00000000000000 9.03610566438165 0.00000000000000

0.00000000000000 0.00000000000000 13.22525402338724

PRIMCOORD
 96 1
Ni 6.382752625300788 1.869199779315528 11.513509439043426 0.02276814693445111 0.21473442226553982 -0.8035643544981773
Ni 4.733961535078141 0.2587506926005444 6.037844472518102 -0.7451596893070394 -0.4382154803754582 0.06303522198461402
Ni 2.906255552922113 1.8307601858668106 4.896887941668749 1.2221929138806435 -1.1122350592025618 -1.2142829150049474
Ni 3.3780938818153152 4.29258391834188 4.8605853872070135 -0.26779350687404846 1.6460248718409198 0.013051948087951714
Ni 4.913536062724207 4.528606998003492 2.431383803361131 0.9800474465920025 0.7065520042371704 0.6817406016204453
Ni 7.26437834556666 6.072073240732427 2.4746432555652658 -0.018976283992186673 -0.2003971797072613 0.3578420242227128
Ni 5.100447908160672 4.597037426115185 11.50727994780611 -0.3091599856359772 -0.4537883951130508 -0.6322926314019626
Ni 5.448545806238939 7.8067163707661384 12.431606688946749 -0.48927090429037673 0.5472708778439285 0.0009644207957983389
Ni 1.8999586829590247 6.516486988968165 0.473494647059434 0.3832568647513916 -0.9684471433489129 -0.2874583322928275
Ni 2.425218468473952 1.583884743315703 0.2835430556812323 1.4040010177318079 -1.6526524044597668 0.2856613882934048
Ni 0.4882731978552445 0.1678429516765146 4.6765289511569605 0.19099516966707106 -0.9382631635663646 1.1210405733093338
Ni 8.658965711553453 2.4101823886670255 1.1560712247754619 -0.7345407761406123 -1.2841994374904269 0.7479642486353699
Ni 6.954340524499678 0.6846792795015278 4.903249360048603 -0.9063699144021939 0.29798674262797714 -1.2098073957320972
Ni 0.7980914415548549 7.248095283179592 2.4543165358983905 -0.7821529787019369 -0.28488131559427066 0.2155515188501965
Ni 7.644599599242057 3.8816037610229874 3.772027425819444 0.6139467819049234 -0.3276511024616293 0.08138827057050499
Ni 7.54439822365371 3.8495798025880426 12.379869562418783 0.8168546438491804 -0.2912458243597178 0.8806203162419156
Ni 8.116745155727468 -0.03206010285755753 6.8240064473896 -0.4031206935548541 0.11608119396700008 0.7978364508754646
Ni 6.641989460385474 0.6761609427022551 0.4378788366273419 0.9453522092026622 1.0760256991615404 -0.3871060632941527
Ni 1.8554648987226623 6.212919019548873 9.526374926795146 -0.8305269991299504 0.7147818483461302 -1.7828795509098456
Ni 0.14521835034202968 4.713467647456682 1.291173654838733 0.08916508630244643 0.745583149997703 0.37043117374163304
Ni 6.26851817763302 2.11351800396678 6.85511233749018 0.85537593985283 -0.49678855282366047 0.9272300456806548
Ni 3.358584929710054 4.129066550441553 0.3543165459887993 0.07277173254608757 0.17806817719275783 -0.09142868552564254
Ni 6.016230107795645 5.605692719653758 4.819640081660664 -0.20125438550123406 0.8277188402571939 -0.45016365387626983
Ni 5.207805879426354 2.812768003834094 9.468937824821138 0.028903570408227643 -0.20835628665333794 -0.6557806872215739
P 0.1876464808260702 5.632864289352934 12.460000843740804 0.3946931316127912 -1.2740206971852124 -0.6598114056475217
P 4.002633360141963 6.081244887970427 12.747822495448828 -1.1275441787558065 0.419346154274781 -0.5718573089340411
P 2.3521796264791273 8.49977663826101 1.5401472811225139 1.2516649551978314 0.07447817371423303 -0.3614382262144033
P 6.395005584566529 7.744367241759051 5.794989193372103 -0.15089007411606917 0.15837609808046918 0.03598593117630577
P 4.596269357134663 1.0809983553981017 12.582122908033252 -0.15407104294721208 -0.9898919434862501 0.9933341363985796
P 4.077804723070943 6.166717411344056 8.133292976010175 0.291030365914802 -0.9895489583245346 1.681305549420085
P 4.864352539653834 1.0684923851740715 3.884521519538406 -0.1505036373109279 -0.03309523989207203 -0.2024088108206514
P 0.25787238313105326 5.30424823506297 3.4335141250075285 0.7682173424574511 1.3722211542170497 0.8645588919036788
Ni 1.2956058646616282 1.1143777296810267 2.649891295824579 1.428236750350721 0.0592130200250464 -1.239620879549104
Ni 1.6691042557310427 6.854681315250523 4.602586498596815 0.8319763299819672 -1.3667899558991492 0.5331768616447076
Ni 6.124699520056671 5.761592650488438 9.20525251492338 -0.8748767288899191 -1.1192351446694788 0.7616234912900173
Ni 8.679595140759712 2.208216391212327 10.19415759233575 -0.6058915157006145 0.8163867030738262 -0.10504601919876101
Ni 2.1989182384951835 5.585750034477144 7.1305942833181915 -0.18082877065703054 -2.0032745138952723 -0.3863663569146507
Ni 0.3699128643462244 0.09117611326192983 8.981150769450036 0.728575559696113 0.20837402726515084 -0.09111012584395922
Ni 1.4267378299008826 1.0710315308626208 11.27709509600703 0.14224216863308406 -0.26696792564895955 0.37302258861789306
Ni 4.313692261147757 6.892054648232162 1.6302770133498028 -0.8084815892941367 0.014236455314356126 -0.1824051140052149
Ni 5.524241263295804 7.824436173952066 8.231742250712367 -0.23871921521591144 1.1604926086573693 -0.6508092021489114
Ni 5.268347787302802 3.097441476332542 4.71564986697193 0.496457651846803 -0.8175966642215274 -0.22154193210567652
Ni 0.846635208344982 7.453549217416426 6.931871344182428 -1.7543027677134175 0.41321278768353353 -0.30541337410935143
Ni 5.250935211709083 4.523329912302024 7.0701942423004995 -0.04477833265695514 0.6546506873821887 0.39515747284371944
Ni 8.131609549526983 7.16563178298848 9.432410271328637 0.7035031901085175 -0.1846121489588627 -0.7090243770370628
Ni 4.6050976323578405 0.420852102745015 10.441099902068693 -0.2606710368966543 -1.2411977371179204 0.11595855234620674
Ni 8.214524855000757 7.107547695849703 4.626960489985761 -0.44391998695940327 0.3701031009782529 -0.17835896896029926
Ni 7.2637638903822435 6.284331362526122 7.068051781650126 0.45800294741503056 -0.36686633920851014 -0.13679862902000955
Ni 2.577449740413431 5.177534925488131 2.5026145206147503 -1.5411883975498037 -0.25736048446618254 0.4910899597769865
Ni 2.2844720868196915 5.161315115840635 11.567785711259946 0.3560556217462513 -0.37710909998244085 0.259298839139476
Ni 1.215130307714219 3.217730114787955 3.886717293212134 -0.6970448360776834 0.9213669020316584 -0.4098163604074749
Ni 3.9196457658229638 2.438664193685915 2.383666840238272 -1.546957438823097 0.08587741669011016 0.5478465478417404
Ni 1.0709592420173955 3.262702812623937 8.258734905519608 0.2598302861629138 0.9975247774411594 0.22453521040604554
Ni 3.833097945876604 2.7168135979027515 7.128306341366801 -0.6141511846062455 -0.4804391649313596 0.028899713753485712
Ni 4.066961396287102 6.657829753595536 6.070642825207527 0.5141694673042694 1.0702247762090473 -1.7912952857773667
Ni 0.724690251723337 7.402115704038405 11.276539375509358 0.49880866857748285 -0.045120032267090035 0.6141573552538326
P 0.13489640685437806 5.680990588061884 8.067748680044115 0.5330323656470433 -0.3185439979540385 0.5872579597598273
P 8.362518193388885 1.8652148567224662 8.002826068146996 0.2972830316927332 -1.3981034213004502 -0.4053290140600826
P 1.9024345759080017 3.211034360498933 10.35760899666481 -0.6642696985291915 -0.5416496750024091 0.351844154768065
P 4.072581854003393 6.2417170882656245 3.7395335898905326 -0.13616433787012033 -0.4562574254788335 0.603923079120334
P 6.852087952928054 3.881947133037809 10.312061602509285 0.750949556515939 0.6522292224248897 -0.10487838327264519
P 6.381867086946774 7.884164832319724 10.406013607427878 -1.4021446812493594 -0.6898226072976313 -0.4413614822036076
P 2.3227761386836105 8.591240099682711 5.689861332981631 1.057675478789127 0.957400141506132 1.1012585055864
P 6.947220073244955 4.007829120892554 1.5964729421011776 0.32120174729185974 0.27225719907235696 -0.7147965036341495
Ni 5.415374262386036 2.9143428674817278 0.4279680359469109 -0.13897686761825095 -0.09896921687706181 -0.538240392210544
Ni 1.6091677669333597 1.4671653665933044 6.795320426382949 -0.49429381142626483 -2.7062303161407524 1.3062803285498663
Ni 6.825485657885029 0.6902870866699045 9.276629617088581 0.7172832746117452 0.13112394723273546 -0.2308899489794798
Ni 2.8163372655671086 1.4737255792975283 9.106923420426376 -0.14027424627343582 -0.0599522121839161 -0.12016744822123175
Ni 6.380556851627061 2.157388296913071 2.6068830473576026 0.6627478625680264 -1.214701747709921 0.0027045434153566326
Ni 3.9231065942881402 6.792648449941297 10.577664374026652 0.8256413889028749 0.537554678997429 -0.43831883872254185
Ni 8.040986445931031 7.022644447132224 0.3520882423347199 0.11090222086922191 0.20872781106014376 0.8969121114234037
Ni 7.719843251016263 3.959946797036241 8.123440006405925 -0.6238717543281191 0.3129719031828997 0.026464621949431843
Ni 2.8714213656290224 8.317708145454661 12.505033179874097 1.1966975978230165 0.5112466372305194 -0.6775975259863491
Ni 9.174086986525488 4.592456120549012 10.400022669379807 -0.7897140788786464 0.9348513096713383 -0.2947438102106472
Ni 8.678302977651304 2.363574155707814 5.757653812034207 -0.45289390832323934 0.659258361357529 0.017720042987582386
Ni 3.6804058325488116 2.64832895315714 11.490841464401807 -0.5595396679089525 0.3858680771219935 -0.2901811305406293
Ni 1.0340286782127626 3.2579136766277403 12.611470371973718 -0.4945187829528774 0.6375001437448312 -1.0714686759184773
Ni 2.8707436577050327 7.994513754556617 7.929174578188885 0.7624092204161063 1.1492404327823176 0.15789478756867645
Ni 5.84388446467214 7.968760853444993 3.4894702092649763 -0.7210432558748098 -0.34962117897481726 0.6378750105857466
Ni 3.184721220836811 8.523397018438477 3.6167238779578765 0.7088181745635276 -0.046105021888178666 0.10587699974048864
Ni 3.405446173627555 4.309906132879067 9.191908897705297 0.39998677591156273 0.30807960808760493 -0.11777349406775846
Ni 7.096207383254935 6.072732876445111 11.530503642945403 0.8598218914393256 0.37232479121992007 -1.1426344974300258
Ni 0.6139446444482696 -0.3279979846632858 0.3843697297807809 -0.5838427634306913 1.5818902461445403 -0.6252161841711555
Ni 4.557269525135447 0.28586352761297434 1.5887362284409068 -0.9248666876548007 0.13435556679615573 -0.14013206426861674
Ni 6.00190788033532 5.557376662726092 0.3048592289171337 -0.20558078079072983 -0.131698845899599 1.18240869200417
Ni 7.900339461438954 8.606014132425695 11.81332561739551 -0.6748988961082635 0.4032199381368798 -0.921036258165117
Ni 0.07342468370621624 5.080125706546623 5.686594780787999 -0.08250515778376759 -1.1339945623668404 0.35183412746573606
Ni 8.071537519144503 8.84322997803353 2.4131326771627952 -0.7561143885463301 -0.7464771225668821 -0.4700704201025259
P 8.432891384216015 1.5513637990698323 3.496214758524525 -0.784204719024643 2.341643259884722 0.4037824955085691
P 1.8491848052936875 3.118567891349726 1.5834464921915228 -0.4320499749946946 0.6489173844428373 1.021761281391021
P 4.917060143928955 1.0053751871864618 8.235497656221836 -1.2622905532324777 -0.21855456734257844 -0.49692482129120874
P 8.394632512880362 1.5573185926952917 12.321572223186589 0.8229260468542408 0.5297434104831263 0.9698386243798006
P 6.233792423607769 7.848192095714331 1.3084244841412591 1.2045734010266675 -1.0871745166895082 0.9371035960406248
P 1.8952599080193602 3.4338195453786065 6.150496698085995 -0.4933684713985181 1.0771400152716417 -0.5561324419996164
P 6.944825505246857 3.898347664798369 5.8891128842981075 0.9017864087965696 1.0895885254476396 -0.07082566456331027
P 2.2268398049635745 8.449626251885745 10.041882043478571 0.8177409031088756 -0.035941193981299385 0.459555379503815
