# total energy = -340896.31785013765 ev
CRYSTAL
PRIMVEC
9.01799049570323 0.00000000000000 0.00000000000000
0.00000000000000 9.01799049570323 0.00000000000000
0.00000000000000 0.00000000000000 13.19874064291717
PRIMCOORD
 96 1
Ni 6.472527289378771 1.8582831593255826 11.393706836498936 -0.5524418805219067 0.6847806739983496 0.01421023006211101
Ni 4.709555269849136 0.35716923040024856 6.003961529831262 -0.6134089071235822 -1.1422411186463488 -0.3044659225944175
Ni 2.5286084165223235 1.3721864265768886 5.015864838387223 0.8866151003727699 0.6910320542247002 -1.1318752020309926
Ni 3.417178057691221 4.339835702306866 4.960271633400935 0.06219190014771225 0.6797562242005648 -0.6272933784151584
Ni 4.834346220033289 4.595026792660326 2.748255097990768 0.8873316668238203 -0.5812804020201539 -0.9713535183624304
Ni 7.24857946520241 6.17556486781755 2.543317660549305 -0.3285535596712406 -0.6742316948379098 -1.1028654450622037
Ni 4.861310011119474 4.683998285254405 11.102318434760583 0.16030931054744002 -0.009484028231035278 -0.05791049916353898
Ni 5.674822918773216 7.75059295088325 12.320192618009594 -0.2033945717726884 1.015828460846354 -0.2907642567376089
Ni 1.7706102573389992 6.426075621189829 0.4552254464525954 0.49977334648359734 0.464072293537562 -0.9554718141351674
Ni 2.7552124775302302 1.5675611870726025 0.5053023467541277 0.4096564377908429 -0.12031837197679922 -0.07688549760414501
Ni 0.5224942435189109 9.081657341556125 4.886068001770982 -0.4486968395227563 -0.2744961157052047 -0.6255398860591614
Ni 8.639162592052147 2.423593919131482 1.4420415832697988 0.10585643091519834 0.12224515668586688 0.31415641040930414
Ni 7.042635620040139 0.8173644913236119 4.878729161240568 -0.43832603781139357 -1.1676986394875049 0.2959044061776516
Ni 0.8768868346966057 7.586564724774016 2.4148681116883406 -0.6069744643521482 -0.9685646427633834 0.8243442673580061
Ni 7.457057365647363 3.9571572826606345 3.67443697322731 1.3960079722240022 -0.03159320142524882 0.19845034039353565
Ni 7.593968494834805 3.780783427789867 12.62562473608859 0.15737388206819994 -0.06608172212042168 -0.08455818365805438
Ni 7.978134882885458 8.691845691559 7.0202646914289355 -0.4935461346269629 0.7216760043628022 0.00974988029791224
Ni 6.822226918388823 0.8699745451087928 0.5505735600088949 -0.39505102917284224 -0.5642370733846218 -0.9035725541627149
Ni 1.8532150487602195 6.310501057122759 9.397503434868005 -0.40907434003512777 0.8111149131519257 -1.4825212227258984
Ni -0.057152415514315026 4.917997098332769 1.3093292303799249 0.19444199056509096 -0.4095353388319463 0.15164520711453883
Ni 6.352741323827671 1.8396249373331697 6.988455534138535 0.5912796793247107 0.8045642565176014 0.19290369954369357
Ni 3.511488200560557 4.519627375512639 0.48768119364964474 -0.23055879089230613 -0.4588699234010162 -0.31714403228271837
Ni 5.983111936188701 5.625223971959165 4.627940653766131 -0.3235602202217073 0.4504729575865726 1.1866227300855174
Ni 5.249182793195686 3.058415348399692 8.947941286342541 0.7322270404057712 -0.7960053112039968 0.6315606383319446
P 0.30406138354886125 5.439074615570864 12.293200871153386 -0.45573960530215063 0.15065687505934056 0.3802849266072612
P 4.031880350533585 6.280786778985978 12.375825502153333 -0.601315466294158 -0.9560377139409663 0.7587729092150997
P 2.5632194634082017 8.404334123863437 1.3943282982337144 -0.2850247831506704 0.8340352693935249 0.11387673011651356
P 6.277747716244826 7.782949500186671 5.88498808520888 0.34134299812642505 -0.0006497177688569456 -0.8884495824783474
P 4.73912526014064 1.2099708165239507 12.53132000401345 -0.45851511116475874 -0.36261784834480126 0.8049347524831427
P 4.025080785824895 5.944334577770442 8.279200490046751 0.14660173115336042 0.7904794962897611 0.013983458763285595
P 4.895551320401829 1.0164447440458517 3.8570548846024497 -1.0780504429010531 -0.8534990345450915 0.24985826255186644
P 0.19384981833093987 5.672730745016696 3.4956859761056003 -0.21383479326940594 -0.6042511518837143 -0.015961151314946704
Ni 1.3969858999839144 0.9990490406996144 2.620042722275478 0.619366667368914 0.3284139487695828 -0.23877115149976944
Ni 1.679898292611264 6.541632149276239 4.8071398450072325 1.0675549426863677 -0.5447445118776489 -0.9433300365663109
Ni 6.320781566098763 5.526467959857223 8.982442313746395 -1.62664569598336 0.6605765659483205 1.1586077329298303
Ni 8.561454569380023 2.316730733723025 10.16169695340792 0.40911239236191477 0.2946383949810345 0.4726870317897666
Ni 2.220761280633001 5.323058169977633 7.067041007269751 0.06351036184881964 -0.3138933865559046 -0.22762799039875636
Ni 0.40938609980704904 0.06216281094156722 9.36074430268556 0.06535101460198423 0.6820673888322446 -0.9538358211936413
Ni 1.5890059680769322 1.051100880883379 11.366029722377665 -0.2901073398799004 0.2758937673836797 -0.30442529916446925
Ni 4.099136522413439 6.796309214180899 1.5520267969304413 0.4894616801449441 0.42162595144789317 -0.052421451024509715
Ni 5.733791557539958 7.817831086782443 8.039181266624194 -1.0484958691723878 -0.10379440617984705 0.3637676456785284
Ni 5.350130176947776 2.9773706693055315 4.836810836790431 0.09200435552345446 -0.5159129323579373 -0.02823714046882234
Ni 0.8404649753524981 7.340716272402258 6.8751706378162085 -0.7210406847716485 -0.0683949436346306 1.0094261568644356
Ni 5.078607506106998 4.562282469772723 6.953069841883325 -0.06876646804143642 -0.22220861915539797 -0.018095681159446254
Ni 8.127184227056848 7.178897453923833 9.08264751689434 0.7754408567890838 0.16567725972757272 -0.16927217616768267
Ni 4.582636073947143 0.5306789715422624 10.432363816966397 -0.5811433622216572 -0.8343124343143116 0.752729274124181
Ni 8.021195786710384 7.314221416813225 4.470532534358023 0.42335656098575475 -0.18450904772209514 1.1626394797970427
Ni 7.2330775398254366 6.0740132787133625 6.8184564966319225 0.4086159123414705 -0.19936565311895343 -0.10644444220818443
Ni 2.2292472095333684 5.215175951661907 2.52152658871631 0.2036095159969719 0.48794395794883705 0.9023595076912201
Ni 2.305972271259541 5.253565536495982 11.41490452456823 -0.04368021449676993 -0.650380599251925 0.30482227749257185
Ni 1.1833406910799702 3.3195583123708374 3.744509463487169 -0.5514234665597213 0.053535252913978766 0.16528413805421213
Ni 3.636504600502956 2.5342626964591255 2.8852843628515306 -0.6620598353620663 -0.10952282402319201 0.14986317551345157
Ni 1.1506504761343452 3.3212446765625154 8.110493730554403 -1.0333672410610655 0.05477143931392503 -0.17264417796370912
Ni 3.7701151452296813 2.471335159937589 6.797284960734586 -0.562400020175883 0.5772522546973671 0.9565313657479332
Ni 4.121943019957573 6.7382874643987885 6.047953090258226 0.05466191031925424 0.5731942825779097 -0.10862293791674196
Ni 0.7033897187410535 7.472261697343452 11.353939302742463 1.1784790179324607 -0.9630478267102124 -0.04888566995710936
P 0.03361455895443216 5.599261177799591 8.029717787572071 1.413143089242392 -1.0703990970033823 -0.7452579054478004
P 8.413712833806459 1.6688783084282148 8.026668805041556 0.1833955029429422 -0.6333534685663093 -0.4160199181150255
P 1.6566679495216283 3.17771434247298 10.460265479046884 -0.8637939887131962 0.2976501852241648 -1.0036491451713423
P 3.972442776269692 6.222341183658366 3.7897148454125285 -0.4954711195638176 0.31800946560680715 0.21992162289343414
P 6.770950625373424 3.869745902393616 10.428350811269624 0.6024796618055881 -0.1484002178146799 -0.4222563859430405
P 6.5228386574288795 7.631131632984024 10.321559769783807 -1.9213653378242912 0.32426238849505445 -0.9869673136402873
P 2.428824353522782 8.327203252572422 5.778765177113842 0.5674843766773258 0.9760550376031578 0.38090250558660205
P 6.790600826302118 3.9842383076211063 1.5613712385102088 0.1052841033514961 -0.024501841796106188 0.24177162888899006
Ni 5.115409924643024 2.709933148084166 0.9230751775679163 0.06438248004112783 0.39408917948020517 -0.5705874410826819
Ni 1.3158690769671155 0.9293760474113668 7.067899519949151 0.14760806093068773 0.017065440122718996 0.9033167293981669
Ni 6.776523743397258 0.6855602500599516 9.229034750320364 0.06498051863644293 -0.14604920108400007 -0.17150800747673686
Ni 2.7772434279059985 1.7463428453614334 9.134426111971111 -0.07416218513571099 -1.2832288460470418 -0.21407981940067644
Ni 6.515534085261719 1.885301058353746 2.8658686296714118 0.11202245051659417 0.7095352552352103 -2.030960409846315
Ni 4.017992645425651 7.065360955671304 10.258206584118701 0.9519311479717606 -0.11919351434373665 -0.23334843782230136
Ni 8.226688732356164 7.086968060501571 0.19062588678802653 0.029770289283897116 0.6509084467309371 0.2614871050400464
Ni 7.5851579182825635 3.7487966160899693 8.15539610800468 0.8647959476151492 -0.3079585091287083 -0.6745168301784964
Ni 3.1341213772185936 8.311872669011716 12.472268399735674 0.35807676594133814 0.23361197589633315 -0.704363995446916
Ni -0.038955012827756035 4.787109986685652 10.093578661652534 0.5903093449916414 -0.5544188017426194 0.06638716917598243
Ni 8.785353233288982 2.3505301614792193 5.788980756559471 -0.2833250268507443 0.04716945859695102 0.21443308897503713
Ni 3.356838684394345 2.8379074488547484 11.598049988377664 1.4364992474698293 -0.2309925359956151 0.5754162299298929
Ni 1.0616429115789474 3.178985879109486 12.732257060944601 0.13739872449785367 0.5349740627544465 -0.41191052393234223
Ni 3.0952358029163776 8.289111261419231 7.955329287140357 0.7089855533793273 -0.4174065140499069 -0.28108611021789653
Ni 5.815476513947536 7.853100446962399 3.5578262420713433 -1.1636476093465828 0.9208969043737752 -0.10033910064139494
Ni 3.18555999405993 8.342786339862364 3.5766738418606825 0.5623028324763865 -0.09327345204386517 0.3336857386914834
Ni 3.255440401125764 4.108497196375801 9.199059852263051 -0.5922518134299929 1.147941768575552 0.1298887892740537
Ni 7.30504110265746 5.866644591078979 11.350362767777654 -0.5338605179752935 0.5428354677803942 0.4126193770739088
Ni 0.7835154646206043 9.048290777335763 0.1996943778637011 -0.8947462141203364 -0.14080775017940264 0.44796690333526723
Ni 4.653553549900907 0.31509760011450416 1.5417444843563721 -0.047763897647840316 -0.6481105722708258 0.4546173187722493
Ni 5.894483127227155 5.509640389901765 0.25174080725326775 0.12930154931201604 0.26739472877373305 0.2606970050385833
Ni 7.971425498080067 8.898267490208752 11.263026236830374 -0.12803373834318596 0.8454980186174857 1.2105936390788183
Ni 0.059711721169920094 4.734787606791993 5.677834025744346 -0.050856420530235 0.9274339341613448 0.12919382008955815
Ni 7.885574230140108 8.81833202392516 2.4309309560638295 0.1973825612506536 0.04443611882618799 0.2345820531190863
P 8.609917249412517 1.7084402320051684 3.5681870111612817 -0.5110275792411779 -0.5030355621746369 0.9005741336560231
P 1.8715305871200993 3.250155858792485 1.6278536668197634 0.20695195010664358 -0.20964003846176799 -0.3267365610671599
P 4.696262752102969 0.9630492233029428 8.31743676904522 0.7283477599560231 0.4483497405959827 -1.5037281958208166
P 8.41621983511815 1.68063776781831 12.521063843611337 0.689342068116787 -0.6515594500513746 -0.40384934419076257
P 6.377369455418431 7.657833902350643 1.1716750187893052 -0.4754352839588651 0.6300999946260181 1.2168144231775495
P 1.8241139939658662 3.338360822208528 5.9253499045280895 -0.06693789947312988 -0.6618698308384472 0.7631018756077567
P 6.944195237599741 3.984526883311661 5.964866738153394 0.25148319974979916 -0.3374917427011349 -0.30670303945505245
P 2.363930895109343 8.542742239445632 9.93979938155315 -0.09731676887530337 -0.1410517478694087 1.8191657869353897
