# total energy = -340872.22952441755 ev
CRYSTAL
PRIMVEC
9.23227815483327 0.00000000000000 0.00000000000000

0.00000000000000 9.23227815483327 0.00000000000000

0.00000000000000 0.00000000000000 13.51237229257868

PRIMCOORD
 96 1
Ni -0.10693562955428072 3.29227649421593 8.607137370764105 1.2181675947713342 1.5312351429918338 0.14589236379116163
Ni 0.010369694643382265 5.136027035656405 3.9058047586546545 -0.819599039363537 -0.33810700768763063 -0.7678427327268519
Ni 3.8688691840822016 5.401805854561042 9.962577034204775 -0.4190972714887685 0.6793849569040751 -0.5716616479834671
Ni 6.666655636636631 0.6551427574987723 3.1958518131583467 -0.14543753564193018 0.3288685198084982 -1.7104166078534286
Ni 1.1548102606595685 8.123619891499025 6.809397733164642 0.5358551798078192 0.03716478197575535 2.1264015589654606
Ni 7.981008893318537 2.8295270242993973 2.9206320667765704 0.14010069681004905 0.23790391840346772 1.5480000211549987
Ni 3.267340111352882 7.418513891949812 2.969073829413525 0.16622876135566858 0.10208487968790807 -0.13998191184399764
Ni 7.157406605710373 1.267693323697883 5.293499231724583 1.0593996605690852 -0.06876029739384931 0.0720155711063534
Ni 4.602410599854365 4.537258414047431 3.7947736905820295 1.1618709770621345 0.0730794935944935 0.5587541958931797
Ni 7.256921330212704 6.781440548941805 0.4938733254914704 -0.3370744526580582 -1.080802037504261 1.8676657914183061
Ni 7.112971651723017 6.624750326819758 7.436980294394338 -0.24831354377256593 0.280653136445536 0.32011494198558416
Ni 5.20014520632796 9.114501824088887 4.996875372040441 -0.7412361858829171 -0.5712726400751645 -0.1294804980920415
Ni 4.3236788949234946 0.22355684195255388 2.015397053913555 -0.10497274275866438 0.47553144321709717 0.7991803664978687
Ni 4.000576861951228 5.415598877884772 1.276610781012736 -0.9121476974262355 -0.23401383932044215 0.6847431358921948
Ni 2.071233871224075 3.004072472062739 7.310085403043827 -1.0382775338784893 0.20422555231441603 -0.45891877436108064
Ni 7.239546183027121 8.376215017427569 10.45057678443617 -0.7620952887201132 -0.3799074886631844 0.8361363748969277
Ni 3.441571661664412 2.5493366194454015 3.0148936251000507 0.9604381570015073 -0.877595670482979 0.29843565723993765
Ni 8.325566740349936 8.624166307524895 8.70079236842335 1.0003288225488578 -0.5006251529609315 -3.229184214505871
Ni 6.846721986640662 2.7412018207263578 12.240452367639948 0.022517978596857995 1.5928485449282566 0.29905452177085917
Ni 3.0430419174773724 5.285423758162826 7.054012477994768 -0.7487188674132073 -0.7324556114768095 -1.2113274319210492
Ni 0.23129626059531327 7.542974231593185 0.49720710107527144 -0.4466618113705985 0.6236364983888615 1.77107175964164
Ni 3.1191066558737637 0.32633333027032846 9.442216303147186 -0.044317076749820446 -0.7858479110550208 0.25775951967681415
Ni 5.16525642778688 1.3659709229489552 13.504872848788793 0.9452624777023335 -0.8564874277494539 -0.2115557674272421
Ni 4.748788367456597 3.861344877516713 8.289083547399212 -0.7442698305029182 -0.6120955876287975 0.34345927313847946
P 6.872840101087001 4.339623039019934 0.4459070251712313 1.4932949163026348 0.2712022754452813 0.19138083514126394
P 0.9826836697307767 6.949412614773088 2.818153781038017 0.5195777828040342 -0.43157509224080515 -0.3067531759666975
P 6.679109979651163 8.93446317091884 7.142396768146973 -0.6921990779496079 0.5688236643140396 -0.5987263654107431
P 0.4976770240251897 0.568396273462786 5.820967893610111 -1.1933446221903834 1.9815402075419744 0.3260963563799997
P 7.546861020628854 6.199391582780804 9.619849947899676 -0.08872259944838914 0.14440498061235774 -0.32713173962304953
P 3.919231260542004 1.7070758980104266 7.892441804062042 0.48043839360041135 1.2809711603611165 0.327074661132869
P 0.4087941908612844 2.613676364788823 11.03504091452052 -1.2455192473114098 -0.7170145943313909 -0.24610959414271164
P 6.009889844666432 1.1375182039759368 11.294302668388864 0.4404155733505705 -1.3797228619107333 -0.9494438627735325
Ni 6.026157118492677 7.613416512690947 2.690475069285774 -0.5929814925071658 -0.6644098236514815 0.9482346729567797
Ni 6.172064039917191 4.051963721268416 10.214731780472981 0.6048628173257841 0.4277626604732504 -0.19253448912973292
Ni 2.170388536884621 1.4385181634294555 11.679256347785042 0.549743507754137 -0.060127304309199665 0.9397415478841041
Ni 7.842967872745307 1.8138287284604167 9.927390976312273 -0.5660754121449413 0.2591214330213473 0.9555594887529673
Ni 0.2885890081455602 0.2863908027550782 10.650775963062728 0.2902302386110098 -1.1655224577717929 1.13054645591724
Ni 2.97605250834954 7.196643787186846 8.484094185792882 -1.1919333436651536 -0.48109068247242953 -0.6335925811603089
Ni 8.915416981416259 4.869112646558449 6.272970068713287 -0.658806104311459 -0.49059065154306486 1.5339741391895518
Ni 7.234293016848272 3.879172406324024 4.9244084523784935 -1.41988940682729 0.3334808217695289 -0.18359064967288383
Ni 2.490296201670802 4.978902896468618 2.9634384469257036 -1.1989097749829867 0.5307119450439828 0.6770375397178211
Ni 5.155008599213024 5.124495920441319 12.833226471147116 0.14761397446795868 -0.7074760587133364 0.19287901695334525
Ni 3.5676199531228323 2.897439661226677 5.6310110041906105 1.2172322274412584 1.2140443166315802 -1.7139593308993646
Ni 3.3466546116033244 7.401277228934147 5.869720784015478 0.1730776659567019 0.618227154447832 0.452225421501305
Ni 2.0226997858071765 8.26322116705332 12.19526682945164 -1.0017858667103585 0.7633325035613241 0.08458569446188013
Ni 8.163604887493051 8.076738383843136 5.720408998466606 0.376439584719242 0.40690304341542183 -0.11823732107805442
Ni 4.437715992711117 8.837819684872786 7.511487547493065 0.7739750708768348 0.04690540630228696 -1.695593683907983
Ni 0.8948994776482126 0.9566578780643819 8.533401012877919 0.1557386604576221 0.26107778541676974 -2.23303626280758
Ni 3.00698987190899 6.206786637454371 12.107680208118158 -0.36935336729642193 -1.071956157077857 0.9439239613965678
Ni 2.057053092224578 2.592137460227738 9.533465369161073 0.7368611967436728 1.5124478350820016 1.4003587929935304
Ni 9.33835686862066 2.6412531791582876 5.000280236164801 0.24753501373532855 0.8596673681393323 1.5917224017436136
Ni 4.2765758125957385 2.1490804392733978 10.344640087360888 0.7608665585193348 -0.7590796418222411 -0.7948596276353279
Ni 4.7601071402778095 7.508187008110044 0.5107314651093622 0.1876275387464188 0.3376665777161023 -0.26473363700180214
Ni 4.247678782473065 9.11936723459197 11.6383010393738 -0.16012316267856297 -0.34832637142279366 -0.3029553994871621
Ni -0.278726165564074 3.031436944038331 13.185237536203447 1.4588110235931522 0.6223969695548055 -0.520566886190181
Ni 8.763942996361084 4.736786406063793 10.722364893087402 -0.21040417032130215 -1.4827150839042595 -0.20906308291237544
P 1.6599451188486865 4.14420341071111 5.310591871203536 0.622641995686076 0.6716495359330303 -0.44686569985128843
P 3.2086228233080893 0.3216691834275251 0.12663546433886858 -0.6825013910458697 -0.23512918387180798 -0.2843632383072716
P 1.7849224660597491 4.307365459707277 0.3895550467486203 0.06291283747413681 0.5870239893721504 1.604160113286334
P 7.188510150273723 3.8229939947277085 7.967597163075978 -1.4781166659002993 -0.36314081072780685 -0.5603811899736413
P 0.3624970864024445 1.742564774621147 1.4204072036877147 -1.5997103050450967 -1.159446426781042 -1.0158875962190632
P 3.1757559136477966 0.4943663291363748 4.007417979945127 2.678261341731652 1.8695182712460126 -0.7905306612426708
P 1.750439907750425 4.76699441966168 8.709088493429174 -0.31578854669608836 0.2265139313989712 0.8345973125445819
P 1.3637090148403115 8.22616280318354 9.186480356244928 -1.5933897621437074 0.05592175086828433 0.29426327102980293
Ni 6.768136836351783 5.289670606040279 2.5538650518016865 -0.13102367420944533 -0.6291494577872907 0.5814912324793792
Ni 5.814479448635601 2.5138846719466588 6.711757161095187 0.0983161566740952 -0.2690947421839753 0.21228158984967313
Ni 5.22307818486621 3.4460031551017543 1.5675161677071074 1.1905734872031495 -0.8206354510478512 0.031717385707938923
Ni 0.4327427199789247 5.59882266696291 12.801404655355796 -0.037274310970426126 -0.0820726982320393 -0.012077499989824362
Ni 2.7709482204245215 0.8291268827600502 6.269781239893999 -0.9448698702496049 -1.28240609303543 -0.917689196069755
Ni 1.2281145479356148 3.043300421261218 2.6992854321758912 0.03431368568020542 0.5171892279671997 0.9121281570422098
Ni -0.06359931664826544 0.4175685478672232 13.016819551345034 -0.20662696266705705 1.0700658820336797 0.7418403951258191
Ni 5.894901822245379 0.806754303496065 8.971215023159202 -0.0012007051763205127 0.314465971229923 -0.04218897466322412
Ni 8.93229358559014 4.5797915187679274 1.6419827987826565 0.2580138017794653 1.0622250458330222 -1.648116978483258
Ni 0.1722853861102966 6.334385951615862 8.21914350222435 0.666226565145246 -0.47136008544822694 0.6910549370428357
Ni 7.336789767142814 1.929112183777292 1.0543990819639757 -0.6214166079194072 -1.5559984659794428 -1.439016100354412
Ni 1.109738279490594 6.496375501306732 10.579862835787248 0.57054373232894 0.18531431723220987 -0.5384576504276727
Ni 1.2106378456920939 6.427225739128195 5.364560075447976 0.6337764150363407 -1.0768363679882937 0.04667709234156477
Ni 5.566408138924347 5.053592025443834 6.407823183695029 0.682006196577006 -0.2780861470493082 -2.3892078970375628
Ni 1.5522967574332331 9.247695898715023 1.9007312379945094 0.9199677076912867 -0.20626315156973507 -0.42736645347609625
Ni 9.35682142460959 0.8233797897084962 3.6840675986948095 -1.6277289017452097 0.16499951693425777 -1.3087375318411074
Ni 1.9782371349858363 3.950417895607304 11.771451722293364 -0.10617833303099133 0.3253458513672204 -0.5830950866313894
Ni 2.4691912141754573 7.197280814368464 0.7926353807591308 -0.40255762196253253 -0.1972439787902603 -0.16773311381533693
Ni 1.6480908739037943 8.508993639543952 4.356861548491198 -1.5084762520287633 -1.4880002435625987 0.6144676874053997
Ni 3.470487156343074 2.907549005630615 13.504197046039597 -0.48625962826787866 0.5095085714934904 -0.11597140786201318
Ni 7.040839863752267 6.062883120354656 11.87090274407753 0.8452113406150024 -0.11055383639086766 -1.8147995395468939
Ni 6.416968678276344 8.318227079344338 12.476878081888986 -0.12483245779706889 1.6902843558799274 1.8038152726212484
Ni 8.085305937822 1.4819652636714042 7.4996499206485625 -0.7443161103598214 0.186408321627337 -0.8584993159731602
Ni 5.028064776789141 7.751614481990082 9.421812045551622 1.0072584597891556 -0.5712225035635194 2.2014775141646923
P 8.821441623710607 7.607544783886468 11.915695910451074 0.15080008550542418 0.17625734923626418 0.18528706353870025
P 4.170109182763576 3.8670227284833083 11.404077223426443 -0.28459772291558083 0.4871253187022837 1.069465015224887
P 4.882665630654323 6.933450006120659 11.611991816772976 0.8659578291337344 0.9305567960610425 -0.7862759997313749
P 4.582847402784095 6.626144400796922 4.397858402153417 1.5391106890851687 -0.5471855172189738 -0.15027712312241862
P 4.81592549303234 6.231981524101264 7.920385139867887 0.5446509237225781 -0.0818775515020977 0.7375404821988846
P 7.093491545154698 8.846193361013766 1.2077786091972083 -0.42679181191954885 0.42825836916274634 -0.43878600816694757
P 7.248584583183702 6.278115217239602 4.960215842580023 0.07286532070115839 -1.71047959988088 -0.45205470025139566
P 5.787068815270037 2.646690990897027 3.5909803861322254 0.15800431656334724 -0.13217629975664977 0.7233464500866897
