# total energy = -340857.3312284847 ev
CRYSTAL
PRIMVEC
9.32056031107406 0.00000000000000 0.00000000000000

0.00000000000000 9.32056031107406 0.00000000000000

0.00000000000000 0.00000000000000 13.64158215192736

PRIMCOORD
 96 1
Ni 7.066149625021533 2.35059865415638 2.2178487128349698 0.021125212014389425 -0.8776666329302304 0.012744701260178052
Ni 4.4989131924851025 2.7073058097035507 1.0383253079199324 1.7048905358288768 0.7864408074440133 -0.7138112569027449
Ni 7.849169878934883 0.7024673132581176 10.612850164340964 4.076781024633914 -0.2933425589877464 1.9016568036517703
Ni 2.443291624340504 8.578475744997947 8.296373148650854 -2.6175683947269692 1.749189100635936 -1.8469851231405028
Ni 0.5288318030066239 4.949739363911538 2.43278548899696 2.218458879214037 1.4234776383991805 -2.0220785339756526
Ni 6.810179083023886 3.856391061503425 5.268187484364512 0.7783338620661628 -0.7102633916504865 -0.20157525917576252
Ni 7.548367442861254 7.8508102975123 10.334889624901848 0.34997856231423596 -1.906934764221258 1.3844632048091963
Ni 4.972406966072201 9.096875977141819 7.016274375876006 -0.45393546221387626 -0.8240712162022775 -0.569020096595562
Ni 6.05016197143476 6.3695123221053125 12.94650217612542 -1.7656292484698302 0.18997187060887927 1.6869311231369788
Ni 2.4025234944676677 1.9528251108132058 1.156279792140259 0.3109340468172645 0.6949419308020677 -0.8038651735680479
Ni 0.17830138263703138 2.6951424787744123 11.634959561800732 1.4287820813312297 -3.3126949307360176 1.0413312331031486
Ni 5.674310385444332 1.2281702042395217 8.576680605122888 -0.1398944943365139 0.33588608877691184 0.08969010556798102
Ni 8.826188270747918 5.911304267080503 4.0980675925333125 -1.646256528235752 0.06207928582924792 0.9365053003349936
Ni 6.943817273722726 8.672986224401367 12.579407256347961 -0.8792236930047053 0.9409224555660827 -0.5606578406737956
Ni 4.767429208375946 5.624585197316398 10.71347120294526 0.4062579536322552 -0.9359054619674655 -1.4373860209501568
Ni 3.8081292013110275 4.742711082993512 2.4698216666061743 -1.5639840552880808 1.2543471300156848 -0.07360451286002807
Ni 8.800547409915689 4.411868481720946 10.816983479292254 -3.4277579678511483 3.899038606211692 -2.5840414666141176
Ni 8.153113343761861 3.8791425487049787 0.24124219292927596 -0.4945642914788322 0.3506830445804283 0.7153768016176518
Ni 3.1110351909499587 3.847340797647338 7.1481481845481145 1.3287435426493892 1.6256491363980454 -1.2469868329958718
Ni 4.406537121344343 1.102016423300143 2.591368294688639 0.8758334363762335 0.8423173068966591 -1.2401623538748705
Ni 2.9965414306943745 5.8517365674880715 12.159764882844605 -0.7029966827857442 0.3841202411929514 -0.9462706072518736
Ni 0.23356764374379502 3.0753747280113504 3.3491587244701235 -0.6500460987306417 -1.9215435152733682 0.953419816702145
Ni 6.344822158403176 8.295661989915304 5.369544847216626 -0.08038785433044864 0.10029179234322727 -1.571954989308699
Ni 5.772390639365653 0.7731115664721498 10.801363152622413 -3.2568287156960167 -0.18890846234137143 1.2755209358798227
P 9.367349310653443 8.463599841778306 11.405685900094525 -0.9177539878694195 0.4951574449781408 0.7298742239028785
P 5.908862280334576 6.8177380572641395 6.822605253747814 0.8427186561001357 0.7101104110123899 1.5213906460975863
P 2.7908832721108956 2.9709751343429365 2.969799811714458 -0.6345294911522814 -0.4320682298271397 0.9177100220053614
P 6.2332177717782695 8.683975164758037 1.0235046853065815 -0.26447524113409293 0.03475771519615949 -0.08650039498608975
P 7.308484187594406 4.609427073578432 8.956980894448549 0.4808063184627913 1.2310889308186928 -0.6279410393014864
P 8.064269764898606 0.3913460850989337 8.550980092706025 -0.3420888751535141 0.2691813883605106 -1.489714655150544
P 9.091712386846996 2.8574600328977433 5.56605207989495 -0.7657382847893393 0.4060442949595523 0.15151870883900356
P 1.151303545103426 6.318230600440852 10.86946196087342 -0.7923489453983321 -0.7478554909716475 -0.9858406562350118
Ni 5.969501844338389 7.900880346363895 8.75373489681868 -1.1272947817491619 0.32242764927916084 0.6669842692468771
Ni 2.76752594850291 6.845476044118635 1.878664210273837 -2.3393467505410612 -1.0614578286496945 0.31034063620763974
Ni 6.968936183189415 2.676081933372046 12.194660127799091 1.6662532830726526 -1.4740802910473967 -0.684603524990537
Ni 8.568502745692063 7.873682951995139 5.489290743087972 1.3835383790020819 0.02416939815735192 0.182307412085086
Ni 8.168641396886724 6.607661953193754 12.623006040322851 2.0107821351262274 0.29199195849712295 -0.6898575743006249
Ni 1.9234373848211952 4.264650234957926 4.586381988733762 0.2624276145764448 0.13315820405394488 -0.01768301910205987
Ni 5.286547123647438 3.954452674304548 12.758153229701714 -1.040262425519002 1.2193834694563064 -0.46532313522552765
Ni 4.908822105077118 5.351362298575582 5.817425721651792 0.9135918860719299 -1.7123909579709797 -0.7866115286939227
Ni 5.572455304682934 3.2495946373810485 10.38588147714723 -0.7616875117587334 -0.19378507370738238 -0.47672469219425
Ni 3.7797201341294078 0.14122978689944107 12.169518848988165 -1.4673679120242278 1.0786711072041872 -1.044246864088047
Ni 5.752332794032698 4.809772512905506 1.4428832869591373 2.5990595372895045 -0.8542204860921482 -0.4915201053358696
Ni 0.5242535438860163 5.065668490422362 12.58738751990469 2.7778813048188353 -0.08869046065887307 2.085304017594202
Ni 3.2789077988922672 3.4132916343990245 11.164638506871318 -0.3645358913031206 -0.0033910279594199667 2.5770416382575165
Ni 4.695269432089823 3.3214561557440043 4.084876203825259 0.3616230885316998 -0.16219907137098516 0.7170295067297265
Ni 2.604677122453939 9.11517223661607 3.3335794082647174 -1.4513273136215974 -0.7137570066260418 -0.6642491297039012
Ni 0.4645311229959415 7.794877616358461 2.5454235257368416 -0.13228480031005604 -0.4802152218460117 -0.22907140771350223
Ni 7.720788484131854 2.652156055598024 9.719299252326106 0.9434758181155557 0.12700401152709095 -0.6767408344130087
Ni 8.542013713890828 1.0979992618974928 4.271888581930775 0.9946417994664096 -0.9072230064311085 0.18193177391322213
Ni 8.40058353494926 8.331219926692825 0.6026711442225785 1.2526368321927974 -0.3969559595050389 1.2488092309165912
Ni 1.0314877450313378 3.516451593574277 9.431121514906515 0.8042171575908278 0.17117762072051165 -0.11163987036619481
Ni 7.9338937702344 5.5138662639008915 6.595322463678746 -0.4850923474326549 0.5501037193070332 0.23282881787340548
Ni 2.9723918594779777 7.521244612973291 10.484196609183044 -1.8195290838120792 -1.2677220086606942 0.6223175224671219
Ni 3.3846029504144357 1.4380878587882242 7.0387564988907 -1.5791173113850934 -0.7521489761406788 -0.4749658005216143
Ni 7.906398117942477 5.944681192794867 1.5931325798663385 -0.1181578739903707 0.8564208361775767 -0.006568911466769331
P 7.138328042427854 4.2397643394937115 3.1213716920997014 0.5454554219017445 1.485931019738396 0.40915610111565665
P 1.3218045509936405 6.976140976145908 7.489773741799163 -0.07867138585997419 -0.6948475713160485 -0.7738740265225963
P 2.3704607677272564 9.12071796987495 0.9817541683993148 0.05535867927596273 -0.879621442663756 0.16480565575589684
P 0.6388041595582039 2.7185836874232883 0.11571288951652739 0.19012125170254998 0.5705180212973272 0.258565046297245
P 0.8232636362526159 6.398424699532276 0.753251317013293 -1.3820682222144585 -0.17016100653053923 0.8476333197929338
P 1.1677170514376887 9.1846010887932 5.1372699651585565 -0.6931377877137933 -0.5270542936867374 -2.078031395192189
P 4.227274788961109 5.493407634483681 0.16418912259120108 -0.7991991355509462 1.590903505386744 2.098354165909941
P 3.7194347514093558 6.485432128056037 3.980395521283984 0.8214602609419918 -0.08359941928921087 -0.5340438376306932
Ni 2.8756258045306096 6.090892819067201 5.979323850570669 -1.3455773263772761 -1.3758088715683081 2.4552523381621456
Ni 5.136085321969979 4.522261195532989 8.378809774502088 -0.605644689797131 1.4398393675866559 -0.19636568995036502
Ni 4.404011249557526 8.15643146315709 2.4371913177557367 3.514414685909444 -0.7275520035276051 -0.030916744183514495
Ni 8.108570387048948 7.523882331481295 8.158497831331028 0.21532063378631303 1.3798961542638042 -2.483296645893872
Ni 1.4903016364625794 0.9207734718958809 12.73077408441103 -0.41204550684830965 -1.0020501761153389 -0.0019424684383514933
Ni 0.7525382941657227 0.8799428942703814 2.1152638322178228 -2.3879141179268037 -0.7427271686061466 0.2546615974777808
Ni 6.707093688329424 3.0351005878237585 7.647771216316627 0.6745044888833222 0.7823761504563364 -1.194309042986182
Ni 3.843705779208745 7.78924799805869 13.690691112554497 1.311787888631657 -0.6648409976516292 -0.40962507033227513
Ni 1.6513888766528477 7.17149991582004 4.510247925621444 -3.011842693634787 -1.445518420249304 -2.215214404134811
Ni 9.257431945406445 5.788599093377738 8.710000032666345 1.220552035843111 -1.446090233592374 1.4118822202520975
Ni 3.90137208454099 6.96737032909279 8.128200418673359 0.9113156884432433 -2.463708182238983 -0.37736878140173075
Ni 1.5257104442785159 7.674847443404097 12.752491921497608 0.0076464608016642505 0.4448599822751693 0.19751857260788563
Ni 7.230294008924258 1.2299597517785212 6.3876025972013775 0.19238819335985577 -1.0426584365550042 -0.28999061179637803
Ni 3.0893369270395876 8.306483160190194 5.668581969207513 2.1123296542534264 2.467327524159125 1.1845511922684697
Ni 1.0604001224583015 0.9574731772855228 9.06219790123764 -1.7123819591099156 0.8409340533958872 0.010211907535995317
Ni 4.507665198418024 1.018578769294283 4.736043154298719 3.1805155456555743 -1.9498300209228872 2.8819744731860237
Ni 8.252778092900003 1.3623676285442998 0.071280847468791 0.0413317688692514 -0.3375642478102832 0.3420155987134174
Ni 2.7598364864212703 4.00169859344616 13.490446335276493 -1.217273365091839 -1.162091577713373 0.7572004225216572
Ni 2.4850011307833353 1.5365409351135035 4.746383383672502 -3.0870610879491545 2.7491651678310656 0.29696678600389503
Ni 0.5241901640773434 0.2954198126164815 7.004761620041775 -1.214298341623915 -0.012907709200603577 0.3097287136552537
Ni 3.212228511944331 2.414612260916014 9.10365482050179 1.4209139914370625 -1.0605530574472382 -0.772265801495212
Ni 5.042805156499621 7.743297636770834 11.396791289592091 1.2864121288710295 1.0368665124635754 -0.6079411991407917
Ni 7.3194358457106805 8.331070797731241 2.9045791924220086 0.8306036180041566 -1.070820500811517 -0.3840063413229064
Ni 6.022908653705411 6.311417271008516 3.34016904425468 -0.274808761849617 -0.35671022461111473 0.8744656094944295
P 6.819825862726306 5.198691524154671 11.360463474550398 -0.20762455069363597 -0.7063841112007383 0.36325419637721956
P 3.966709210834676 8.976286570581516 9.504731570344035 4.434152536978112 1.9379839202175781 0.4569485380085872
P 4.937100684417353 1.829709832466087 12.635760294762264 0.5657303701006966 0.49602904894981664 0.24143764258833905
P 3.1517101152218054 4.541070085812684 9.440247275299402 0.5351923494128396 1.8458489526535307 -1.424579870324424
P 1.3150751066021937 2.9364797414166977 7.403613552188398 -1.3837299261875975 -1.9262290936744957 -0.9527009362582495
P 2.071214865190153 1.635832861847689 10.670104500916834 -0.3562697946395864 0.05301049075876032 3.222261005023476
P 6.499878996209421 0.647620477355807 3.848958846880517 -1.3130382160989904 1.3246511177475704 -0.05540675890507877
P 5.058146798422504 2.4825684645975072 6.332940308389027 0.7033180706809048 1.062476499722196 -0.5717920029137442
