# total energy = -340862.4228042622 ev
CRYSTAL
PRIMVEC
9.25247754658864 0.00000000000000 0.00000000000000

0.00000000000000 9.25247754658864 0.00000000000000

0.00000000000000 0.00000000000000 13.54193614419735

PRIMCOORD
 96 1
Ni 2.494514262942605 4.144527124495917 3.4649344844844867 1.036289556914183 2.0123623351291537 -1.6211638469331822
Ni 5.7636737202856985 7.761598250076498 0.7766585335582057 1.0019936118457906 0.795493661674901 0.5949542999628206
Ni 1.1060504423375752 3.5944025551007703 9.208597871147049 -0.9288531831063745 -0.1565974089134916 0.5745536248192814
Ni 7.625466544986925 2.6340693847985177 4.218557124196331 -1.0473594415750995 2.5650284158467245 -3.6789863712776634
Ni 4.966165653372715 5.871391066214661 13.032217608957467 1.2370130096126115 -1.8581246846970902 -2.159638723752036
Ni 8.00194986450672 7.69659034142705 12.059026270330401 -1.9471043944616078 1.83664157512265 0.9297286437327924
Ni 4.623546402406433 7.417526360103958 7.224636255524037 0.8689307957191292 1.224769159248252 0.40010350399508515
Ni 2.002041882388153 4.829737868995242 11.883021937638503 0.4732549884780946 -0.3281455255995445 0.7745785087887886
Ni 7.0335485336092045 6.895529323059271 8.262124912509593 0.3755422697159532 -0.4906204763397357 -2.9119123983960367
Ni 3.4802732420932334 3.1958335711992163 7.3562777331630596 2.0672895832946527 1.4205995455204372 -0.042675427381339406
Ni 4.279206190579234 9.174534874321978 2.1894332394431144 -0.1852929770759712 1.5078869551841967 -0.2595937446720755
Ni 2.024756715256698 0.9366375747925404 3.1156478980538154 1.7253583167649253 -2.1363933800708494 -1.8364903942567663
Ni 4.293593793475604 3.545854804362988 12.950953096906781 -0.3370392285447486 0.6599265910691473 0.07726267843790566
Ni 7.049185221001401 6.120976653436251 1.7405178231297873 0.46598956516493295 -0.06222738137133799 0.3288965448329561
Ni 4.355502122079854 3.7904533060790198 4.913921537775061 1.3051518713723782 -0.4181590759452153 0.8746389018475
Ni 0.8611836187668847 8.986034145185167 12.776343112611336 0.4142139752545383 -0.5746284439212749 -0.4878364858366953
Ni 3.872707833248619 9.1265607772045 10.956659239383852 -0.014501021829652447 -1.7357196053945916 -0.5170426750870064
Ni 7.200935108527677 7.403027727474626 5.407999223218595 -1.2566531524410423 0.27701194014852293 -0.9932757723568182
Ni 2.455737128705508 6.908010915539788 6.744087543041966 -1.737219844089202 -0.050027753981352556 -0.42408855405577284
Ni 8.513315804620264 4.594965498646378 11.201429837185973 -0.3702424547695946 -0.2326467837695864 -0.8324409283232115
Ni 2.7242717903526708 2.175174245987426 4.958908009828077 -0.49247604149123575 0.06617865270960215 1.3040938624215088
Ni 8.842148863743722 6.341888812120317 6.403656503062815 0.8611832905632265 0.8838393373998455 0.9458954833006419
Ni 7.145447999479748 0.6089749541040593 4.814510141119458 -0.4096322694211268 -1.9472339780609367 1.1417783200773175
Ni 1.151026736665069 6.421349091010364 4.628106023440086 0.012764241644203823 -0.6157627520677394 -0.7477770723252283
P 5.409414852313864 5.491132735774146 7.14778610060638 0.41292842367389526 -0.801036188759685 -1.0853318070538145
P 0.6483266672092362 1.7943792718375924 4.3322682252097096 -1.0481850228001883 0.5324610665246056 -0.680154488080248
P 9.143566831303232 8.80091057042596 10.572623122279293 0.04661512875537778 1.6841551030537383 -0.32047746753132544
P 7.510920870480779 5.79601113001098 12.820611592391195 -0.42345014914082557 -0.9966614009995997 0.09967549891546705
P 7.916253415615288 4.797946355457025 4.927491221638609 0.4698372210457973 -0.39472809861578473 0.8008891216588594
P 5.494176800952863 0.493062688634702 6.223616239577735 -0.5823623222304228 0.2569959020379122 1.279184500774339
P 2.6175537120203702 1.1885547864063395 0.9925401200913032 -0.3950515433934744 -2.428430847093927 -0.7646229402379735
P 8.404876765427046 8.792379785943355 6.486397710561899 0.4329979407302607 -0.3684737929049461 0.07603086291333358
Ni 6.529214476583276 0.2035905950941666 10.544902698949695 0.03426792004393454 1.0406938566294657 0.49248658301419707
Ni 4.967766332022922 8.0768949342563 4.735737321326002 0.37472671579319333 0.5623506549951863 -0.6063630560203944
Ni 3.5176162422795665 5.933687998884279 4.74169591699498 1.1037820433392025 -0.30993723012163393 0.2872922390286085
Ni 2.488935018861248 4.643652036550363 0.927815337260908 -0.663752906793773 0.44201428529625814 0.212847232545156
Ni 8.111628735718018 8.518617474369215 1.0279465766852183 0.206285005946606 -0.03310501008408492 -1.2854819037472764
Ni 2.0316035487893753 2.628101536651792 13.05461600708707 1.7570823873410835 0.12893722399406182 2.676836436359667
Ni 3.3555405895877928 3.6802562961138987 9.71635256919599 0.14685832724885675 -1.864318472212628 1.2863794758608813
Ni 8.725049505379443 3.9779177577081812 -0.022386369908531496 1.0049706921962434 2.3770851456321 0.7797047742717604
Ni 3.514581429578596 2.644385897486268 2.1876049498403343 0.6785112960498701 0.41040951390678354 -0.9305573102816749
Ni 1.2737330965439468 8.93944791972972 7.053791104423788 -0.1757403003905296 -1.0804284562149264 -2.1104144395085846
Ni 1.6640673752507946 8.145918418247886 1.4707081700491076 -1.2329038725402444 1.318434190303581 -1.7855840943252022
Ni 8.50212955902431 1.6361804073217538 10.281755755094531 -0.3346401321849527 1.4260004048210344 1.6878659762464223
Ni 7.531849975144179 0.34697161649840647 8.283466677680504 -0.35395091669842266 0.36837583387450107 -0.187793889120954
Ni 6.857695941552354 2.3142112290895143 12.683106819603987 -1.2588951543976836 0.0015642591633263383 -2.1908388035039237
Ni 2.919341778689753 7.595590294342308 3.0993561352371413 0.5880120643170325 -1.4695415226367787 -1.2663616379780578
Ni 6.608739522817551 0.4716219219518997 2.492813657532732 -1.2546137534135102 0.3325135727602532 -0.131019046223755
Ni 0.9088301781721227 2.810384600742711 1.9891476294001267 1.0539144690847977 0.7001314454228071 -0.6339975299082113
Ni 0.7354294927181907 3.93638338510252 4.630773512774507 -1.6749114729682832 -0.07973325146558526 -0.5971158263905135
Ni 2.8130215569005665 5.4824169017366025 8.414973069144423 0.4890790999945449 -0.4978239360667104 0.1499225679964773
Ni 2.3345019127883817 7.861413980009641 8.930649738640229 0.8360836672821215 0.9350012049856413 0.5161214488243175
Ni 8.9191664885086 7.325279156967749 2.9850084637547782 0.684093418123338 0.3754805632400824 -0.07859990919209045
Ni 3.013013863398979 6.556000399660439 10.851614009028182 1.8001105700761515 0.9405447605116899 -1.7709401191597824
Ni 8.107603907898133 4.668939058232536 8.652525809056218 -0.588964915148605 0.1122970443342195 0.7562881951200329
Ni 6.027804202525354 5.551209073784517 4.34208695459468 -0.6109018244310124 0.03860125731196578 -0.2636301195249782
P 2.809033738991669 7.997860269342608 4.97717610189148 -0.9976674736666107 1.7804015216829985 3.2655514402809955
P 4.519344998021278 4.927869647978455 10.947721345880383 0.340027364638795 0.2860534815255009 1.2043461155072095
P 6.577114553878777 2.720385749698989 10.361327988965314 -0.964820602339919 -0.02566140932184613 -0.36993495083150485
P 5.71496867742622 7.678344455310238 9.575218974636465 -1.8827599667472672 1.8039667105974482 0.8147972470995193
P 6.852662593658062 7.650337205170488 3.1460765216199187 -1.2798681571049249 1.2739849588512704 1.0191379848355608
P 3.11769639662697 0.9465007160706949 9.346604128228137 -0.010149943949808327 0.6444045841741483 -0.5746875792939845
P 7.833730566591031 2.349620461426753 1.2492149557625385 -0.9620638655303884 0.7092172097741591 0.8077349409360992
P 6.608147364241752 0.16768357945414636 13.03584735597756 -0.017801804068111278 -0.5524822468415389 -0.3540591601415128
Ni 9.002374020886124 1.8910028969480677 12.981245709050006 1.5282529204350583 -3.0919875787164943 -0.24889666996954551
Ni 3.1691956877660017 0.9077420867890919 7.208142788692482 3.6745265357340973 -2.2530926672378233 -0.0964680477217629
Ni 6.441130888433154 4.344982054881672 0.5701598847082004 -0.5509398420550834 -0.8671222817554809 -0.18549532289476442
Ni 4.6200952282068535 2.0183817580891104 11.284563349741525 0.5575136386178592 0.29345954418158493 -0.8045681131723434
Ni 5.7405980407850254 3.3808923786141936 2.833027264284831 0.3596155711833678 0.9973057194518179 1.17958150696802
Ni 0.7232930176576324 8.931694343377849 4.707433991898353 -0.4476812537740483 -0.8244872206937736 0.040119493728705095
Ni 4.4083800324031674 0.009832608101589757 13.23284185968599 -1.2035974102666431 1.468777904997877 0.45559202398069276
Ni 3.7575607476889266 6.7354522055608195 0.9888659611780245 -2.3213269169248734 0.6781282016788386 1.3437225325567246
Ni 6.75682542915607 6.016571694540666 10.38388923070326 -0.18755066276189636 -0.9191012459259331 1.7308573922062835
Ni 1.9488123779104585 1.4053866024040398 11.140530953903907 -0.4052387683391214 -0.7893286705147696 -1.605305796855003
Ni 5.498877059648269 4.436331767676436 8.95352186363047 0.8233561924131239 -1.088956034069963 0.31315393728671875
Ni 6.3387429696863835 3.415089536366594 6.318437482023122 0.16553353506085683 0.8802431354081549 0.4019719246623916
Ni 0.5200281097801553 6.794788345351442 11.053307846184243 1.2386068364622926 -0.5692553525348195 -0.3398818401998662
Ni 8.373085251888831 4.215872980401967 2.487084523311875 -0.3541002977920934 0.9486398788149984 0.5287370807057991
Ni 5.566364632333877 7.676614241971575 11.828664556123465 -0.14542210902296246 0.3638452929939992 -0.4482738930527247
Ni 5.535729678514017 1.911820971878506 8.362876993190717 -0.3498916590273845 -0.4395601673288107 0.2905809370822093
Ni 5.522803967101653 2.2125820135179874 0.9672123875070444 -0.4605825352167487 -2.131532966654755 -0.4457035612223873
Ni 0.08679286750443466 4.196600069255254 6.733808965512977 0.11749272960254604 -0.12804196587330208 1.6798505621411135
Ni 1.544220030995697 2.245011948020737 7.027682462717695 -2.1070023285032424 2.2012083196637056 -1.372867786662113
Ni 8.644876785702888 2.1590379247968996 5.94333925842203 0.1731954224814888 -2.3651781097818687 3.737295391431202
Ni -0.03737538385844718 7.809581599671723 8.622814252515496 -0.09797497128459255 -1.0168183355634488 0.34665026927195136
Ni 0.24653689580399912 6.610358706423251 0.17344602259489172 0.005310099359003758 -0.8830039859827438 0.7280343424806622
Ni 0.7793528550780917 1.086805288624103 8.682967386091168 1.3671686793948068 -2.324800734406087 2.6834246311001464
Ni 8.870702010070538 0.9426701902834942 2.5006542071754225 0.3284221762996989 -0.8096933502140508 0.8490440840975313
P 0.9520707076743055 5.698906376057668 2.3127456366144115 0.7775188223640351 -0.7742812892633439 -0.15818686488779854
P 8.6286294347794 2.5029617751254896 8.162998492168592 -1.0787369274451162 1.2820345686286243 -0.7162700028558826
P 2.252765524372607 4.519890894208343 6.176720981365542 0.6584759746655499 0.9055296778890857 -0.3665212971642655
P 0.7875024374775274 3.171083193226361 11.547845379771795 -1.5236269916272727 -0.2944136805647381 -1.6158853721430624
P 4.526811747562996 1.774902806180449 3.9047630424026205 1.185671421915842 -1.06370420148171 -0.7025873631624675
P 2.1420041132649272 7.01988262397709 12.643537673271759 0.08928567104071075 0.6667677823606969 2.3478648153144017
P 0.7861895108852477 5.776923268419204 9.204603576503727 -0.0014634719194039313 -0.04768830721489852 -0.7458636573525993
P 4.761722905078062 5.355972540847992 2.492610103022301 -0.680138547240648 -0.22705694838663476 -0.46239362028355846
