# total energy = -340865.5338985146 ev
CRYSTAL
PRIMVEC
9.34385096578252 0.00000000000000 0.00000000000000
0.00000000000000 9.34385096578252 0.00000000000000
0.00000000000000 0.00000000000000 13.67567037935122
PRIMCOORD
 96 1
Ni 5.468012129929657 8.998296486051068 13.069632783783321 2.0316142413802303 1.7472229780485005 -0.19909877261081194
Ni 3.3754847803248955 9.39309286901445 2.1024701412148947 -1.3725186308528103 0.48533891622582215 -1.1023491675474175
Ni 3.5907016952353272 6.197150181339401 9.624184052007255 -0.5396131041883546 -1.1797398869227553 0.8169456609010898
Ni 6.480764083925966 2.326516060723028 8.262525234975847 -0.5520137918455525 -0.605392464577009 0.5014355646773687
Ni 9.158749091566717 3.3540873620491656 0.807390932883798 -1.3321605387507378 -0.650992264693995 -2.0046541678516183
Ni 0.06260940650583248 0.4969358845597394 10.427685139813242 -1.0990977504896555 0.3790153158662182 -2.038026829774793
Ni 4.149744287129181 3.2247217480633656 10.222987532105787 1.0307773688467021 0.11562610870745249 1.6626509104333753
Ni 6.710613469150718 2.0586091712899584 1.8720629280988497 1.286270975307475 0.9092870880489888 0.8027004638359854
Ni 2.877803256473277 8.839553805227322 10.550615643770007 0.7239930825317531 1.1555031258625776 -0.28790467580162676
Ni 5.423217709312255 6.160382128538093 2.0825854923797062 0.05448990351776423 0.1104975292316355 2.435463328460677
Ni 4.828771266830305 1.5564332552153588 0.8604210235746619 -1.853801117621072 1.052574924337768 -0.7311394637685473
Ni 5.299430374239386 8.96919039088561 5.544458845048821 -0.5082335614358086 0.41365373187569404 0.42291407413169746
Ni 3.026501297713437 7.919530226326361 8.130254617783967 -0.7374350669692719 0.7959173794758808 -1.0077063459598514
Ni 8.995297109952155 6.922401190826568 7.184007521681767 -0.5158031462529504 0.4428450087276695 0.7130913480175849
Ni 0.7324691342111842 2.920925127801877 11.017762397672602 -0.16227569024519148 0.6713250627140761 -0.38825457507629907
Ni 6.254895179131546 6.809406003399317 0.03349396748959901 -0.9162182679511834 1.2499271465711184 0.03669169899407875
Ni 4.0436915808280744 7.059335323940465 12.152911321746398 0.7349652652725406 -1.3560656275031098 -0.7299675549476332
Ni 0.5297299976262588 2.089387815744218 6.018703188000434 1.0134674168133448 -0.1784993511929055 -0.9183520264647345
Ni 0.5301635523022388 5.4674141234800295 9.06454905997424 0.25381750430993055 -0.29063852979302207 -0.5012291050935174
Ni 6.557449067239903 4.04502775148896 10.341856264130472 0.7940409883887743 -1.0455172461600382 0.3026178136420853
Ni 2.452676733892856 3.749677972328459 5.565477837368146 0.38909146915529763 -0.39813172498069493 -0.005432226759164838
Ni 7.7508924075314365 4.3269130416820705 8.19152131293337 1.3993918010945705 -0.5006866023264861 -0.6908520770034102
Ni 2.202336283917591 6.330281367187699 3.101929533098079 -0.5482622952229204 -0.13504282267116743 -0.045647108415153646
Ni 0.8576692595212984 8.213655961035283 2.1899668942610795 0.26398853130566147 -1.3299715015192193 0.10629891776925564
P 0.4655414803393791 0.12347525045697011 4.416147750972485 0.5044838645853892 1.5119189591617253 -0.11970927763789062
P 8.32794059986954 6.6421323868176065 13.260422069611552 1.2148225895585012 -0.12946815679686735 -0.2761025409603761
P 0.9879533740383227 0.08148024753188676 0.3079312742296156 0.8563604152532865 -0.8059012301614702 -0.5163837013467687
P 3.5009446646865663 1.6565526162740694 11.740042996998259 1.3341282040000702 0.34045236799135564 0.14654516688381214
P 6.755211668901835 0.2974633582059037 7.271052966735499 -0.7656387830969975 -0.851620843685772 0.6338761738389986
P 7.054420458432589 3.8185234648418116 0.662661225067962 -0.9389684171635054 0.2985338733806988 -0.9558675069116892
P 7.353227462379999 0.5217428739834231 12.196851714402923 -0.3228020018994441 -1.6082569090635268 -0.2800088179933178
P 3.48988154536846 7.849993288855626 5.683813969898631 0.011453750362896404 -0.04269831019947485 1.0787382129966971
Ni 4.796983486492299 0.3034957482665199 8.581934495497999 0.7918455233993524 0.8996619062543989 -0.4824860201580593
Ni 7.936470627782212 2.497929003198254 12.392536243652403 -0.14123661018670514 1.4211420482874686 -0.17990214507770308
Ni 6.902788448048944 5.123765979661341 12.44202875243969 1.049821787072663 -1.6154251446771923 0.17927633856824607
Ni 5.150508080580616 4.759215641658019 8.683613345251128 -1.007285199262033 -0.1652687114352444 0.982066019683928
Ni 5.7104196505965845 8.913295475547 1.655946200358744 1.2753833818606939 -1.323508776613011 1.4779595714971452
Ni 2.7983711810313636 1.5976302932842206 9.262052836969692 -0.769056807639611 -0.2299738649231136 -0.09385246447578675
Ni 7.393088329787974 1.7885251646262135 5.87371372113304 -0.34107097541196096 -0.11177639594405911 -0.13190607681439862
Ni 4.8367322276909706 4.152790382481971 5.982681708876082 0.8915374773750516 -0.27142287609651966 -1.042493885952682
Ni 4.713879277695644 1.785497756974975 5.629220652973038 1.2253983081918187 2.171087331908609 1.6066826225978716
Ni 1.5005103083244227 7.01164430958268 0.2961169093091645 0.981088229151691 -0.023356158227437196 -1.6974106825120638
Ni 8.857008118475822 2.5595984183160785 3.9328632323956456 -0.07181631061135374 -0.012770412291790911 -0.45353951232703826
Ni 9.25923286280567 8.325623324877235 12.175736480420614 -0.27529984255342266 -0.25402884898978834 0.6966478577495809
Ni 5.069272641939046 3.7982005894052557 3.0212154813297776 2.0185792625731427 -0.9841745813864985 1.1863401658480923
Ni 3.120098650930899 3.224516183346306 13.411196314494013 -1.3705278256750266 -0.7268336373043418 0.14921320063427848
Ni 7.263414368726586 7.92770609575486 5.842943486144479 1.9562513510681987 -0.17656691005688302 0.05815475396386113
Ni 8.996997690793284 0.292590540026518 7.003625416847208 -0.4236933754998832 -2.051960666247066 0.7364765597107445
Ni 0.9204842307441902 1.036606805025976 2.253107965876034 1.3289404891515437 2.6980207837467662 0.32871348228787256
Ni 4.0926253273389905 7.86588717902463 3.5682287997353455 0.6318930819706989 -0.7227080451717425 0.36739727201131567
Ni 4.873154558013588 4.7469097901867805 14.053391703208556 1.0901647096660838 0.43736547367033707 -0.8697908297265795
Ni 1.6042457396332237 0.9563431268650501 12.029679945794665 -0.9202921809102408 -0.12140466306244253 1.4230032698659236
Ni 3.573639823719396 5.778844669825044 7.039113362092283 -1.1300450908007893 0.8792278067697632 0.08382439081582338
Ni 1.4360844572278468 7.995897518713933 5.688313034047 0.29536910249947196 1.5718364614529639 1.4985448518476643
Ni 3.311255150094604 4.399112976623803 1.9684755835549477 -2.605477782111022 0.5750997271307385 -0.7778435526933055
Ni 8.131673014331676 0.40484289131712164 2.875678464806945 -0.6331084424350387 -0.4600040370054594 1.4856769947460606
P 0.34747818825153687 3.9835078379835425 6.83670032589942 -0.2679413453058224 0.5258898410649911 1.360851221817211
P 4.2987880508480325 2.969344962520145 7.847277031435209 -0.8285652474178892 -2.1902973291781564 -0.36647038932167203
P 4.673859564824485 7.927855597367267 9.836553895586414 2.2178533844195543 0.8549565929272244 0.3917731297525188
P 9.077513652925147 7.310208373409929 9.907776463737036 1.243122464944459 0.32373788345015214 0.8390712891555356
P 5.099434592242127 5.242825326241844 11.296951052531924 -1.4272967550349547 0.024795461777125036 0.27619561489481465
P 7.005299834906165 8.092157869402392 3.5726316222207273 -1.159364922810829 1.3419487284857532 -0.13718609426641534
P 4.214459797599796 7.302490352669426 0.7529601989616977 -1.2082426223481384 0.9752726509111784 -0.054177257373351856
P 1.4820935784460543 0.16985906009127194 8.210024006238873 -0.006477380194227554 0.5265470150330158 0.025711802943807333
Ni 0.2763079456652573 2.2712098079832703 8.586200897762058 0.2291385135060118 0.6580077767798796 -0.41073835800111197
Ni 5.213046473820555 3.1763299448974247 12.498058219229465 1.2020205526978267 -0.6883989874772273 -0.9304166709387526
Ni 5.263092138573747 0.999483685895201 3.6256934820042273 0.6251051125145879 0.3191613198230632 -1.7071253386966663
Ni 7.919894636506603 7.386314037975789 1.6225774404695357 -1.2590357937406056 1.8406270421329591 0.9608479908454162
Ni 6.794670750726468 6.180499439257589 4.174060724387155 3.8230141710562613 -1.9785541283304569 -2.620308676476268
Ni 9.159132189448508 5.497594761484662 11.495919010943888 0.004064656987676871 0.05506840172905354 -0.0944294200251793
Ni 2.9403509935639915 0.7717460109456956 4.514379654174559 -1.1633843283828673 -0.8307242027424209 -1.546451445720956
Ni 3.3588340382430832 8.995231702996728 13.104642323868696 -3.512825229935137 1.007909463109593 0.9629498676797673
Ni 2.5834626131965215 4.090747213333129 8.83869510534106 -1.0551570832426473 -0.18957720627362187 -2.0874778853170692
Ni 9.224707334190462 7.349611392129909 4.140104236284173 -1.7716569427211488 -0.9041423106232558 -0.2519891928519402
Ni 1.168588697228896 5.708223845664358 5.900053102083895 -0.16320411559673184 -0.41660124453979214 -0.9241259528340342
Ni 7.655958883653089 4.257899359854759 5.620728027003252 0.17767994061540365 0.6274836400490935 0.3310125627346944
Ni 5.287946781636386 6.596198016405602 5.360507389218049 -3.894982433864447 -0.6489626358584759 2.717716719513797
Ni 1.1468175249221486 3.4698483293059423 2.443623476876544 1.9787611021349405 0.6460863427519453 1.9486686536249345
Ni 8.192641640641344 0.5986194062382565 0.6132434670868787 0.10057949878697517 0.17147998245227886 -1.5857453582245722
Ni 2.7891020810621394 1.395167734682248 6.66600031923836 -1.0402498271135117 0.3406979083432584 2.441502849786537
Ni 5.577017493075799 7.414663281228438 7.6544227545856085 0.08609287513502592 0.4584441487175072 1.0715293539530837
Ni 5.509115729490764 1.2927030670789053 10.958684032374805 0.7568669504416384 -0.6422374013195004 -0.24374263657243184
Ni 7.28357839869996 6.260931306732473 9.459092224581607 -0.8137981164110436 -1.1494425214907946 0.4104295685114415
Ni 1.8112400658612788 6.9636823235524075 11.00405964051044 -2.0491733333099162 -1.018116228439266 0.6477668157781618
Ni -0.009504565008765304 5.764062697898316 1.6378527677172052 1.8334233252956682 -1.298125560653216 -0.06095879907155952
Ni 6.472373305929631 7.823223156384024 11.483884131145137 0.65647694195765 -0.5438024596793538 -1.9223919793165927
Ni 7.570313147445517 4.529412975687145 2.741534405534591 0.12223152983911208 -0.9133237200122077 -0.09975546022378304
Ni 7.5061489241706525 8.484347317999429 9.157352185875789 -0.7385984911497537 2.1719548221152274 -1.0048783895927533
P 8.001802832404003 2.548086794160751 10.06954655221202 1.273462510688897 -0.7651816409549208 -0.2722291740478989
P 1.9542290142776528 4.762999901222067 10.75473860465477 -0.44094007839547283 0.45267047945852357 0.25130785051419946
P 3.196933135857243 2.2588292057058283 2.573350697887353 -0.024935586899415118 -0.7338625191266651 0.04421063307894321
P 3.8548897320597773 5.336450711011632 4.167824638379634 -0.1297224388995185 -0.5160620563412919 -0.14040048743865496
P 9.699290858925224 5.196311637081763 3.725074678851679 -0.3371770396741935 -0.8988756629076776 0.8386298307427428
P 6.197551966922744 5.4214704092172505 7.1581736430578635 2.3247850506768026 1.3129469419367648 -2.719680013887755
P 1.6377901639170098 4.740313031539329 0.3599737198935166 -0.05322929163778574 0.08722030387124978 0.7700515674527125
P 6.715033110567496 2.8669924211261066 4.147146696613612 -0.8883979033048055 -0.36989304184997585 -0.501584174440091
