# total energy = -340873.9569282358 ev
CRYSTAL
PRIMVEC
9.18351334858585 0.00000000000000 0.00000000000000

0.00000000000000 9.18351334858585 0.00000000000000

0.00000000000000 0.00000000000000 13.44100006941356

PRIMCOORD
 96 1
Ni 2.770179223241246 3.1301637593773046 7.085019866094302 -0.714543249972763 -0.37006530576178204 -0.39028574657371495
Ni 0.0669808722865878 5.866648672480966 3.7814640296263144 -2.0148367648115753 1.2549821924965225 0.09291426893223353
Ni 0.09825348997847076 5.843340915836324 11.175667073225142 -0.6695438024439372 0.8582352636784961 -0.46895610399242466
Ni 1.375111724467588 7.771722579946581 2.4832513717621834 -0.6259677176251994 1.1803027014047607 -0.5609658588325178
Ni 8.423797938714428 3.839939131934862 12.757148870887002 0.5534716073380016 0.8925183532310822 -1.6024570145522983
Ni 5.523543433710097 1.157177771380907 0.06762004480923048 -0.8220158763351456 1.7895348514428342 0.22681217936568038
Ni 1.6124137070119322 0.7365719458882901 12.051187411384811 -0.7031452925484665 -0.06316403425299444 -0.9976214509200239
Ni 1.5481015636776425 2.022889199031458 5.241223869183076 1.0433696036894158 -0.8590505604909399 -0.06438068026891493
Ni 3.383748110925175 2.438893166031313 1.7374646886724616 -0.38262488759434743 1.8867099525339508 -1.2229542175267
Ni 5.599013545650864 3.379505327800737 1.6035653919894293 0.30165262151533856 -0.23656463076675385 0.10007324857451798
Ni 5.120313733649839 4.389205059797757 6.97465607718467 -1.4954361310153534 0.6459493029534489 1.5278731684981366
Ni 7.893707186530811 8.273252605902917 4.002124567798808 0.7919535097321264 -0.8273524580567106 -0.3189875132493603
Ni 3.8689590338249595 8.949673458313374 12.621744396381255 -0.8658472716977991 -0.8996811895281086 0.36265127268589803
Ni 5.0887775491274985 4.952797268340575 3.983052247468 -0.6610010550802486 0.2958884653380517 0.004215837853560481
Ni 6.161356796390817 3.2362884385678017 5.471401282143136 0.4135794269943329 -2.291515232880079 -1.5162129585513886
Ni 7.25075105642653 6.807664908833669 12.433180237039737 0.05979537489107766 0.5910832470431885 -0.38605551054245124
Ni 3.731610409562838 3.073244344214385 4.800695330032112 0.19504722824925766 -0.22595857311613343 -0.4424896822707799
Ni 4.88925654011982 8.66329478092704 6.412996998182316 1.2034793966315402 0.08779725942064234 1.5605724585033705
Ni 3.0834655944687133 6.7090064259205935 0.5438963276619021 -0.862851679404585 3.771327798425563 0.08971401682738099
Ni 6.421599195049549 6.683742580952346 7.795927565836369 -0.10059621095752351 -0.15085176467896602 0.5861724400051325
Ni 7.5340532568719825 4.882424006257088 1.2143745286441687 -0.04670845980013246 0.15339767102927132 0.1866939711885559
Ni 2.026296282449568 0.7730240650567602 7.363531027673912 0.39467539100097837 -1.1059263433757147 1.565960205177845
Ni 4.5385014348064034 2.005082366827376 10.981941779433553 -2.1009977741803754 -1.4100343684100813 -0.02256425845376114
Ni 5.612403107978637 3.419527078571954 9.318699163250319 0.7307494274189802 -0.9431030081571692 -0.562363767621309
P 5.8877615694573375 4.8379666185830486 13.03112980537725 0.49806536265355505 -1.4520212543648283 0.7336583735356591
P -0.11659572100539872 0.17637396384502335 1.7640638164681828 -0.068253790071076 -0.01682658463903554 -0.2077561911754938
P 0.9048892135535088 7.707447170665316 4.773961204591521 -1.0088602570586367 0.27179414339300934 -0.7226188278920458
P 3.736587873747786 7.7772786054666785 2.4801335690116493 -1.1958465626766308 -0.05427444507284846 -0.5229927220228542
P 4.8651590013351305 5.373484827101173 8.94318438784643 -0.3933307040476258 1.2204013691978595 0.7667448716769827
P 3.314467686919195 1.7226617836545348 9.144503528749704 -0.3418783018046047 -0.18964714027960888 0.03919183970811315
P 1.010627266835913 4.371030887063421 9.97139440916297 0.3463463648782874 -1.4098952717290558 -0.18215751677078307
P 8.781523330589422 1.7739608887045621 12.222116470220138 0.6381575748231718 -0.3226335946423798 -0.19302839804701594
Ni 8.37754058244214 1.6424805294132552 3.3316068777095396 -0.6773051915569109 -0.07149260872334784 0.11529340795838208
Ni 8.204853799169546 3.3401356064707213 10.126987000860176 0.5940700975856542 -0.03767128929852867 -0.17641264386720587
Ni 1.86857862578484 5.052943480401182 12.529041421814926 -0.05338021539335323 1.1205145256025348 0.18631936145795652
Ni 2.744290899371567 0.04393300906710094 3.907178060943953 -0.0828874808238508 -0.36116208973488123 0.1597758066414732
Ni 3.203567580835391 8.859270953817767 10.149554566336356 0.9445698225106829 1.0162573208536563 0.8497717062921752
Ni 2.7326002869962207 7.921184258193841 5.933918825435129 -0.5626154786207989 0.2001855779170875 0.056370922590560986
Ni 3.0770095846494927 3.976479607030423 9.152030336214617 0.0010171284106047 -0.0499832738966623 1.0472565974486479
Ni 4.737058174922164 1.8344986080904877 7.4552926921314615 -0.4448669242537048 0.238416339263512 -1.3305466572963989
Ni 0.5075094114375522 4.636103813694998 6.515040524081686 1.5664335452698377 0.44720765657173944 1.2665572989286316
Ni 3.664414643066052 4.644736316155977 0.5795090737187408 0.3556056786930263 -3.1817414476428754 -0.26140534395951753
Ni 3.9111848277777033 7.305888870017716 8.102839660512597 -0.4265128472265493 0.10486989863221294 0.2447952462066623
Ni 2.570621480180542 6.275168076176888 3.927487400510394 1.2740176118614188 -0.17529447110236263 1.021627584026634
Ni 8.614842564986485 -0.031485675199430505 10.707570545629912 -2.0364175763061443 0.3049305209356619 0.509634041327761
Ni 7.155995566647406 5.5078763600947465 5.489533210716493 0.043046951788145216 0.5405194180527079 0.12012888167381247
Ni 4.441284763474576 0.7414245142929508 2.3939095630476843 -0.8162568623641814 -1.2937773109868493 1.2581767881744201
Ni 8.905160969559796 6.794578402443356 6.880905263755793 -0.3541841157551513 1.1548202408629402 -1.0787924632734
Ni 0.7665056073473958 7.855099696801074 13.30462768707021 -0.7130334981964559 0.9206822172598079 0.7159344738933348
Ni 4.111385416766352 4.384117393453734 11.288760202274565 0.566350777293515 -0.5852694685748888 1.0082799590751343
Ni 6.623039558327807 4.935679199630719 10.961431320926799 -0.20225017375560006 0.8062992369308372 -0.3356338635567897
Ni 7.86378730034159 8.898851895952676 7.755671635477114 -0.6187331475499731 -0.6517630814217484 1.0196408926139087
Ni 5.179776981984771 6.089073363550006 1.6432969437417455 -0.5678533299809705 0.856475600674912 -1.1604162468934789
Ni 5.140196039849859 0.2103685748660914 9.142608051613593 1.8523147628835324 0.388980140388414 -0.7062563273736224
Ni 6.60587557205167 2.496896235758483 11.552875288473503 1.14123556019997 -0.5829953278287314 0.9233471656864808
Ni 7.67070393412662 0.016379714244043823 13.204881876187581 0.999359002436421 0.0509968027628412 -0.1938426664181952
P 2.7421511407828354 4.919286628468116 5.9762180874939235 0.13994154552436544 0.830552453051247 -0.5643041791771314
P 3.7666638796623646 2.480843454586366 12.980820683056258 -0.9132059634874207 0.19013256455645963 0.030433633899508882
P 3.2957425033894765 4.30086884578483 2.8789009999806416 -0.015108316396348173 0.302445292619963 -0.6468507317217956
P 0.3942362855283046 2.187191434700996 7.28920242643091 -0.5048954982015111 0.22167460102879888 -0.2771199264812969
P 0.08444699614885903 3.73935211123795 2.4280364166596438 -0.4645872855007676 -0.8677966821146861 -1.087557868170856
P 3.481212737114925 0.9200961931547155 5.7256780705905355 0.5161857264033497 1.2010206506784025 -0.11251455966166428
P 7.78822535326826 6.872748467281493 9.97816816854086 -1.6475107123578272 1.9277455303190218 0.4336594855736596
P 1.4912464331075173 7.7411782148559265 7.643654814181337 -0.08315359000104387 2.088522267421184 -0.12375593690343849
Ni 4.520262977479272 6.411782019378499 5.91991396771918 -0.10626189388373312 -1.1049007303246776 -0.3054979634033577
Ni 6.489281687748922 0.29484679496002203 1.9773591770090764 2.5983110891592545 -0.8164334971513616 0.7628457937328926
Ni 1.5529320916504878 1.7428012282257324 2.898726368398472 -1.2247354777968391 0.48353811557165755 -0.8362430756781212
Ni 1.3495172730221123 4.06703823125139 4.087017882691927 1.8985858780359304 -0.6041987013792239 0.6896562569230962
Ni 5.94520444487587 0.4558503126678755 4.6676556101898745 0.7978588194729679 1.5548882636343995 0.8887226336340759
Ni 8.719185642605249 3.08377783391943 5.371668328179066 -2.213167034687479 -1.0912499723104627 -0.3243104681241705
Ni 1.9759247122384327 3.0471447995398093 11.350991361504965 0.952619689398353 -0.5569359117375183 -0.07889018673899961
Ni 7.126121598024468 1.983941919311235 7.442469752571606 0.42568957999430557 -0.7355095678117849 -0.48185944231765404
Ni 7.276887335154131 3.9890334696518677 3.4994447659827763 1.0958404198946223 -0.13547116845783766 -0.5682539078534987
Ni 1.5491393006756113 5.540266611349929 1.8190106129836365 -0.7379765412950388 -1.945491027227901 -0.4523323793928145
Ni 7.667737659344815 2.175078380715857 0.7693166807551677 0.7006384669662127 0.25654133099899684 0.9391681918791374
Ni 0.743218054431918 1.7731894735910279 9.713636150840085 0.8513776173267145 -0.6107727550523159 -1.2799532606195634
Ni 1.5182826961342415 6.03986809952243 8.713934509725263 0.2388832515976015 -1.9413808617142692 -0.9416282233838557
Ni 5.369067557224865 7.6476441323399 3.9131455078579362 -0.3104239399500654 -1.1822819366183188 -0.5607259749075698
Ni 1.4442452122614664 2.9178501164035158 0.27200372408615203 -0.2724842274814984 -0.39765144291016674 0.569300089729826
Ni 7.800026167802682 7.36638067183736 1.4386845949847404 0.6156732776777267 -0.13073622487601358 0.4617953245779273
Ni 3.2177469253032105 6.345633173392938 10.11155686188684 -0.024605200143189884 0.01795992691253036 2.3659918639324156
Ni 1.2185236399333923 8.11979609938914 9.802359909112429 -1.031319100282785 -0.6430694103024925 -0.0371642677551231
Ni 8.502160857330948 5.32416936091452 8.736690337223198 -1.1260668228793318 -1.1002927992390212 -0.5968587160743849
Ni 2.267216569216918 0.4949197331144082 0.797053645843352 -0.3132560100822218 -0.652873797987424 1.4568916950832522
Ni 4.7769329894812795 6.4185319016219236 12.268044138366522 -0.9636540928356436 1.6012457678530165 0.839478037675651
Ni 5.8102710846001715 -0.07394105698358311 11.511638558898472 1.6934529834158962 0.43447426816547113 -0.3532641750440432
Ni -0.06961837729381443 0.42880670283054645 5.83679490758719 -0.39538861501791905 -0.8070510274951972 -0.39748329276341865
Ni 5.486377755561607 7.293233988750452 10.281706240446702 1.107826388611905 -1.3052829976336038 -2.1568909858035696
P 9.08486395696025 5.9558848707930165 13.345487892601733 -0.16757679074313075 -1.6069908978669099 1.3876778550917521
P 7.2401900161817165 1.4175762897649968 9.49937284800197 -0.2669674114283273 -1.005187950413372 0.8693596557264319
P 2.3400326458265965 7.446672128237716 11.969183229762146 1.1580258922844315 0.36772868720880536 -1.5157388471284479
P 6.680317130507724 6.101204784561658 3.0083912919492954 3.1635228677523197 0.1789032714995435 1.6099492091642855
P 6.887157399580722 7.732573262934718 5.9199810073659505 0.2690065533455432 0.8973047188761321 0.1462919132224255
P 5.785236827463334 8.034811867714783 0.33445528763470306 -0.04445720187211053 0.40344259567064716 -0.9815237740272129
P 7.300773653133923 4.054401717010639 7.235007759651151 0.7880004386216493 1.7581853905972753 0.08460986283159622
P 6.099386448936898 2.113273336500554 3.49480801013964 -0.062419699887802174 1.2938909537465781 -1.5731135283931745
