# total energy = -340895.3149990755 ev
CRYSTAL
PRIMVEC
9.03699431793663 0.00000000000000 0.00000000000000
0.00000000000000 9.03699431793663 0.00000000000000
0.00000000000000 0.00000000000000 13.22655465768988
PRIMCOORD
 96 1
Ni 6.251647955345268 2.0433005234226096 11.418563815072272 1.6394680445590089 -0.20796445053155796 1.1623443171541272
Ni 4.701207018424544 0.4994647255200787 6.210806164021116 -0.39124476805287456 -0.3262053711540382 -1.4567662252489813
Ni 2.680390536426568 1.6012017330148438 4.708085074665818 1.3623653444688926 0.802723860874753 0.47061240864892495
Ni 3.4090253000862925 4.332000622764004 4.919642914922637 0.03934070658115161 -0.05405230175971336 -0.5804345090800906
Ni 5.011203028468444 4.604700957984967 2.804519073159769 1.0014086858765978 -0.37507227205807014 -0.5327186910613664
Ni 7.1777410410018785 5.9192853848005775 2.595459961783139 0.26836454888617 0.48961826032746647 -0.2370318002111595
Ni 5.072564218690816 4.369874665212011 11.566595201310358 0.1944774717887167 0.47173983738514885 -0.41681233210933377
Ni 5.413792080488548 7.690716976463263 12.435725401793377 0.2843827786912973 0.3922948065839437 0.14134793895358883
Ni 1.9560121970076014 6.366544298863273 0.4305070380221637 0.006096085595408856 0.3422354280337074 0.5638529505723258
Ni 2.9295495019083146 1.7346239145234037 0.40699277926537203 -0.5754488829400412 -0.9589212061363483 0.17895417934213695
Ni 0.7977316208674214 9.226771018710346 4.616622560656743 -2.297280674608947 -0.2736003433638127 -0.8122919641791623
Ni 8.498226624992041 2.2325984397095104 1.28992066240399 -0.27237984069315024 0.9015105294273635 0.18271313216393695
Ni 6.912216079129452 0.6813893582867386 4.939747515789754 -0.7315325854419078 0.33256319505126597 -1.7119952651944579
Ni 0.6761650719734023 7.358291146959581 2.4834310565063054 0.44180422616798104 0.2198527173287117 -0.4680204795520327
Ni 7.5130315976484905 3.891320640436491 3.931104199746646 0.5103117841210759 -0.23581618263650359 -0.2659466834732968
Ni 7.617363695014809 3.9408524053273344 12.622921313242912 0.665926260296008 -0.6685986649218485 -0.8134661869929216
Ni 7.870200717112241 8.847849854347443 6.864991458842993 0.9279448123594922 -0.34166310047000514 0.5799251735438399
Ni 6.908501874537199 0.5587184887085997 0.37961701291181743 -0.818509920064416 -0.38814118942688636 -0.7252832620980864
Ni 1.8642415214982935 6.497942193684085 9.066445705641845 0.7515517088763121 0.4210947615347716 0.456468255938059
Ni 9.013579289912702 4.86832815108763 1.3439636947703872 0.3790381986843537 -0.6643059510837656 0.03060666914226342
Ni 6.5972135743310325 1.8815654392679975 7.172099245559194 -0.6189262373973857 1.427163314780884 -1.202858989438722
Ni 3.4986722819722926 4.195198605446436 0.7036908524297097 0.08034980200366162 0.21788968006506992 -0.4372351187400599
Ni 5.934386202011415 5.640195894721408 4.862504712062696 0.635712455716789 -0.12438894250174706 0.42543298389880924
Ni 5.32535605581754 2.878309745124683 9.490634981059523 -0.393972965617315 0.08046704430781626 -1.4668318370150994
P 0.32117838659488074 5.549636176427093 12.485483995237178 -0.5968170642031722 -0.8234891184465625 0.07227679518754004
P 4.083935133573408 5.896683862452101 12.758506047449588 -1.0255397745968469 1.1793339097335882 -1.0133290914632678
P 2.3681714258238027 8.521496884907007 1.4173838499754905 1.080777869134545 -0.7177797546321897 0.2804803583130976
P 6.291067323791512 7.747903075392156 5.649286207128578 0.5583780435006835 -0.2260655310076429 0.878889706704054
P 4.727839040160234 0.8288731026798365 12.558560744664897 0.2973089998346622 0.329918044118935 0.939093372777144
P 4.046440644879354 6.22882954513739 8.114861066910231 -1.3072120963355165 0.26061215863426085 0.39741695830185747
P 4.851935043714524 1.2652605127900265 4.042127287575504 -0.8246458577588249 -1.0929368730945823 -0.940115129173439
P 0.2243000019966646 5.495323841635272 3.552745136419358 -1.0897165663850716 -0.024268385629061428 0.3543003296180414
Ni 1.2916756466663148 1.1684110465730637 2.318720993880235 0.3499273973613264 -0.03539457744921001 1.3648469732401656
Ni 1.7262014359833076 6.781242923033302 4.683721338459703 1.181871074333145 -0.6784087090337348 0.1301942363296145
Ni 5.885053250991689 5.558908132416512 9.069157707583779 0.47955676232640637 0.453469064100419 0.8909839188644268
Ni 8.504281411067003 2.315431528012643 10.226044779227305 0.16829952784176822 0.5210523104670317 0.4086863605680897
Ni 2.341394812181845 5.403074205436452 6.879395523805503 0.025991796078071366 -0.4383561197183805 0.5154388209349962
Ni 0.6015881815181572 0.06130335345986632 8.959535353846892 1.0772693417606545 -0.2979463763083449 0.2703332425767667
Ni 1.50778632457174 1.175098422237947 11.28062404019226 -0.4658280998864042 -1.1616046107746252 0.6465010616918607
Ni 4.061785460932017 6.669220343652368 1.67079201010268 0.34226936659543633 0.9913068215559055 -0.19311170178944162
Ni 5.66538199739442 7.744342499700314 7.949608784635657 -0.30060309720490164 0.6464511822905318 -0.07395932509628553
Ni 5.445484818943609 3.066929886850954 5.017625620204973 -0.41952458883417426 -0.2208405351632777 0.06093540203279183
Ni 0.8418086560943144 7.37564217571171 6.914405742809994 -0.3549037675299952 0.7628882169350539 -0.08732417643896573
Ni 4.785486025790355 4.451795017106829 7.086920153576866 1.6167361501791317 0.6916768868975507 -0.561452054440317
Ni 8.08632946900595 7.355191457968966 8.890281252941126 -0.1486025636334731 -0.7274704995573923 0.548327601243217
Ni 4.836752893556412 0.3285354035256663 10.45109394803832 -1.0594140587467884 -0.6329878576967742 -0.6356247810989892
Ni 8.299295272950053 7.183542791240872 4.669476324594088 -0.8053733826824581 0.5388700553747429 0.017440306963634484
Ni 7.443528075704415 6.181059994104185 6.891061379543067 -1.2248666040580647 -0.10740963433493114 0.23841608215319585
Ni 2.1761262633178147 5.141959296705192 2.759799507649399 1.0015678371622816 0.0865243062454897 -0.5489657490478481
Ni 2.374759394553127 5.271857050498475 11.470834692887475 0.4930938775808927 -0.8306414132206275 0.02413031738930038
Ni 1.0526652256057356 3.2676053787622976 3.9233667253624933 -0.5826975940826544 0.12569120625293836 -0.8410641512158483
Ni 3.757067055466891 2.718662206616812 2.6734700063128285 -0.3536092170882878 -1.06925495609661 0.46128856014483777
Ni 1.1480506987717374 3.429277203957918 8.354076627737829 -0.09846579487808203 0.17959669802214231 -0.7088906796726758
Ni 3.400946227323582 2.709769804381345 7.13577866240415 -0.20751116504422326 -0.8208941040258767 -0.06681705762454944
Ni 4.161309877414934 6.989572748982694 5.9446883753329915 -0.40642301845520973 0.49281234178473193 0.01304037812372593
Ni 0.6950795007120514 7.2364092069700146 11.23659309363549 -0.017818259128343505 -0.5017464110495681 0.5985736418829627
P 0.180084700759403 5.569309712673648 8.062854973023382 0.24183513513707383 -0.1721430699575745 0.1243380346591536
P 8.687849873068044 1.7148871193178565 8.040223628594237 -0.9171484930749365 0.14323975665966296 -0.22634398148001017
P 1.922060210017107 3.2278787525152355 10.50415917763858 -0.8091284788495161 0.9724418663306028 0.291084359081189
P 4.0162751584342455 6.191316982455053 3.872007680256191 -1.6639847987534504 0.03975593974169927 -0.33296505847537494
P 6.934591676624386 4.128623069604282 10.408663453144051 0.5291595129551984 -0.4555236326366026 0.3836762116769973
P 6.323492058772053 7.706116014480778 10.21694452612658 -0.4974503547773755 0.2775148479268705 -0.4302813131300461
P 2.4383256113460834 8.574688632425252 5.759569165137229 1.0187309792051293 -0.5860852796079649 0.6277731462650543
P 6.837706062430855 3.8892240577956083 1.5105914075533344 0.39236036971455657 -0.0156904141520633 0.9599799864181661
Ni 5.341134647589008 2.6559002823024693 0.5334564752847967 -0.1733103507927983 0.14664415435552164 -0.6782477579758383
Ni 1.5253000192184203 1.0936208830560739 6.85599784227314 -1.0022370953151643 1.3788247755764964 0.8973952217074094
Ni 6.828714253259831 0.6671967589871456 9.115199385337087 0.43097551098359327 -0.33789977677283095 0.5770370533627676
Ni 2.777158669696256 1.7048379818322486 9.310952426539428 0.8240329067651744 -1.124781785519321 -1.296098502920858
Ni 6.360760622612564 1.7504476912655798 2.5444849889278602 0.5055346744474067 0.94384811385331 0.9809558173388847
Ni 3.9741989137103326 6.951264930815885 10.440751108243104 0.5982435122370535 -0.3458190316199077 -0.4936613200485885
Ni 8.106735001777984 7.179846660636902 13.48672059088172 -0.18660835345328508 -0.39009239961598624 0.0684075420401209
Ni 7.612086090436036 3.838291558812796 8.277878500533557 0.7806720232810362 0.09916102117289373 0.3349633198523263
Ni 2.9555760450365085 8.30048815617676 12.437643051950253 0.30047968425315996 0.2808773366412001 0.1690981124836636
Ni 0.29619561629005725 4.891191746266216 10.284003541155315 -1.0256145936988401 -0.805011114247033 -0.16286113043501632
Ni 8.55373184301057 2.3305052342410555 5.771433834745911 0.767441383523375 0.8652116949963293 0.41448934040311197
Ni 3.73871292036503 2.5120765205367737 11.48026569997379 -0.24354646140122574 -0.0961029510728603 -0.09792277789041846
Ni 1.0026093150546713 3.0701741677478362 12.645340288309725 0.11246827980476115 1.2961712651403225 0.21872348882027493
Ni 3.1358188931933917 8.614505628613731 7.926978343905927 0.15389646504256074 -0.9006726069071005 0.7484735841716207
Ni 5.590682203818848 7.68241197884701 3.466124643871424 -0.11482006786638935 0.952773698477714 0.5732361915594386
Ni 3.0428734084456583 8.51020967922398 3.552255331336876 1.0217628240529177 -0.14585791100880044 -0.30902860226443557
Ni 3.4283283195730356 4.349035356721172 9.189082234642246 -0.27146067131299056 0.2499325674332276 0.4312621889860766
Ni 7.2372315734369135 6.163248078650827 11.336691359246407 0.6276083385524158 -0.6677807970062435 -0.03969011950077036
Ni 0.605714473043273 8.923733494155583 0.3141096497772165 -0.1277457747891219 -0.07228579404860454 -0.6582250349970084
Ni 4.585858825199452 0.3509399194018531 1.6241285871524227 -0.33199832368673143 -0.9077084307079593 -0.015026041095187025
Ni 6.096546024890689 5.532709886399625 0.2676884182699576 -0.43455705768726444 0.8951524484198197 1.171519555895492
Ni 8.18894453748534 8.786859180884882 10.898998103482736 -0.8981156448132016 1.223949491560434 1.3611543548799268
Ni 0.1484561249627484 5.119321626380148 5.781511890612773 0.19109492846972898 -1.5453587268774096 -0.3346344757579978
Ni 7.820126732572893 8.730594855358445 2.556045111833966 0.32586238599232265 0.6708375815546963 0.4398805267827069
P 8.401350047792652 1.7980816873866594 3.591089102562735 -0.1272590649606905 -1.2775179117051936 -0.32185712148767154
P 1.8236111958370576 3.212407418544587 1.696517621325954 -0.8289933360942433 0.005347380354842403 -0.6187647721188569
P 4.804563120423555 1.146297521908241 8.213703190335448 -0.4892091978145058 0.0908905536339854 1.124733963000521
P 8.54225486045057 1.391525394938333 12.447748218799541 -0.34577969374153994 0.8068620514128426 -1.343167431384203
P 6.269604462704894 7.6669858298470706 1.381632597451377 -0.028904084628859898 -0.3661112062100405 -0.21981286522971177
P 1.7054434604397446 3.414393274606482 5.951870074577428 0.18381613542012856 -0.6545000207369372 0.8012020249135878
P 6.914529549629736 4.093496273375362 6.235540416987042 -0.04658607528965525 -0.05931252171738817 -0.6677134341034179
P 2.2300500073615415 8.325999590638876 10.31734733844007 1.0857604099508011 1.2536863565032346 -0.9585867056150651
