# total energy = -340870.05071013595 ev
CRYSTAL
PRIMVEC
9.27287816657107 0.00000000000000 0.00000000000000
0.00000000000000 9.27287816657107 0.00000000000000
0.00000000000000 0.00000000000000 13.57179451366557
PRIMCOORD
 96 1
Ni 8.934594193008007 6.507826368112646 0.9170978400447778 -0.09850127610170778 0.2185728221750236 0.7434025974066165
Ni 1.5842526703542243 0.6634150785888889 12.750185074046227 0.1483318264705897 0.5253833337422178 -0.5492303155631445
Ni 8.604535371432172 2.4790019469928124 9.625890034052144 -0.5417365782892606 1.3497828798181917 0.35203133107820667
Ni 3.2064685034755294 2.4592414438524486 11.664197524078228 -1.4285180290365656 1.1682308578418912 -0.4100930111076292
Ni 2.4462223230598297 4.813671547021871 2.8224443134689228 0.5391708744446133 -0.19665982415201613 -0.8831325411408081
Ni 0.9820534235492046 6.72061110089628 9.883252273521217 -2.0712369979781746 0.7923828839600611 -1.2486295108056173
Ni 4.269316513539041 1.0365872194048962 10.003308225730642 0.6940538717701595 0.7649916364313019 -0.2660240736784515
Ni 0.11614187038138946 0.4496854395312032 9.058792339845683 -0.6606362155416622 -1.8223806943282614 1.6956607897004925
Ni 9.139394977784201 9.331019002840803 6.96784086651201 0.4225309797606659 0.007050736199194308 0.13020426363194348
Ni 3.384127574177654 2.1384462274559772 2.8360568984572168 -0.40264915323507433 -0.1504576145643409 0.5986505178674851
Ni 6.624850089197296 2.836777401082278 10.77426736216608 -0.7635178800992528 0.6147085997716123 0.24153174496404214
Ni 1.654782180858967 3.218217239974282 1.2637041125140802 1.6028691623890523 0.3000731928433606 0.802311713037999
Ni 7.3466045527966415 5.461521172503573 2.771183843567501 -0.12777045737947026 1.593096913493637 0.29622039475617373
Ni 8.656305849626753 0.8433098401906577 3.3066183683590915 0.5647469231415048 0.1964543930094294 0.34960575235584956
Ni 1.8896734549314924 0.3558012583510408 3.848580999303106 0.5477964113300953 0.7764189044316371 0.6121444385888619
Ni 5.449800254638992 3.181468824232723 3.6398058589914997 0.022486096917658047 -0.7387303887419278 -1.6204992167659897
Ni 0.30519174448924974 7.43563345502594 12.236615068426229 1.3452446256282056 -0.517995783028895 -0.25174390961035353
Ni 4.9565202334964376 6.6612924999629595 12.59701381971814 -1.3670617215032972 -1.1339691084455439 0.9219870521141604
Ni 6.439522348341685 5.499632701319571 10.776018081543324 -0.08967596450059394 -0.8206819880150705 0.46879900958927007
Ni 0.513537550546797 4.558741583467258 13.293192758347313 -0.8349909484385749 0.5455397540854346 0.3544198859150412
Ni 7.057096026965908 1.7221403670680713 12.914105448618479 -1.81424392415374 0.5057776436961483 0.6578859064900348
Ni 4.760936689509319 4.060908579198509 9.151827125395787 -0.5044771797171699 -0.5969451051406043 1.0317096508529846
Ni 8.872753369243068 5.626170395291136 6.801707983235259 0.7392430667122881 0.014401520137310681 0.6199243396445968
Ni 1.3624268814646048 8.211662073895369 5.560880060888837 0.19966107287218518 -1.4891862934508997 0.6183968472564769
P 7.060888634091393 8.978900004366363 11.816608402405606 0.3512330035466274 -0.641709039619856 -0.20241678124045137
P 4.019486632916011 3.651789199305105 1.593328963396828 0.0447482507499681 2.03001835764802 -0.9498791505387384
P 0.97966102101039 2.9291630851683617 12.017145517851 0.5074717435691195 -0.6432182771755309 -0.3823904029860382
P 3.8532517479806287 8.848810798098807 4.876685389861073 1.1902112187677245 -1.1276675917075483 0.09555916275424832
P 2.5701914298094883 3.409331256737724 8.67359791262823 1.3678461650778055 -1.0426422386050882 0.20357480610429454
P 4.896673078513843 8.54975120786893 8.891398345153124 0.09669327635869154 0.24919337527435798 -1.4558357430149123
P 7.2837437124453865 4.31983515319587 12.702493734909106 -0.26232091379525146 -0.10538823302952817 -0.549519307558473
P 4.0046963924144245 4.962640333014336 11.396601736384984 2.114326115858165 -1.2532222723826223 -1.0355542214100553
Ni 1.0908335560408078 4.239133295462136 10.071438842681932 0.605572441798299 -1.225420933899638 -0.23487670154136966
Ni 8.241845291972274 3.9032603793442986 4.690859695453779 -1.4942297694120783 2.6392019138363447 -1.13570074642467
Ni 3.7480694921753046 1.737755893716768 5.219915407429669 -0.4379457716538393 -1.6572685630755395 0.0356354898154225
Ni 2.826261957365163 5.733503958805781 8.911782912986752 0.9264201481848497 -0.5778955447083209 0.5417648604240347
Ni 8.77311629451608 2.2400213336969643 5.871429674319664 -0.09578413428086086 -2.2580880635698857 0.4177996357232676
Ni 2.826697782633862 7.461708788123406 3.4752614197259857 0.8923967400515533 -1.230242009437365 0.5277469488783878
Ni 5.681260563830272 8.87343028934126 0.5851705335403724 -0.6251097405002782 0.6180574616391872 -1.8198658983262077
Ni 7.608146078406195 9.198824853254212 5.33285998945686 -1.2631883824563988 -0.3382545890090884 -1.4961447270466042
Ni 2.577192452742841 8.522896953014639 9.050418930959832 -0.2870364142640605 -0.3971768172665934 1.3203103242803713
Ni 6.854084907654795 0.5108632525150368 9.6851984348196 -0.22945835873927578 0.12680320837019451 0.034209041781541084
Ni 1.9468778396677213 1.6034011635427985 9.73831904405934 0.12498620976611377 0.9382644491179454 1.2759559665347122
Ni 8.814009686749307 5.36578797943876 11.291366625174735 -1.450300672129296 0.23650780938688948 0.2846524874129162
Ni 5.530687569933875 0.5871725479129696 6.833669739323577 -0.3545481839627894 -0.12850065067727545 0.7752655075534842
Ni 6.100403924903749 4.424368307537174 1.1091409991895735 -0.17451157018975105 1.1735407000905789 -0.7052898496952951
Ni 7.333576159125966 3.6327334348971054 7.752833576599548 -0.5532993434261955 -0.5262364257711324 -0.6602873168426757
Ni 2.697628592952622 6.068811229362116 5.594036163670951 0.125638498638132 1.1268553802188979 -1.1339068877490408
Ni 5.4403882834107105 1.9868346712171474 1.2307816862590133 0.20523033942984656 -0.7513830445089318 1.0247044231797449
Ni 5.685053170955758 7.584861881604011 6.048881032553302 -0.09377044628494173 -0.1793778971431169 -0.88294845015446
Ni 3.037229206049543 1.112151902694818 7.633455471776119 -0.27361268465898686 0.6822730770851475 -0.960223726997856
Ni 7.851429307120687 7.605141665915591 9.819003283324767 0.03502176749082356 -0.27563562862628666 0.8744591817365263
Ni 5.886562084021569 7.534621428288906 3.5112670779351447 -1.150563008248483 0.41355243041113937 1.1901091459722213
Ni 3.65500688799103 6.501038621374613 1.2938483845031437 0.10993008676393971 0.2627965678800893 -0.006533944463775843
Ni 5.008262893056845 3.318049045140474 12.893150598784318 1.1449099237277636 1.4983551044343615 -1.1129523969845607
Ni 4.779074438989634 5.453073580593262 3.234321447296604 -0.13052565152710424 -0.15290041967787862 0.04154594176258652
P 8.415628299646396 4.864783650874374 9.126163508084067 0.24784277478373448 0.5982232005220793 0.5545036481469419
P 5.863732258244199 6.906977404094324 1.4049523002359365 -0.05811567319580959 -1.641980012347585 -0.10267109120868124
P 1.7547067148057331 1.0616981731843915 1.907216812928327 -0.5857361237986622 0.954219686895621 -2.131885207787851
P 7.023314932202724 1.8882639774667647 4.544447441941744 1.4077571423401305 1.328913235458034 0.6599219630834571
P 0.0034522925007777544 4.7354270019733535 2.2397533475211047 1.245907483888764 -1.450268790450096 -0.9454763934853524
P 8.901425108196612 7.830231507881423 3.929523024578526 -1.2551701401376125 1.3450710761648188 0.2926388480525025
P 7.658024889477062 7.717222942995635 6.86641876275897 0.3861413853880382 -1.2912879689060923 1.0272876105258888
P 1.6966306795321067 7.0290362979641525 0.5221353630816374 0.19445201786741997 -0.60533461475588 -1.0309146657555148
Ni 4.806475793649312 5.410492524553586 7.010469214229779 -0.43449355143918067 -0.1675356530925502 -0.3617408450564867
Ni 7.572705138470733 3.0954350616159734 2.5024623284780874 1.171115378478538 -1.0684324601953148 -0.2946872459410989
Ni 4.9617037723305355 6.428274347258033 9.327921861569623 -0.9377772250688818 1.6175920704215236 0.41114407807996284
Ni 5.602719286683919 0.8552245612066376 3.5289384016491714 -0.9433734882097365 -2.1634519268505388 -0.30140810960470027
Ni 7.4189330016445245 6.1672799214538685 5.032720108933293 -0.5911842913974269 0.7926592775498994 0.12639337452628555
Ni 3.1911868004369 8.547284622305655 13.440473880533327 1.2484896427936434 -0.5976213052720224 -0.1146784000822025
Ni 2.8016981033910553 6.591124631702456 11.15988277804734 0.46232780004262963 1.3255908559530203 1.3575550675644426
Ni 4.81022203638451 2.888983704545557 6.945908655330598 -0.025288085142827415 1.133211661454229 0.13292886165195816
Ni 7.206602639885704 6.673254512657032 12.939118109890565 0.19852078862015488 0.3121437508546495 0.19097460084178078
Ni 7.4091501152939445 8.343114393237366 2.0482146329426327 1.9517691469271292 -0.6695582006216404 0.822584604354422
Ni 0.9192241109833442 2.8094965938373466 3.631662417481473 0.4259551749508664 -0.12676952691878166 0.060973197249262735
Ni 3.037822670245218 4.663960930784811 13.286040587501624 -0.3983893495174558 0.36103533434902985 0.6733138110093307
Ni 8.855181265324255 1.2096654883466549 11.685966532605828 0.46971715052816526 -0.06342474411354883 -2.5549067540316903
Ni 0.03873744808487528 1.9984072230328085 0.4367915025923596 -0.8207053850538382 -0.13570436751456627 -0.004377560242405365
Ni 0.6932004901971301 2.410410468002071 7.776637981860754 1.1397227230998694 0.3141001032500719 -0.4002685688180397
Ni 0.8151499641058823 8.3843323362026 2.0386737687093524 0.05567775317827831 -0.42640023290808504 -0.12982399747438933
Ni 6.846416237501308 6.092011970261783 8.149685866110792 0.8095138872133929 0.10177094799191505 -0.4338908848581753
Ni 8.520050179451012 8.998512141457809 13.51097928155512 -0.5919587076696063 -0.46931014489773365 0.599403851093742
Ni 0.9030308840316704 6.181448879125607 3.7101081839838357 -1.7469679246149012 -0.43491906901237354 1.009778140887216
Ni 1.8793156501413533 4.665759869127951 7.162419230517705 -0.5333694372714879 -0.6060246988443692 -0.07472654227961323
Ni 3.6395582731473666 7.660408019137818 7.143879965417503 1.344021551854382 1.1028052812482296 -0.4302273199636591
Ni 3.8360969235744 9.07480010923621 2.2584548879873108 0.15798709017216664 0.4200141268760831 -0.8351033056467231
Ni 3.1428287413674507 3.912013976230504 4.8171182757958135 0.5767915130108647 -0.01277966826317154 0.47689438500289477
Ni 5.1100605483712105 8.298131661780817 11.053615595509298 0.414863178802763 0.17322370461626294 0.3301769542072765
P 7.630558624670981 1.1062821708844708 1.435257920303199 -1.4943187295814588 0.5421068171444857 -0.29441393767505425
P 1.4529950814514334 1.2561504260485052 5.7679174638524815 0.6305373392737528 -0.007989703073695918 1.1193688420338659
P 0.9798464785715384 4.348720168344736 5.299582411972194 0.018109565116517196 0.3803114089698224 -0.7510004643585324
P 1.6898614785501898 7.022063093664972 7.570985019591081 -1.5803396138279686 -0.4716771024680134 -0.5348984723215047
P 5.861516040388475 2.1860531834027754 8.707025710737426 0.5639822770613384 0.0016771305921067891 -0.25975932371566235
P 5.389610003168275 4.388241174625462 5.200956080953467 -0.18799546360879882 2.2021799395483557 2.2827958507292103
P 4.412415567721159 1.2916284574961971 12.901361732304164 0.1871310587259745 -2.4148466806515896 0.2900150372764102
P 1.2385226848613482 8.78926037521405 10.769910964054704 -0.21070036140548226 0.4294163940265895 0.3837060364736682
