# total energy = -340888.45203282184 ev
CRYSTAL
PRIMVEC
9.09524444559208 0.00000000000000 0.00000000000000

0.00000000000000 9.09524444559208 0.00000000000000

0.00000000000000 0.00000000000000 13.31180960752549

PRIMCOORD
 96 1
Ni 6.79781293631517 2.149852009651758 11.464329980565305 -0.8260653638141707 -0.26210442690907115 0.42601379610294365
Ni 5.240688907748212 0.6773583205283392 6.078331810483726 -1.4301550504193563 0.016645064755848753 0.5288196131172763
Ni 3.144235077859054 1.7102242772373446 4.7045133371774455 -0.5193237578116991 -0.034710149787675705 1.2229688728147194
Ni 3.4908275554971717 4.621475575025072 4.8424236182066265 0.0888436984072857 0.029671301812187606 -1.0764242201515397
Ni 3.591784768129578 3.187810393689852 2.753148664707627 -0.4281645238973594 0.26832161146337663 0.3650629674511842
Ni 5.5280622492197 4.664259604594697 2.6196977819985956 -1.5022577819228773 0.8965331308174301 0.2046546694320346
Ni 5.4299154671011145 4.188732942607301 11.87137854760591 0.022077805735645845 0.43413539676881363 -0.07076395808743943
Ni 5.663008390105016 8.045653179696094 12.341565391617047 0.318940976282141 -0.8085592366096075 0.09959296650398977
Ni 2.1976566141198597 6.514423311882691 13.227492218199556 -0.7132813525412038 0.5314182270823881 0.14447337195644797
Ni 2.46942251623304 1.6039281561531162 13.479138530216867 0.39618257167412413 -0.6836871838238547 0.383949519943042
Ni 8.256881135207355 0.12472035762742326 6.492794820743965 -0.2931312143078887 -0.05966244885763919 0.3043329965609791
Ni 8.559625439683236 2.536772800876551 1.3986448523694708 1.0878162640385651 0.08891414663390493 -0.09223241237386051
Ni 6.968412435175173 0.9894443505082511 4.541257338630902 0.26811592321047373 0.8798484710728977 2.4874335508803807
Ni 0.9372467430039826 7.1719821949173825 1.8882800574411367 0.034293631075547386 1.8324028544509539 0.7826934245864391
Ni 7.607626210292787 4.022244494207643 3.395709489757559 1.013981637445602 -0.5093859298726968 0.8136217387341795
Ni 7.883366734200595 3.9250981889710013 12.677874785957668 0.564041669544364 0.43548445459754026 -0.8532645499367821
Ni 8.105954649944097 7.1872531102335815 8.894884333297819 -0.033709733547619365 0.8441001098286947 1.4995712362296496
Ni 7.156720374845565 0.6223984873054705 0.10515466791437529 -0.5119169238246668 -0.6110285798168638 -0.03896763951244902
Ni 2.1068042179950757 6.585675456365778 8.909088376448091 -1.9501604076791121 -0.7429063744964882 0.9889671176791355
Ni 0.458894188587317 5.028142141801663 1.315421547231719 -0.8182780065592682 -1.3549633955778664 -0.6681674909217009
Ni 6.714391354849906 2.2294626837212586 7.221815948406952 -1.2146611242799725 0.3607183173292433 -1.016763056845481
Ni 3.4073695930543826 4.504183303483855 0.5331750494493767 -0.5644479038438472 0.6856846738698579 0.055800394799071645
Ni 6.344369527685564 6.149576678771308 4.600149045999805 -0.23131032434635004 -0.5622976902700638 0.6273828528051711
Ni 5.207882361264871 2.8785175132594367 9.640159572194623 -0.07692843502693848 0.44802681003892514 -0.3950168335007971
P 0.34213762694015815 5.556875983419651 12.405595002536947 0.4163706165862248 -0.12299051949232366 -0.8146272971805583
P 4.163611877626156 6.015721967211747 12.412983069547874 1.2119874341025516 0.6605084317145464 0.06802676166193446
P 2.43396015839036 8.645393594198875 1.098037930323195 0.24882159375723598 -0.29009551280535845 1.1540617654303609
P 6.5228091272022475 8.010709250783147 5.84343166242126 0.5407765283688365 -0.2533793883312475 -0.6153032959328177
P 4.726043599676854 1.2490499108836361 12.616600124560865 1.209289318445098 -0.3179356749460782 -1.9448024858013089
P 4.24401383795683 6.469683804771087 8.077605682732031 -1.1096295032589147 -0.25189560469686945 -1.184641695099747
P 4.732473937454431 1.388343578583213 3.212285696319925 -0.5763886211454912 -0.34594835810892033 0.8358820927942765
P 0.15614897458699806 5.739044633132667 3.5889570566514326 0.236930755856921 -0.5227273841766095 0.049698138556075695
Ni 1.0311005697745952 0.1417839456111762 4.5227539734615885 -0.8397354051020955 0.7985260207433215 -0.6171346927146018
Ni 1.7046397971872276 6.881052612892808 4.568905972025608 1.1620787221975664 -0.24824309554594667 0.2772734213400257
Ni 5.856537000050273 5.4792025964033675 9.049833645150922 0.8845571894024765 0.3529754401590308 0.3667151583426265
Ni 8.847144305064823 2.4222363883828666 10.118080102503177 0.33738349925804473 1.7900215612712658 -0.7566160107730969
Ni 2.5056761603368933 5.655095527493287 6.741473354519658 -0.2839724306267561 0.1596225688930606 0.03110417760397224
Ni 0.5194503256779982 9.025092761384917 8.966022787226139 0.5348683904145175 0.3367090988988395 -0.20254430795725115
Ni 1.2446114316255628 1.017866989199807 11.072510490716745 1.7933110306558147 1.095833735026403 1.0035691838630265
Ni 4.111423365366269 6.912567634674005 1.5701147661167651 0.2864728284511066 -0.09236842373109252 -0.5088560255111558
Ni 5.7661211756557895 8.140252816505972 7.994486972904665 0.16902277916103794 -0.36161100434684174 0.5139064434508698
Ni 5.246728150017394 2.9691698140078326 4.742198572746915 1.1467253796699475 0.06605549686817656 0.23842379546267972
Ni 1.0245974700419673 7.755269312334397 6.761334639675098 -0.5892551926955142 -0.4545263017203398 0.2935459332478041
Ni 4.822689666472525 4.6752102788297805 6.799964871135785 0.5062419849270766 0.6123820085209648 0.4634081775910019
Ni 0.9152999183119109 7.146251748562691 10.949655567711927 -0.17928045233330414 1.159946506345912 0.5494025794749506
Ni 4.893341524826447 0.501137960640693 10.425689453198613 -0.5288142138006376 -0.1743205372248675 0.2762894601602016
Ni 8.440141214246125 7.613956500382171 4.608322032600839 -0.8792509466982148 -0.3517335973321297 -0.1408969674590993
Ni 7.347911506984827 6.144583389605976 6.994916886826714 -1.5280816849645167 0.42631204406965284 -1.1148334160573574
Ni 2.4147873832345836 5.416609124571276 2.788411836698357 0.3743695895640907 -0.20703962472444343 -0.6564118930476694
Ni 2.6719463228713995 5.34599364719488 11.012660144590054 -1.035711830033842 0.01984454552975292 1.8535545488279044
Ni 1.0816610332902301 3.4498807652925687 3.6521881051146536 -0.36356427141847064 0.2862008057366426 0.17976227706572914
Ni 2.0149968212102545 1.2821020289652727 2.5956299463168055 -1.1661613769073722 0.12416911318145711 -1.0330630795570854
Ni 1.177988766532556 3.7836762340862005 7.858879607752828 0.4311531742120381 -0.6110388642295089 0.8908165400486271
Ni 3.556786267750344 2.827929764010658 7.5361348608824725 0.6928390255264519 -0.41226842149239323 -1.8206038049334965
Ni 4.2355734511709855 7.51520943213442 5.820268803555408 0.8989057448146647 -1.9642816775718432 -0.36998817266694345
Ni 0.8183573465494094 8.815119949598275 12.960457662213528 -0.31747544748020806 -0.5440677975255984 1.2915437936706402
P 0.2545604283170791 5.851698330039421 7.733948240455757 1.455182168591313 -0.2137301493707416 0.4565857553525298
P 8.61957219540037 1.7086053237374734 7.925252153625348 1.3312357129436234 0.4411565652816532 0.9350140605014476
P 2.0162064887129674 3.421585460022351 10.224853723917423 -1.4363411246254103 -1.0651728156074367 -0.8624022505719922
P 4.356931296950643 6.348935340364975 3.741550700209781 -1.1008880096208589 0.670845037753864 -0.53310564208714
P 7.0563270673647995 4.061354045047224 10.193757992902203 0.17377726312688782 -0.5065759712277276 1.4738823161039778
P 6.523091079778068 7.861647290618056 10.334356828170497 0.0029606252902207074 0.2124939629707953 -0.883610509218491
P 2.711046778466599 8.884880474002829 5.798916807845875 -0.28779463258632376 0.5627841429881791 -0.27401146275930227
P 6.701530679294751 3.749596353389477 1.1196045738001286 0.22004220763169846 -0.7703948097247442 0.9731797729378918
Ni 4.763306815907032 2.7878197362891344 0.7193728924233066 1.598561279042318 -0.6731757427695697 0.49548114686614664
Ni 1.4520102892522981 1.2998104697756596 6.7361753746675515 0.7953964739754044 0.1774793945688234 1.3430882414068352
Ni 7.189936207326065 0.8440250357178701 9.552421387745996 -1.5558678539388493 -0.30962921196291193 -3.182314803647842
Ni 2.636720441382633 1.5148766184158289 9.084165464117008 -0.09386917664633512 -0.2776331186722896 1.3126690056850296
Ni 6.607685947768519 1.4804602136769978 2.276838902179001 -0.6808502285956919 2.253650853734138 -0.8182661794847262
Ni 4.262486279295246 7.099866002218072 10.259251938167493 0.40170710103677915 0.2886502957183997 0.4917070245356951
Ni 8.181145035244288 7.042647819815326 0.0004938717699044742 1.1867885662394206 1.5877017106199947 0.44203202590807095
Ni 7.930834814626588 4.006709816804387 8.244921798370386 -0.3532934856200819 0.1422272562347486 -0.7301663012220004
Ni 3.3703428531781188 8.58431902817846 12.294015453991621 -0.8278898186174193 -0.24675134149176864 0.22703612245102833
Ni 0.13523718870551799 5.081476654853593 10.078397551267575 0.4876557372844569 -0.990761747685713 -0.09935976744726113
Ni 8.910929253910867 2.5138709755244424 5.611140939971788 -1.0748077675940393 -0.5303455628434995 -0.21656427638542702
Ni 3.494019986275007 2.749419614511295 11.640524873768683 0.30490455279373296 0.4819057221745572 -0.5970623474447588
Ni 1.2146426013891862 3.374681284747998 12.497472432703502 -0.5322623202502382 0.9723022554289448 -0.3036208009853029
Ni 3.025241995618534 8.382259079003546 8.061631705025157 1.8542091516927681 1.7523183902935366 -1.110228056074862
Ni 5.9433965838916665 8.53687823348561 3.420562245029455 -1.0913276196259334 -2.671020858119155 -0.9492343178658879
Ni 3.366040802585765 8.576788165830745 3.374796794351641 0.31461200988948396 -0.7347811742861926 0.4571868792716384
Ni 3.4730281622429717 4.608405708849147 9.069335668153302 0.925363167675245 -0.636651936811923 -1.1789760121735373
Ni 7.287864703579499 6.067419336275044 11.318072993767405 -0.2524072542259653 -0.5858253410783588 -0.5958184477353287
Ni 8.234888834293377 8.99287740578636 2.22632027678752 1.2570362468120737 -1.3139185618214144 0.15990924689554398
Ni 4.7017502019344075 0.27274000278641725 1.1957945264578227 -0.3495209059515271 -0.7387820679154695 0.4572395868864448
Ni 6.3159741747271525 5.682681403701764 0.30044593622072685 -1.7654338446295725 0.4977329190148009 0.0393443061255774
Ni 8.294244399125727 8.996015265097908 11.187550779749152 -0.28632704690186167 -1.481939124970183 1.28361348307997
Ni 9.006138272094292 4.825545573208252 5.7675545861702835 0.44399686294392565 0.951697948915032 -0.7452977575468003
Ni 7.562895798425565 6.408581953017528 2.4164390796142277 -0.2203329993992399 0.18127614260709426 -0.12367083338879992
P 8.572995448923743 1.6650209126622941 3.519975085165917 2.165060666098555 0.8754755388161825 -0.7669392470759758
P 1.74740563626809 3.2534416771452976 1.4707683212642868 0.7517111172723119 -0.05632824227808363 0.27283646861459465
P 5.08880742182492 1.1456187917795166 8.314076579499147 -1.0058690356407967 0.5345048364275118 -0.6144077807017418
P 8.759857244737509 1.7107063251895533 12.568863734425623 0.41976035899406416 0.05102097113255729 -0.6764366729090285
P 6.391846703355939 7.795861388008129 1.1008883799122937 -0.008084833890663497 0.19519095291597352 1.3868946970688243
P 2.018744061895349 3.431508371642347 5.896253203690086 -0.21483520950946228 -0.4083279487874064 -0.454034963906218
P 6.755538240430898 4.208378670470904 6.028093318619189 1.10349330845419 -0.5101690878956245 -0.8238917532016198
P 2.5643950580625523 8.651369169757388 10.254020353599369 -0.42073814952630123 -0.5937350828437388 -0.9486802451346306
