# total energy = -381171.6428102455 ev
CRYSTAL
PRIMVEC
9.18190840710805 0.00000000000000 0.00000000000000

0.00000000000000 9.18190840710805 0.00000000000000

0.00000000000000 0.00000000000000 13.43865107532713

PRIMCOORD
 96 1
Ni 1.939724029864967 0.34804482362096284 4.181167401597198 1.0893437564266852 0.10671697914328072 0.41835602244736986
Ni 0.12862659826829834 6.351392220086927 1.0879909374849661 -1.3705177983726975 -0.8754930223176793 1.024568411822513
Ni 8.985470516532322 9.114476327611836 12.034190935412976 0.1713740530020339 0.5411028013600035 0.0712241855533096
Ni 5.477357190729628 8.037466034217262 3.0947061700286618 1.8462662426966074 -0.6577295834178285 -0.07244520244460427
Ni 1.731616079109295 6.8082656113819064 6.776869912462036 0.6421659246516166 -1.998986942263512 -1.0493085948816703
Ni 0.27525432768402636 0.9025999459600292 9.863364701932092 -0.6110069825503089 -1.734776781865348 -0.578301779007804
Ni 3.277886158044136 3.4072408816376023 7.46213317167237 0.8500409007931619 -2.0242022651868754 -0.8292054521050494
Ni 6.768159036093984 5.892572264240426 7.365468796063702 -0.5458446869203631 -0.8898665174305319 0.8647406688971817
Ni 7.526226564103648 1.1315691922867088 8.396388664556081 0.12156638545128741 0.35944202171998096 0.3266198329836375
Ni 8.686351491084825 5.363501528282228 6.078946638140212 0.6483507133060898 0.3409689026164579 -0.42030568997457296
Ni 4.203495966108455 2.5015190868685315 10.352262752862881 0.6090105209455706 0.693033143815129 0.32555591049549737
Ni 1.8600617937848343 2.2889579106058444 10.526213086693508 0.34754732716492404 0.5605832786821184 0.006465038899053382
Ni 8.350431377323686 5.875806099754221 9.365529899690008 0.05575385783185237 1.021451463460086 1.1023764212409273
Ni 2.6908316714121203 5.024744204868163 4.311602835793088 -1.4712844734698145 -3.491412054366684 0.03525213833407477
Ni 5.2440632656116 0.6081480844820492 1.4760743902727143 0.050330372823435894 0.29650912964118614 -0.6619901584663954
Ni 3.810804113564066 5.0777605431723005 10.941453869547438 -0.28234415099471377 -0.08532745772391111 -1.3222252819148972
Ni 3.329249752861133 1.3297515002112807 8.49724549947713 0.5271522527171825 -0.766029847887829 1.8956229387528645
Ni 4.55282166593195 4.840582670859493 8.403900383705132 1.4698932495492427 1.7948966299753797 0.3964373679974076
Ni 5.3268198047759885 1.2557361377122085 6.61681547859495 -0.31991336749773935 -0.002232231764628414 1.063904233307658
Ni 9.20844397676399 1.9249962490129 1.8461888485919489 1.019160096322748 -0.4106799939593508 -0.40992511807119725
Ni 4.455989261402089 8.30550430019827 5.696200628625099 1.2015950351246338 -0.000913770063521007 0.11177511039247845
Ni 0.7456774610010732 4.191109571863169 12.88198131638532 -0.3337351038721801 -0.09377815959442559 2.1586447352698825
Ni 5.786677316256082 2.6112337086898205 8.658025304096904 -0.07148978050987043 1.3655560834920482 -0.45522487044926124
Ni 6.843974052612386 6.934158755560642 5.446537197457777 -0.5181729320367076 1.5380822478206544 -0.7937972478090844
P 3.845667819234451 1.9837512799807155 0.32462361202654116 -2.1947597358248845 -1.5901941380245452 0.5142085480723209
Ni 5.608116746287163 6.852375498672013 9.326584835797213 0.3383823728362043 -0.38762105525735824 1.2414396779253976
P 8.957860518388827 2.346519293499614 11.951408686905454 0.6193676958101785 -0.26969972275782583 -0.7273509432603925
Ni 0.21915378639472216 5.607409739350997 3.733284016681431 1.0433760314473193 -2.2196243602770482 1.006047727310506
P 1.6295499868701575 0.3895663309720427 2.052203324263911 -0.26927986161158785 0.22334916051774434 -0.8091310499526775
P 5.573087766268063 8.178711329009872 11.296005911553602 -0.37870241261148974 1.166520560019004 -0.7459155936364572
P 0.6076963345955644 7.813620292700715 5.129546505769343 -0.26063966943808664 -0.06393125143632215 0.897038866809255
Ni 8.620067295342263 8.693889837767834 0.9416138741647877 0.37109323280566414 0.3168789515467897 0.7402959334568348
Ni 1.4442498962370132 3.782009649254787 6.30690679274891 -0.34689143874847994 0.4971130260426148 -3.738777632403683
Ni 4.6976662687632205 5.7752182947452475 1.7148655238671344 -1.2164069033264857 1.0421706982853083 -0.31117084541841894
Ni 8.897305833401681 7.224499876709775 7.71035871600588 -1.3097117228289186 0.2017017574512978 -0.06870733266872683
Ni 7.695623589627203 6.86005157397895 3.2732116485480094 -1.600204985293328 1.2515014330367737 -0.7880258925429461
Ni 6.652577174893349 8.930682069933642 13.004662629054048 0.5829153665204154 -0.21169537832889995 -0.22712071174503468
Ni 4.595085989661417 6.18826643790624 4.3050855173088 4.46535595916411 -1.5538780772023304 -0.7718559676513029
Ni 7.44240492358088 4.622402166740532 0.11240308456036995 -0.2731843388723166 0.7068798198902342 1.0894103479985624
Ni 2.147483068106687 5.841025031258192 2.112246576960869 0.9885999641477039 -0.22381787262404682 -0.18157233369127437
Ni 8.722381299104471 0.593735243083365 4.50896336292822 1.210686970123573 -0.7027400866902478 -2.3340806170461157
Ni 7.437997607615174 2.1565272477446458 5.900817617859602 -2.3183004713937234 -0.0408201193401555 1.309556685308293
Ni 5.360278678482305 3.9320236664374995 11.992504153713181 1.5683418180361441 -0.20860439810840203 0.8922427309721924
Ni 7.503290157265453 8.22556660687028 10.046574072054005 0.27993425600164046 0.17656331051245722 -0.09406560892785736
Ni 0.7477204355893432 4.83550507559067 8.033948445162133 0.6843767536917116 1.2804345711313563 2.216765036451382
Ni 5.784446112548443 6.289056244896975 12.128368850264325 -0.1404683645621129 -0.8364737036316884 0.34756866732116276
Ni 8.133775069976195 6.828318899025868 12.53941717380588 0.8385755804660396 0.33448123800958524 -1.3227099348607996
Ni 5.654108924770956 2.596579383103849 4.087204343399176 0.35760111185650023 0.2821235503434754 0.434364224950168
Ni 6.61629027344237 0.048570458323730574 4.7389793467967545 -1.351065860295673 0.2120450483588348 0.6426189530286353
Ni 3.320839124893244 5.571113655991757 13.102993521012248 -0.6651844970339769 0.513193219433929 1.0229424461833159
Ni 3.3675199464966785 2.963809804038025 5.193689480505235 0.4698361926045328 0.12942444804312547 -0.5852527564043405
Ni 3.7019709549359177 1.9649742775851566 2.8544367492040776 -0.9324900085280134 -0.35230618200614805 -0.6506716481297826
Ni 5.436506880872492 1.6762216265653298 12.437497992098931 1.027625967701914 0.043950951659653334 -0.14813179464464166
Ni 3.0274771559259506 3.3029711314156116 12.307183759092098 -0.21721090883049043 0.23914344723752362 0.5676872367167513
Ni 8.295808205073719 3.2545824748754666 9.82796752739169 0.5796125273994276 -2.4262194412649056 0.02329882262694052
Ni 3.436237347928642 8.147033745506361 2.4779665739859644 -1.5603996803709321 -0.05631950052733526 -0.3241279197997192
P 4.0784751032146 1.0242694123382956 4.877343358776784 0.03316517389805901 -0.3688473741942809 -1.0375262575347615
Ni 2.7203331426575637 7.072291383452471 4.604377162631621 -3.6734492435095185 4.487804260865296 -0.31997404553234565
P 0.295235078252719 4.273673290954058 2.033993763798936 -0.3561877764487414 -0.4786573904405886 -0.013997856940988797
Ni 5.567440892687003 3.816037801273341 6.143533099045152 -0.3490120846359086 0.41172103362935547 1.4308471913903744
P 2.524969680569391 4.142821916313904 9.225418570567742 -0.667421871004928 0.4723985540150703 1.9420362359100813
P 7.218008267568621 0.2035720880742997 2.494764875151087 0.06988258392375062 -0.458303766484901 0.41933381297960687
P 4.263435463242054 4.142592368607357 3.062964313167318 0.23452214641542835 -0.11209598406700695 0.2625217169521478
Ni 5.177457703079871 3.3318757786240325 1.0651720590725244 -0.035328757208281096 0.9283014243679625 -0.029298748964117285
Ni 6.810717180887831 6.859959754896332 1.0155025263298458 -0.4750213363498981 0.15229801020718933 0.5746695815718555
Ni 6.537114678500118 4.68608788244498 2.3272648318744373 1.7219580328341249 0.743311837465023 1.4008370181815293
Ni 0.742941252339031 4.538332614694693 10.726543042960534 2.0958918204123775 1.4323695415721718 -1.675209463824676
Ni 7.460337190416346 2.3602554282593977 0.09860084006110119 0.43956865196924294 -1.3005459971692506 -2.8817710989259657
Ni 2.086799836403875 3.2712109107377443 1.392607171408855 1.3290415335057821 0.39720072852599336 -0.290250550325984
Ni 0.700523590741591 7.7221868502288435 2.997316423667303 0.8900773478897576 1.4220293359884282 -0.7826965099102327
Ni 2.1655897911991286 8.123950428135975 0.46567608674565136 -0.5973963337454099 -0.18639418055994997 -0.46138960449907634
Ni 1.5628342414392855 8.494908703824478 8.086372550383377 0.47820281940167314 2.3154203216324514 2.3177901074162084
Ni 1.5466373552653168 1.4834566445152715 13.19572069435822 -0.4682007138836388 -0.33762029785919917 0.21835530684757878
Ni 8.230809476487819 2.9689792183894674 3.980608815814449 0.7728471279199787 1.2480001047517346 -0.8239855984670066
Ni 0.914660382462018 2.41067328652542 8.05394480497487 -0.4149598522816273 -1.3854499942024978 0.5875320393568205
Ni 6.976413897381846 4.836983362820834 4.618783576694521 -0.3269417350994305 -0.3999541229014144 -0.2236839181493438
Ni 2.9026491131055945 7.5378600418714585 11.57961485756512 -0.022109944525161924 -0.9732419936343947 0.4845650141742752
Ni 6.545387577844077 8.280456054459844 7.4014444308246015 -0.5380627289820992 0.4710654370259435 0.34248199682687464
Ni 2.9384034638773833 6.509201677383981 9.451309123054209 -1.4291001267922807 -0.022989518916637825 -1.1724158424575164
Ni 8.673120361279446 0.14012051103052864 6.78367003372079 1.0499328587292305 -0.20440038732938343 -0.5639264841227385
Ni 7.259235035664494 1.3328458032955368 10.861131454263276 -0.2520889516545981 0.24008292833265749 0.6222331902834316
Ni 0.6313149572176167 7.553588650724071 10.304044879816407 0.7698965299320869 -0.29141680271994325 0.3734969571511503
Ni 4.022851102964087 8.012169876955763 8.146160546030655 -0.11557442953391063 1.0952194984811718 -1.3873325559371912
Ni 2.5227384768617527 0.956231472117712 6.538293635520944 -0.7839740910710756 0.10523242417795425 -1.7924764505696613
Ni 7.05759114832519 2.383246926547163 2.1588383340541633 -1.9316857459136925 -0.6927318105246262 1.5974747308463586
Ni 5.468542558798217 0.4084636163658326 9.487338012883027 -0.5595332401510492 -0.9505016146140856 0.33812166297564994
Ni 7.894604723570559 3.69103530219601 7.716285637788928 -0.874328826806249 0.0614197978683781 -2.040910836190808
Ni 7.617228456887211 4.750306148828619 11.318689815914594 -0.9398418209073943 0.6591724865119423 0.4354109210471276
P 6.661841720329592 4.730445681258157 9.265573809969451 -2.2155303927133327 -1.1890112849223522 0.29977237377349014
Ni 3.530645728677365 0.5953999230512451 11.93104964171637 -0.3147017413898129 -0.1359689340298626 0.09198532936006093
P 2.6295240699474998 9.136026266302485 10.103916925531141 -1.3075085445300128 -0.354971387543137 -1.4633911867646667
Ni 4.610162683027435 7.707247885486752 0.21263187695630373 -0.5284565733509028 0.44740151775010045 0.07624375025508805
P 1.2226445403363673 6.436728875472905 12.780587339830955 0.7141519280716152 0.15405638765919275 -1.978853661848747
P 3.8457229106840223 6.322570210052863 6.350487802123131 0.35186600914493593 -1.0596763112692393 1.5097898286338645
P 0.273690648707027 2.0887280371388712 5.821435429981455 2.362682597053525 0.27928376690183515 0.2613444088145951
Ni 1.3711619064723917 2.7552703035940445 3.6894339773951366 0.3467060622105513 0.3185465690571998 1.0266162954904772
