# total energy = -340893.44866508787 ev
CRYSTAL
PRIMVEC
9.06397188641983 0.00000000000000 0.00000000000000
0.00000000000000 9.06397188641983 0.00000000000000
0.00000000000000 0.00000000000000 13.26603905609766
PRIMCOORD
 96 1
Ni 6.254312616573221 2.1418346160344646 11.363993363331918 0.6087066165519065 -0.6936406954921408 0.5146705753104039
Ni 4.37029360861014 0.5228425119444001 5.881312057462209 0.27749582176347687 -0.9415744873277848 0.13089177661727133
Ni 2.56865703848143 1.7052231042640176 4.761300653693399 0.15804596843456004 -0.7649983212995212 0.13338703223529932
Ni 3.4953393664944454 4.478209254429923 5.169908118821414 -0.19468495981383246 -0.22036899484349792 -0.9735494975724845
Ni 5.272013758848279 4.799128232751377 2.455662849376512 -0.7870241907513091 -0.9740688604110644 1.2202892691000276
Ni 7.520685408082624 5.973057577955057 2.4817707131610995 -1.1854060840695972 1.1064361931325977 1.089447628994401
Ni 5.126618590479798 4.396832917442689 11.531463834522008 0.05663086112016698 0.8178429759043786 -0.02610235351400666
Ni 5.5562145882350835 7.799184999335661 12.195853858892466 -0.5588189876928441 0.4799884505471863 0.2773688092673094
Ni 1.9340702591151746 6.477485725205397 0.5443132478605686 -0.3557925978928518 -0.7139526675766156 -0.6679533180283658
Ni 2.7600518626986768 1.6013953096339475 0.3518579389666117 0.1983706361955358 0.28804737202707814 0.19851256109003876
Ni 0.4782387077213906 9.113098321865118 4.7864268893541615 0.4082981239907355 -0.5568721483791184 0.4205103497862113
Ni 8.514622405336594 2.2245977406758586 1.5106703923427889 0.1412072996106665 0.8502990395505551 -0.836178540988773
Ni 6.654641050045617 0.8605425272783476 4.73751497943166 0.2883854720927872 -0.8404229180874236 0.6332992182896061
Ni 1.1732676752771842 7.465313605603787 2.666155461746142 -1.1139160464494107 -0.11230270076117434 0.1280080273115731
Ni 7.703469459283846 3.8074391004531716 3.660365284545145 -0.2663220645348445 -0.3708057834722324 1.0167800261263455
Ni 7.571443649019193 3.8538285070805562 12.664396836197811 0.7574554759552569 -0.07895857808308981 0.16175761295819238
Ni 7.959064394314256 8.526206161036045 7.219139762650067 -0.12226803950400233 0.9019766704305047 -0.4144559160620152
Ni 6.9992169942321505 0.3245509117398975 0.02567007395650992 -0.8040238106330992 0.9144578336166509 1.5633075980463464
Ni 1.7594165904354002 6.581576375011746 9.301974268375888 0.9954681520224471 -1.1540008302854383 0.5929390693050047
Ni 0.17890104576957389 4.872827385796955 1.4884627555358805 0.7763793094429532 -1.1033848079007837 -0.7467506879432431
Ni 6.313065280457299 2.0121291824983403 6.984701950118611 1.0626333370150345 0.7839203550150048 -0.7443713890777889
Ni 3.480084702298688 4.40339523287806 0.6069779218854007 0.3695644548659635 -0.12941647762332548 -0.6042416388020174
Ni 6.05142467637248 5.558498709077229 4.724142902136354 -0.244416779821321 0.49049963449115525 0.14516885536157578
Ni 5.419647728200927 3.0229614228069095 9.247197968830895 -0.089983982659316 -0.21794470167272142 -0.3533708758252366
P 0.10543846238264641 5.616698470693962 12.422862840303992 0.37657996695184826 -0.46422218885186506 0.8432215638784833
P 3.975666413271512 6.2021132041529174 12.560059646364056 -0.362433243137821 -1.0409867052795363 0.8122217730628591
P 2.427848239740432 8.61631110267005 1.2765697595546968 0.07918483516128298 -0.426220255686795 2.472286667936613
P 6.327803298272095 7.891365590465107 5.732268640526412 -0.22375642325849207 -0.31301278372316416 -0.12604807537172483
P 4.619688787069013 0.953221636845564 12.367144794110192 0.7491140459690969 -0.22979980123909455 0.8735495254380633
P 4.209172449522919 6.116612760089587 8.253028027506913 -1.2236427589532928 -0.7135469474977646 -0.07629414387704925
P 4.6324780509907075 1.2759534094861815 3.679534678073136 -0.5812852871161602 -1.7131381205496496 0.14250082161110944
P 0.3677144508763319 5.673783363804411 3.639684020554972 -0.39965793181723425 -0.7801380051544371 0.2188813545543779
Ni 1.1198808825778293 0.8393273953611812 2.31293339505436 0.8127959003987743 1.2424056413830926 1.4865905076992656
Ni 1.730738184306239 6.734993158242524 5.033413770560024 0.41778575176619664 0.18904704480176474 -0.7417475783016968
Ni 6.123283843184107 5.567354209326341 9.115732312010863 -0.37104669583844485 1.1709518563174799 0.2967384720431728
Ni 8.677103160163187 2.2673162388069383 10.095402617973019 -0.03577587204802871 0.6194641121787267 0.037899603259250854
Ni 2.3719688548522275 5.399208472252363 6.995991126741199 -0.9270025030508809 -0.703440455191382 1.8133463520401354
Ni 0.5371200800021292 -0.02828774895338152 9.24783516603408 -0.10980873069472703 0.6683050449408297 0.07987491924977212
Ni 1.3845669811188421 1.0904592307778112 11.533984525022806 0.6679887992519915 0.6548458341121303 -1.4038668061467887
Ni 4.141346750071429 6.76368062834328 1.7434359021148174 -0.014727536018161734 0.5710841782134424 -0.7207984868538554
Ni 5.508846272675351 7.899921979651557 7.734020481944703 1.4802213709481282 0.4590056776479321 1.2242881058467754
Ni 5.207423897256496 2.963374873536017 4.85908459206338 0.7790689404599743 0.4171334628941784 0.3183352243773421
Ni 1.1542333349259712 7.62523832044036 7.331595551842194 -1.6835141270356295 -0.3267982675430307 -0.7702390008731702
Ni 5.125549041831492 4.434557167224474 7.100103530079378 0.5960171940096961 0.3864200929707216 -0.2876411377275949
Ni 8.280944153624866 7.048035545247213 9.283043257300866 0.3065536583613817 0.20029022181575182 -0.31669100390569976
Ni 4.590593438246443 0.13695117242981922 10.113298523491796 0.7385858927442635 -0.5460719724398209 0.7629062146571829
Ni 8.1392017658095 7.248965667583259 4.773996558707659 0.19395630917792403 -0.6239038931176352 -0.45016931030322477
Ni 7.368800436051539 6.099608749375836 6.814100783139326 -0.20370413259330725 0.3816969764634394 0.701362746726747
Ni 2.4246849136534925 5.162956052607424 2.779394378084148 -0.20719903312044313 0.2893396084759404 0.265667204559665
Ni 2.2538290490723645 5.164886678557333 11.405781897977267 0.13781601454093037 0.48145243668722243 0.7165258276204305
Ni 0.9610257163895615 3.2047484371325914 3.772118615938596 0.40045163136312323 0.515212563856803 -0.44825615244091194
Ni 3.5729722832126085 2.9566312786687297 2.839569179111609 0.06746523273150963 0.23747223018268782 -0.7048887576021343
Ni 1.3578554568259729 3.5530768655597926 8.244816069241104 -1.1800659028036065 -0.308079865197921 0.5783632283733589
Ni 3.4981673256323402 2.778143550003925 7.3539754041094225 0.3522712150031546 -0.3184776634924773 -0.30593685071298926
Ni 3.9880931183293757 6.764913328480312 6.17942698964575 1.0260802204813488 1.3138308872036149 -1.4125265387043158
Ni 0.8616492382101967 7.371392731927942 11.485139688490113 -0.5308561839313308 0.5473768072941734 -0.03207862570209959
P 0.26796181787574075 5.631463680423547 8.017940328212037 -0.13151141247914125 -0.6043123441389529 -1.322233252334697
P 8.364477715851905 1.5422982148292286 7.998731053209024 1.1454161739402209 -0.01979543745937236 -0.505469111316794
P 1.661217522166332 3.1270973924712373 10.553690617814858 0.4039925546368462 0.3728984043352029 -1.0298018923073102
P 4.044597917257692 6.238459730252139 3.9865903118387895 -0.3542746185864286 0.21292333719873008 -1.0305243722956317
P 7.108138740899069 4.070321468646617 10.455720868027162 -1.0983942966647275 -0.7032661343970469 -0.7770863628123068
P 6.4683311138936235 7.787320260516738 10.054011991680724 -1.3497342859684431 0.5851987632379535 0.26245718226279957
P 2.234812836664343 8.710467639607385 5.890665169751931 2.121527518702611 0.06582975401061567 -0.6474156030863303
P 7.026010094269382 3.895540904364501 1.61239443916547 -0.14233369990562583 0.17321419153456621 -0.5748410741527132
Ni 5.491951029620749 2.8591210722409435 0.4657730275856651 -0.9775221090669874 -0.4658931487963847 -0.4702820218926998
Ni 1.555993875910506 1.2000335833996285 7.2201077948165 -0.9609881159677062 0.34916969325969544 -0.19604893004089463
Ni 6.748208428829223 0.9604818780938126 9.22822798267801 -0.26152387181525283 -1.425145770130223 0.020586565902100028
Ni 2.715303034930134 1.4248382069190517 9.460741514039675 -0.21841367088933997 0.9542572250017759 -1.1116015393836212
Ni 6.327440739408263 1.8125949117880513 2.523771344741791 0.6430321293066539 0.42187997644022823 -0.17434033471920943
Ni 4.095338030251068 6.646429091779808 10.421335785381277 0.18782602791047007 0.5191805473656156 -0.38038802784402875
Ni 8.339588049849795 7.198696881112864 0.5662380887536874 0.7940163057984261 -0.42340515483550306 -1.0719191331923348
Ni 7.581713128837252 4.052682979921159 8.104912761262527 1.3574270266270105 -1.3903098933979605 0.41287545894877287
Ni 2.889947639638313 8.31009388627701 12.644485103396125 1.8789184815139899 0.1781136857187126 -3.244183773238497
Ni 9.174189490420916 4.821081171956443 10.12929733975557 -0.13063286652892986 -0.3896625111674193 0.44983789510573496
Ni 8.577888927075387 2.370119804646681 5.9509061377720425 0.6614049753868867 0.027060860772534043 -0.37981415761842974
Ni 3.578111555107436 2.6337091626246005 11.430522914845204 0.3140893046167946 0.05015193826404266 0.4011617700562704
Ni 1.0670107362594357 3.523628021844987 12.739894281208 -0.4152179910390204 -0.3364689578635754 -0.0853415987912982
Ni 3.2320763114939757 8.344772641602601 8.10954263795367 0.20949065736809727 0.4267750997490005 -0.13123836132341268
Ni 5.67094634069492 7.872095586852404 3.471444018176397 0.28443754318863274 0.00634316860920843 0.38501832752718856
Ni 3.277740600393696 8.458797404277963 3.42271791967161 -0.30628112142628544 0.318393074198471 1.1888315648113783
Ni 3.460434011878959 4.244766665979688 9.497794123526212 -0.2953454483503881 0.7463179712811986 -0.6909094126039068
Ni 7.182653651388271 6.095883457049957 11.315294456741919 0.6418375947779205 -0.1299479246467633 1.0638952344465937
Ni 0.5219116420615099 0.11831655322598152 0.07506146797642936 -0.5732752723274902 -0.8300048080778931 1.2900692660076427
Ni 4.618764261966239 0.3058936326070703 1.4976690314857508 0.36646653266693013 -0.17896883463015628 -0.6946686225360229
Ni 5.972323396255796 5.580188793106016 0.32240093767737 0.07412413280892396 0.8729183196119676 -0.3720535398364044
Ni 7.9872352180340505 8.987317588029983 11.242039438304536 0.177596636872978 -0.5656241835401355 -0.964902620530764
Ni 9.251958366713017 4.820519205717503 5.784125434820393 -0.25467033922852916 0.054421769283990146 -0.16887982582527045
Ni 7.961602306361084 -0.3927853963103584 2.6531015298538483 -0.036659303094246545 0.2753402088730548 -0.34119001748832856
P 8.520296451555573 1.5226384604379042 3.780953269053038 -1.0451153827359292 1.1796020757933106 -1.5506253745929874
P 1.7788044256788502 3.2060173931560056 1.5320686164861907 0.044018057452162904 -0.19078613898005853 0.8922869539465665
P 4.804575679680463 1.0825101276882807 8.038848191492105 -1.5619647108652066 -0.5036181741509843 1.4545666464945013
P 8.479281980084508 1.7729944198859322 12.34386307666918 -0.5545141896699031 0.007954221850070171 0.7973245442360526
P 6.396680418428699 7.615630510548795 1.2940387520113128 -1.1327666034970103 0.3721288731590301 0.5343251163165378
P 1.806413283159705 3.3143953015271754 6.029972068399503 -0.2706695428702629 -0.31221677018443 -0.06087009601249518
P 7.071393400049631 4.030711912772902 5.958786354677445 -0.890568685703879 -0.13249537365896535 -0.7453365812045357
P 2.4201982477135635 8.403797224634554 10.205179097161421 0.15331153907336822 0.8335950965323128 0.8619875316320768
