# total energy = -340895.2536413506 ev
CRYSTAL
PRIMVEC
9.05829188134489 0.00000000000000 0.00000000000000

0.00000000000000 9.05829188134489 0.00000000000000

0.00000000000000 0.00000000000000 13.25772579453002

PRIMCOORD
 96 1
Ni 6.35002569697868 2.130238514786319 11.531781742962643 -0.1904506100175107 -0.7032748761477953 -0.6214173792503556
Ni 4.717748664836185 0.39548955510833905 6.277533092437355 -0.33979005181700833 -1.30027705977858 -2.4139946170639393
Ni 2.794193197172711 1.5412683730530774 4.900599345873208 0.2343398552012932 0.024983409418215037 0.0031460018281494204
Ni 3.2865204222318223 4.312353867494913 4.549348676926001 0.41325803909917214 -0.048703892963606436 1.255971038772353
Ni 5.057914701940283 4.70466849127939 2.676615662003353 -0.4620118114641075 -0.9626266800123938 0.26420836062595143
Ni 7.1972839749989355 6.057497217170416 2.66242947100107 0.7772673684748613 -0.18053309379348265 -0.5485464021222424
Ni 5.080759714204989 4.5673447855169185 11.64444606058546 0.5083688014620923 -0.4055215896868629 -0.6854854133748581
Ni 5.899629305295194 7.973126679389157 12.409071882070293 -1.0113354580720066 -0.16356484137026023 -0.060773165423314686
Ni 1.8066491519266363 6.707710470688623 0.3047073533173432 0.5599050216681711 -0.8691596239004837 0.20822361773021558
Ni 2.845707703417512 1.5847572326418393 0.18314326386658267 -1.543567953525574 0.4646698179122449 1.3309420929626046
Ni 0.7048121081675015 -0.015390038000688678 4.897178934837858 -0.36073631505137227 -0.18372820369201262 -0.6458706271967134
Ni 8.695090663339062 2.2853617642046795 1.4356794872621255 -0.31473696550312247 -0.9119201547964617 0.2605113713903384
Ni 6.922663738349802 0.8277240714584637 4.920963291976414 -0.31148657688662484 -0.4855559173326347 -0.41084685855451825
Ni 0.8312241954628581 7.4410969607708815 2.5397557407880464 0.33514021174982284 -0.33103930220757183 0.304560796301069
Ni 7.744178350685562 3.8361956935430586 3.9341375692809315 -0.8930122621483652 -0.7377813945650971 -1.9058600430998403
Ni 7.54399009888143 3.7846902455901943 12.677236274056044 0.7542557380710365 0.3671103368985162 0.44596195709009645
Ni 8.091754070593995 8.776796456609345 6.935593544260445 -0.7147029154790788 1.105978793880205 0.29418896614844176
Ni 6.8593100445435535 0.7556064802033237 0.36486075258230694 0.35293533094971474 -0.05784802135671972 0.12235211457737638
Ni 1.7568647794417718 6.66505497395805 9.161393415663635 0.7504633609081398 -0.05080679823922218 0.08610187399609043
Ni 9.079760088728847 4.578241910716935 1.3850083079966442 -0.2388164029154081 2.236385896006103 0.32166043209583317
Ni 6.348431437597796 2.0284776631678754 7.249960660099233 0.8243825767951093 0.7573567455938633 -1.7691172070184304
Ni 3.356332678189037 4.249616137540369 0.3821276686723085 0.19979682711910104 -0.16580478644437252 0.2712321002419522
Ni 5.975130168588742 5.55091224060272 4.922062968617547 -0.5241736297048327 1.421631072108745 -1.4457158809720907
Ni 5.16794577409706 2.7864030661070296 9.35984881622025 0.7712569006147233 0.2639707906938486 0.18482426496966878
P 0.18642055388933085 5.5200778148497225 12.4513641412942 -0.03335903507641997 -0.7790229177133874 0.7688318361129984
P 3.954207120896191 6.120026606410412 12.698501520206966 -0.4844541996280238 0.9801096672885056 -0.023085163954237663
P 2.408155969700463 8.617606034111345 1.3024148021165505 0.6998362827798915 -0.40554652938752733 0.29745735248706834
P 6.345614308805439 7.898359537742491 5.806698476656779 -0.3110224927660127 -0.6622284997294466 0.35172614113296197
P 4.725049648137277 1.140620120686709 12.575721807978281 0.6235249125116616 -1.298183410474345 -1.159962704295828
P 4.035613990532559 6.1075533384133855 8.267968646958089 -1.1458134093786396 -0.050262752810294076 0.17790028415632586
P 4.843350940832389 1.0733441864718092 3.9104193376735132 -0.8138055726102114 -1.1608494777761555 -0.5345719422200212
P 0.16858477706569575 5.598884954700217 3.5846904062583493 0.487171855669503 0.06852658411648843 -0.5085873452308015
Ni 1.5090117954659954 0.9564650456107815 2.7209759292764386 -0.02633915211516109 1.0291876557620792 -0.6611527501667647
Ni 1.9289270347820195 6.437628438299845 4.803393003440606 -0.195701831114121 0.17862867768191817 -1.0662575640311829
Ni 5.960519143694622 5.600470155789163 9.213615374508704 0.30660070954923324 0.23839654176917008 0.21851265836104952
Ni 8.404645590676271 2.4610563946116 10.149518097422861 1.2742713797434377 -0.29675878375814696 0.6188439620962245
Ni 2.298795211147011 5.20499418811873 7.072254183053141 -0.323849726437668 -0.010929759538626337 0.040944817843477865
Ni 0.674393458014404 9.15132059502987 9.174161078148611 -0.7288928338262156 -0.0075443880061612 -0.14232110150013555
Ni 1.6163797297933427 1.0495933450134185 11.43417864734321 -1.394305901931231 1.5307728586434346 -0.04884658918905781
Ni 4.149422370426998 6.927872256213483 1.64365334098597 -0.5924449032774055 0.8902233865493184 -0.793478431017085
Ni 5.469269855375995 7.764849372885428 8.018034067495227 0.7669060798451954 0.4773193883554554 0.41342027570864925
Ni 5.259479814118814 2.865962044188282 4.927366598546565 -0.17473654171636357 0.6641015483824433 0.2187710542287587
Ni 0.6688226084732483 7.2618514799247205 6.599099738707541 0.85080477554238 -0.5987579899796268 1.58031030325193
Ni 5.142872422015891 4.622835881921991 6.9689769733644695 -0.728179609809275 -0.6432910393949953 0.9063411180467874
Ni 8.11483459844906 7.192102632011064 9.01071959924465 0.5161579584892079 0.40689353033372505 0.43251791577004867
Ni 4.70432427618579 0.28641685023847885 10.368005910597795 -0.32321852061157236 0.1338274622068276 0.14284817764819915
Ni 8.141638084290163 7.238943059616456 4.76082265465424 -0.2207721438191875 -0.053538081127456186 -0.7667428147944537
Ni 7.21403275679015 6.203417241980948 6.968725152848625 0.27915058375808055 -0.4691833895118823 -0.07321190540729972
Ni 2.2916210439330347 5.295975672332337 2.517814746058636 -0.30839456822486244 -0.1478101496391648 -0.2947846907509116
Ni 2.458357023614422 5.253365467061448 11.255994798312047 -0.9054137211365118 0.5267701867874153 1.1958483624488436
Ni 1.1027836352665343 3.415909064257624 3.8440374568727793 0.2932029480860886 -0.3488279936495605 -0.4839163248466828
Ni 3.5255596881530544 2.5801910501649004 2.7364212228579414 0.06224435065220248 0.6162497190064872 -0.41237743626643175
Ni 1.0912524296309387 3.278838990669383 8.347369104930447 -0.8248947405448375 0.5057611886359161 -0.5656565794399677
Ni 3.7814836102445537 2.5293377992314885 7.040714116358262 -0.3988254086136099 1.190792030971859 -0.4012913536555992
Ni 3.9485275718517934 6.656694170500348 6.083877680778071 1.2697529230477937 1.1162529221127033 -0.16927114772641816
Ni 0.6493871372935676 7.293329044405234 11.43733365042481 0.14904993558353685 1.1221721158106157 -0.9861910975958951
P 0.20698831156111644 5.510349209309557 7.928372376416818 -0.19322817276264787 0.6633991229987801 -0.44265063332867643
P 8.550221400393202 1.7228599515108798 7.908100824891367 -0.14848686399121525 -0.7261373825682655 0.6248222911668465
P 1.7046980761775186 3.318459959601115 10.503539697873547 -0.5044170159031959 -0.5774849395334635 -0.7385216151652314
P 3.9669249627755123 6.331139158290371 3.744088263641703 -0.07229839245409485 -1.1176271767524106 0.6772239446970144
P 6.82579436437725 3.9628124982361874 10.320808586290092 0.33625452785992416 0.29549148700994915 0.8677090074968863
P 6.403125404312426 7.6773462727755675 10.219572209774789 -0.07605477417273354 0.40070925589988404 0.014705938751606931
P 2.553152048733437 8.413604241401805 5.847810440441315 -0.2597837491956945 0.35847682959323424 0.11409450255427446
P 6.910860783956101 3.947576451198425 1.6833069197686743 -0.14047736342317743 -0.26971334960458065 -0.2462944564600081
Ni 5.266445640618243 2.6348125505440363 0.660829571668182 0.07343739115454449 2.310286857060628 0.17547213433080747
Ni 1.556558769842461 0.9838301455519707 7.039865354403781 -0.6247999225693432 1.0704949991512982 -0.1178136032770745
Ni 6.966143539646627 0.6944965253098297 9.110788361929293 -0.6672254387234057 -0.8436694500491793 0.18583753672553155
Ni 2.78992674167046 1.8897136889874455 9.142116464592851 0.17412307650208078 -2.0642618522119225 0.7581206203430815
Ni 6.394212045046578 1.8298112044091324 2.618612701244195 1.0779583974078788 0.7962678208367642 0.4005629601300069
Ni 4.273702135800423 6.889854604954572 10.588998341493264 -0.3515919295479429 0.06058213245843115 -0.5303728165370092
Ni 8.192898958360733 7.228172750503554 13.640343765144108 -0.9549791907694649 -1.137592307020428 0.08505774900229222
Ni 7.671023585003654 3.8773203389363053 8.185174046996996 -0.07152449040254778 0.3129811591542803 -0.6666371703201035
Ni 3.2099687970736 8.44819785830859 12.344825040679073 0.6717104710779528 -0.8201978492898003 0.769468698366049
Ni 9.197517883907748 5.016844406298657 10.02969501168236 -0.44451699711345377 -0.6697628604332788 1.180417372605754
Ni 8.794414834426496 2.308270184512944 5.681134245486711 0.2609952530052924 0.3823942596407801 1.5447925699612943
Ni 3.560932318166409 2.7508311536710646 11.399443721082207 0.7706961430152469 -0.19712853625831855 0.23819676705353815
Ni 1.1887558840390688 3.40975848403251 12.638987636352743 -0.950022360984822 -0.017827772210040265 -0.14291142678596677
Ni 3.0646828526986463 8.474946994398074 8.07852896436621 0.31865764071376734 -0.411132251005421 0.5001039903501387
Ni 5.715311180964402 7.804071776971939 3.4756584637022048 -0.38666691887420507 0.7695142068920038 1.401592408290315
Ni 3.171905854355004 8.400659942224062 3.531222026442772 0.1585239365122431 0.2245156700220198 0.5330444498319014
Ni 3.356305503313226 4.233954350781575 9.293321096919334 0.2601676148976745 1.1525031626939894 -0.8477965848436755
Ni 7.3117083187450795 6.094717738738885 11.566066472114384 -0.30054267628061143 -0.6574004822131839 -0.7887763975557254
Ni 0.5290930203723517 8.976495560648887 0.3331947756295067 0.4394899762125077 1.0014397962248496 -0.022397393858593684
Ni 4.458273892305445 0.5657310937692827 1.5997704456979556 0.5812346363838828 -1.6477302845678008 0.5733855726531092
Ni 5.784317248939239 5.611222348318192 0.535344147637964 1.2690700380481563 0.09722883714718739 -0.6681860028644621
Ni 7.972175558735788 9.09697084340884 11.151232028745733 0.3378784366165923 -0.3174188832106598 0.7145242238093694
Ni -0.048501718346608276 4.847762329005629 5.64332312328396 0.5487937422463581 0.359557978472555 1.6386972278312553
Ni 8.001768998493441 8.796308017441296 2.4915248653703497 -0.38359496481710065 0.6053839799365768 0.28452521780643253
P 8.714076843238676 1.5480439754218327 3.669022198361122 -1.299119292025053 -0.04154208510784459 -0.5654915146170132
P 1.7089645316797695 3.228357129705382 1.5783584552176566 1.4744821544715059 -0.553342537959305 0.487419967124567
P 4.729288928763717 0.9752700596716583 8.245908082775113 0.23460904970227983 -0.0811661272573699 1.8310319422453565
P 8.698813621325103 1.599585656542444 12.522505248678549 -0.8069643813186618 0.6178078075222263 -0.611635103052611
P 6.27062976815229 7.872969145443532 1.3931480891310875 0.4966044618373125 -0.5188162220476614 -0.4833295991052773
P 1.8331808890096364 3.288422663538558 6.235718205198521 0.32501340772846604 -1.153930124948503 -1.9398469415682462
P 6.889519448152909 3.926144532475865 5.920277681765217 0.9633409324705989 -0.46345548588916957 1.2868237624871515
P 2.356741104666967 8.484603133602745 10.357227449022151 0.6424541453159968 -1.0188891020495485 -1.193794051022976
