# total energy = -340869.1203384995 ev
CRYSTAL
PRIMVEC
9.27012931224867 0.00000000000000 0.00000000000000
0.00000000000000 9.27012931224867 0.00000000000000
0.00000000000000 0.00000000000000 13.56777128750462
PRIMCOORD
 96 1
Ni 6.348184689133201 3.526802232201151 12.81001189594176 -1.7694897598665011 -1.4546522642297721 1.5046710193500603
Ni 5.149473512195226 6.5392605986139465 5.521336414412455 1.4770949095040045 0.11235026616965811 -0.32800617180820285
Ni 0.9679220326321043 4.760804792187505 1.3537355527504376 0.8225023290532608 -0.1565094771853756 -0.5153087231150352
Ni 3.686999340280752 5.017809862750485 1.8223415265444685 -1.3725335432511458 1.4929388185147967 -0.8844633441370896
Ni 4.135256452785185 1.3301245328859193 6.531579369301131 0.40439724627443263 -0.6622842926680464 -0.265075336611937
Ni 0.6893045821271772 0.8443030015770092 1.4591591736013407 0.5217760760069337 0.6588480132929879 -0.25407769994985274
Ni 5.608613756745575 1.7973576004993708 10.808914462036666 -0.21797349802812785 -2.236643006322232 1.7353290548243918
Ni 6.571094223354722 0.2307724580727508 12.964019338546864 -0.7687999544337986 0.8450516751086866 -0.04590319029001772
Ni 6.228748340513469 2.497539752594756 3.6246030255551585 -0.8495683320321176 -1.033232258145098 0.6118726729847139
Ni 8.080985107717964 3.455922821960041 1.213638866489539 0.06843788105742407 -0.4491717222766458 -0.33491935398826833
Ni 2.2573228865761976 2.3931488241713788 5.583613144467358 -1.3974565317450707 -0.6892366528871743 -0.08314793357408906
Ni 3.2078356159866432 0.46712275307227064 0.7420404948893574 0.06162060102527452 -1.5554081406936116 -0.3351481821696228
Ni 0.1390547237038621 7.964802574556594 10.07076000543832 -0.9146324115213023 -0.40256919192675833 1.8806542332581742
Ni 8.820565310235102 8.624835795739836 0.13509915944151815 -0.9089744419045765 -1.2796179887673318 -0.13231282533451408
Ni 5.526350627464955 8.829983761818278 4.368523502709347 1.4339805948130337 -0.7178676863603056 1.4025622284027521
Ni 5.9897180510723205 4.775405246167331 3.7577434066310023 0.27392404525181857 0.6050214543908355 0.3704633125311491
Ni 6.029829901466419 6.111314339868114 10.058033044632667 0.9109266805349409 0.5012931255622335 -0.8869729979328208
Ni 3.1292619982514016 8.61505580910573 4.654695181752788 -0.5954962885092197 0.438350977512058 -0.48436883900306904
Ni 0.8015296970003014 2.6622514137462145 12.707873608989555 -0.19600110752209468 0.4236877190729284 -0.42606444683522104
Ni 8.0193294763403 3.3236102634495293 5.179849872576874 -0.22724721002056994 -0.8186449029803837 1.131934337403702
Ni 5.469255899806703 6.145113232065222 0.4611945052499858 0.23538989373236235 -1.5236123363392535 0.43694201297967333
Ni 7.861783625300844 8.735678734302871 2.251218506293204 -0.5689907860195232 -0.05670388044994751 0.7075958721206522
Ni 6.727787222479164 1.121175813707966 5.778595486524037 -0.4999278697835906 0.5770223980747482 1.0939786840955352
Ni 2.1868884425516155 1.3590473369602412 3.3057328186875647 1.8037054865162614 1.146761889334838 -0.8374918604835576
P 2.5824634090450327 7.9925202617944855 2.398361417995414 -0.13021763336838219 0.7178957113847636 0.764318007403045
P 4.980775695354039 1.8601534578068888 0.20820154673936658 -0.8486962138398093 0.0817731647137495 0.5253375681059469
P 7.661409775920567 7.323828739647969 8.862522843414842 -1.6402617441048977 -0.8345703159613885 0.9963333282362197
P 4.3658694646303475 3.886288584508243 11.358761996839204 0.30538946284995144 -1.452070619545525 -0.7954972612193267
P 4.373350459145725 3.489007914184802 7.761457648668041 1.0853171517657954 -2.5371800261758883 1.8260293468244424
P 7.840119332633637 1.4862520541101911 9.557680585315264 -2.71694615989636 0.5342783222390024 0.5565425329538416
P 7.291012481179028 5.735197375218288 1.9899445410904077 -1.2745765696886824 -0.6793039671544947 1.2070218625671598
P 7.609951287005002 5.402205053053636 5.336693047799394 0.04204087912113405 0.7699957745141126 1.180378806058335
Ni 4.374194040931226 8.32681967222019 12.668499660904532 -0.24892186678052616 0.3108337737939743 -0.825075746207392
Ni 6.003817918058552 3.615869636542845 9.78434452198874 0.16233122607347528 2.648541960290348 -1.2502179383386598
Ni 8.236250506897713 0.3729790258103531 11.361638518026467 0.8959759727623795 0.5555292611979787 0.4426475480048828
Ni 7.157652398033773 6.916415817769005 3.7773627087280834 0.7787763489202201 1.0170880442850678 1.0028855275324406
Ni 2.1265398994350013 8.058162048861881 8.934540625559903 0.36308707467173595 0.7334830243000593 0.1184214120644025
Ni 4.3584348207625245 5.9805684332449625 12.005781810214904 -1.4346776208800582 -1.6786539707298507 0.1594726735787576
Ni 1.4105058258758054 0.3441619012124567 12.547502222475147 -0.647283191273524 0.2050799298949113 1.5519852310549915
Ni 5.555913070475536 3.235052716230941 5.912305980564807 0.7851236312944865 0.08657032899207671 -0.5710780075658551
Ni 1.1844722580090778 3.2230386283846837 8.3051720657861 -1.1906490776360914 1.897144003383081 -0.3546268597195247
Ni 2.184793393282129 7.713100018073907 11.509174483219944 0.17869938301885355 -0.09431192061070853 0.5035024745087264
Ni 2.2544584165572985 5.807458034756537 10.271060620795462 2.130601713089737 -0.5390461759412911 0.7723527047820633
Ni 5.43522525437182 3.7551533324456288 1.6464630673840588 1.4316943698820181 -1.5609979760765633 -1.1017755544321348
Ni 9.309156756241899 6.701867940366407 2.3543338648958683 -0.9372126108146633 1.5974706170813004 -1.1440259784609135
Ni 5.200746598520571 7.084316403472248 2.550618660148843 -1.2266892590891003 0.2288037558744124 1.259232226022128
Ni 7.296194483575677 7.41240482712558 6.457255178933733 -0.5925392627634247 -0.06281487844369182 -0.43749659993156265
Ni 3.4222073609285317 4.238775989034529 6.138887413085635 -1.0709467419767362 1.439479927364708 -0.9698566221019296
Ni 4.075593899252386 7.400446360056389 7.877624422609243 0.5972780629999908 -1.1100352233377655 -0.03209610920359633
Ni 7.763742735592503 2.669231821267998 7.7468859320896994 0.8789578409378281 1.4326536484714938 -0.5790741383974544
Ni 1.7828127672966108 1.105240461078556 7.625155226415995 1.6838715103750483 -1.2234666383867445 -0.7453700055456325
Ni 6.72940949514359 1.4103667739331402 1.6131944265949798 -0.9283870421032335 0.37509001266988307 -1.4812611250665522
Ni 0.16231625968581587 7.395004794033432 7.7417567694312615 1.7748152858444723 0.05817840811294496 -1.56621423017018
Ni 2.563626505878679 2.559047061900245 0.8518108794679686 -0.2359676206127033 2.4822064981534866 0.6883599067091758
Ni 4.612436369363941 0.4930976559620943 2.6014032106489577 -0.4093972705921852 0.0964690761630274 -0.803857974479196
Ni 0.81208744750038 4.83885928267013 6.0429628939446545 -0.08018190896722965 -0.64152083486845 0.15243839243979554
P 0.8396252942257584 2.9681193369616787 2.535856905915526 0.5544095457712388 -0.4612751904083991 -0.32093666655593117
P 4.125077850582107 1.976521393558479 4.23386374740665 0.44125786674620776 -0.25827528297096813 0.8185924524758934
P 0.17382234443486982 2.1720840457225474 6.4647713999412515 0.36540620972321586 2.5286673607191874 0.5212284310335797
P 1.9059571677207428 8.339482669132215 6.648723214892792 1.7058107336503008 -0.0821068939040844 0.12978748780949906
P 0.9096694657979276 3.822037316867498 10.50453532162067 0.48173757202780904 -1.538433460512486 0.7290026199312025
P 8.457000100943171 1.4320403367298598 13.3861532260893 -0.49774603164092346 1.1111536532129251 0.2750314193833844
P 2.304971352262741 0.5471063575061348 10.692529840051956 1.1047860591236844 -0.22676641372940948 -1.21820307599496
P 1.8551290476119262 5.601253273913841 7.902846590982772 -0.15915874188276463 0.08180273240010427 -0.2173713456677547
Ni 1.6409890559078129 7.3889977501103035 0.47007807036037763 0.414119358658203 -0.49695567452914413 -0.24458570129901747
Ni 6.3192618850588795 8.592269830767691 10.473125341798546 -0.8205326069213997 0.11826688876440923 -1.3531870204037342
Ni 4.133652720379782 0.29556417426398723 9.096295115397352 -1.0054946830205134 -0.9493816420770295 1.1735787524173658
Ni 6.606255824589947 7.028259930319226 12.177495200186021 0.6592856150510387 1.4044157366717231 0.004634670558533954
Ni 2.770461635528124 3.7350927721838234 3.5616894376028507 -0.6813333388796975 -1.865702239934032 -0.01864152636058725
Ni 8.186201077667821 5.420596990003461 7.771958851378102 -0.8168790693292125 -1.080433084200617 -0.9833662265525903
Ni 0.2508867850857199 5.64895736037745 9.67665713551125 -2.671377213017309 -0.40124301691616704 -1.0684221757826697
Ni 3.147607584553672 1.9798400999234174 12.121745568319813 1.3285090580410797 0.668565497691068 0.09520306496641023
Ni 5.8193238005306185 1.6367247963327525 8.30990724794032 -0.3822829308738965 0.5216524059448758 0.0331749440900719
Ni 9.508835345908851 9.459518256910329 6.027197184685296 -1.4593792373917962 -1.51117282502432 -0.310749184499968
Ni 1.8909580981719436 5.961787150855675 3.3913999395246233 0.5975158900424097 0.9035720399420826 0.8506844479144318
Ni 4.099427402225168 5.1520413380697745 9.051291417660298 -1.369846483337286 -0.370815039443613 0.9411037183389535
Ni 5.805937733516734 5.0952617948148955 7.574140776704008 1.166206885433327 0.5904175884347315 -0.9444559226406379
Ni 8.43652238485337 1.7342187483999456 3.187408885609153 0.4527319288240784 1.1345941436240525 -0.12016564844901885
Ni 8.026133751401373 3.097632316359868 11.098192561479244 1.3288242752886534 -0.7483946513045691 -0.09611683502993125
Ni 0.7203919614423178 9.144732469105282 3.751027197800282 -0.9308483591595323 -2.682468180724148 -0.6818002512137871
Ni 2.9527958128799945 6.551413738402868 5.882226264327513 -2.415132844433441 -0.253462434963357 0.22584621590798523
Ni 2.924151112691003 2.401019164126218 9.597461492085822 0.823910265144381 0.6102626481851168 0.5325114601465668
Ni 7.647393340099933 0.06898830382086636 7.807289168970427 0.44071844930296994 -0.0036458242827033987 0.9739346488260453
Ni 0.5631714919486989 0.933752335254556 9.51198440890374 0.4075057099964272 0.5882792019354901 -0.06434699881750208
Ni 7.8747154559686905 5.721820578333914 13.6149873000813 1.7691945972235854 -0.4424351748837606 -0.8308293608617175
Ni 0.08923982875059826 6.869063996226814 4.8744528719405675 0.36006808533975404 0.34467206249965804 0.6026773796386912
Ni 0.7155288515008468 5.007065782647236 12.505930326683066 -0.47050493653678327 0.817230024910728 -1.7021034600020426
Ni 8.722190695864363 4.577191336963117 3.3102241964356445 0.1473380950987527 0.1468030485308891 0.634406592421172
P 7.149791328208444 4.956654818366415 11.658039784985299 0.23703771374843044 1.7671554553063697 -1.6685693328003393
P -0.044264868415027796 7.093299158968407 12.348259328895212 0.27023142689157975 0.27415570164665043 -1.418379655050983
P 7.89648172006052 9.394071142562666 4.42495263506871 -0.193946281875595 -2.3981316818897542 -0.552402799753855
P 2.585346419322954 5.018644174406476 13.361270344455871 1.7852886745719705 0.08354002680618516 1.3364257417849952
P 3.8884763350728386 5.366681916767482 4.157124688301636 0.7523325529063946 1.3803970051596226 0.2607093463337575
P 4.170788859200851 7.427376086285847 10.480370875024343 0.368533699608604 0.9421349878169452 -1.8238716770514911
P 5.667340027197763 8.24586363120062 0.8253196303643822 -0.05517818783404045 0.3541326936919256 0.9625441476009164
P 5.459957959907169 8.882202401353746 7.391206821972776 0.7598085495684657 0.7794636047952318 -1.5750508546252036
