# total energy = -340861.05079921277 ev
CRYSTAL
PRIMVEC
9.32566480945453 0.00000000000000 0.00000000000000

0.00000000000000 9.32566480945453 0.00000000000000

0.00000000000000 0.00000000000000 13.64905310128105

PRIMCOORD
 96 1
Ni 9.114167796153446 9.029649298406504 7.063644406856479 -0.23849090125518926 0.33084415547763024 1.533707001571094
Ni 5.309921482415929 2.320971391289729 0.7718703331036035 -0.1403855750403195 1.067747004092516 0.6991084034749315
Ni 1.48886099550863 -0.10693646274019687 5.488666494698355 -2.024530595060572 2.4100942535682686 0.04090496574447794
Ni 4.5150111624940985 4.7779202972708585 10.968228343104055 0.5545165036627482 -0.8292435044318364 -0.9075665058134563
Ni 0.09699810203745873 5.149119048712905 3.425202813282481 0.6843530995426278 -1.2724793208400216 0.04400314505382744
Ni 4.435556500593631 0.4123976722570562 2.2820805724489404 0.6071097043784318 -0.1748581548958924 1.4442958606961127
Ni 3.030001666441441 1.308549271583096 9.87650916522772 1.2856569958725599 -0.05369363286871399 -0.561820236413013
Ni 4.153063470278022 2.7113996630180153 4.687931364703399 -2.0036370394410135 -1.0409957041406008 0.09711030929145212
Ni -0.18882419051975322 1.866708945769342 4.352737138926297 0.30196835298354446 1.5575573258261306 0.45172174239200913
Ni 7.188753792090272 0.6859697718714918 5.415698765053516 0.9499292870503834 2.0492769487673157 -2.8175076609612058
Ni 5.458973578795645 3.538082522035491 3.1762029071705737 -0.3004555158834438 0.9246481438860915 -1.5136189725719675
Ni 2.9033031879696387 7.520756775460995 12.916207657660252 0.2951094210801821 1.6232222721241079 -0.03490683917951407
Ni 1.3442665667801375 5.5681864362506195 9.740660344707003 2.546344980504608 0.2615166727264013 -0.44785223213427383
Ni 4.861748695841668 0.36409539276016956 13.617591820453725 1.2417021875581649 -1.5971150335140947 -2.841535905555003
Ni 6.3670694892674735 3.81613653602896 12.214100755864749 -0.2918736877517038 -0.3131246267106801 0.21336453850120674
Ni 2.7995365186073724 5.456129251110241 12.091627735997067 -0.09435588647476653 -1.1323845375672432 0.11077829369684793
Ni 1.414936452681751 5.777053345004702 7.334332078427978 0.019910622880997965 -0.7951105673038693 0.04785568603069822
Ni 2.0670801741253815 8.100132336480993 8.104889357964025 0.7294528200947437 1.8117833784283894 -0.23450594846551226
Ni 1.3321338772105942 1.7246604234608995 8.248845911237824 0.08407738736689391 -0.8330898747611201 -2.3270926157640566
Ni 3.321577894021258 2.8122847020367083 7.171839834309887 -0.8413364310406284 0.7985260207433215 -0.7712054785514976
Ni 6.9353941378048365 7.597646879612328 0.6268637100023409 2.172784259995058 2.90772484267725 1.1053424458477865
Ni -0.2714188036716165 -0.2405713704985686 1.8432362481163516 0.06789357851817984 1.3659705453216475 0.07119976007327738
Ni 0.8178710385914485 8.937772851335682 13.28646544954998 1.375643292524721 -1.047462285701551 -0.48733152117581874
Ni 8.779954630286195 3.089872432803062 6.596041598208319 1.2023383410485617 -0.41526735621971705 -0.5233056252775826
P 8.871765797705221 9.122607522564236 4.145817428928649 0.4946820480036191 -1.3405875864721686 -0.347241365888731
P 7.040093373621333 0.4001325582510122 1.171507698567419 -0.7641866240315033 0.578865364820758 -0.6727401978940478
P 7.263545621719586 5.84127919670758 3.7367014580240308 0.13667598739921621 0.7271169728727154 -0.022701041141941547
P 5.131139167475333 4.075791013880455 5.934471495045322 1.267370024637914 -0.2873899409487373 0.6655583354336279
P 8.879599355920762 2.7071564856512653 12.186720604768531 0.23365028533343632 -0.014704910310342418 -2.120139894326465
P 2.073029948103374 2.1605606354974816 5.13136111829144 -0.09562524010549338 -3.3211898555809056 0.45406864535763086
P 4.7825831295420125 0.8974226874031564 8.578279674027142 0.2718849033346027 -1.111217159461009 -0.24472582642130755
P 1.9183264990110194 9.101027934813333 11.093636149603201 0.3250602018060015 -1.150627285827515 0.6271519677412877
Ni 1.539350143340688 7.867093305233247 3.45196840308536 0.51394295311576 0.3392673465443189 -2.5691671206054467
Ni 0.8972203204825884 3.806008864336013 10.960871326346627 1.1326866421886945 -2.452845014272234 -0.7978487921706389
Ni 6.6701256098988715 1.2596081840650613 3.131720419870217 -0.03204982934669319 -0.22249426871661682 -0.4063078330335841
Ni 0.5951023617041467 2.021235207235393 0.37350125801754186 2.912072321012668 -1.596863836735237 -0.521909002040372
Ni 7.84294915973321 2.464166970336876 0.23599713204056633 -4.18878547742838 0.8706711754490037 1.9206536564692471
Ni 8.593646504059956 6.9480677159178335 2.2263513337105594 -1.7489006228612398 -0.3955986741461961 0.9823156738008888
Ni 2.696086921839545 3.4281702397398433 0.7006595586585361 0.319708707686101 -1.04293765835832 -0.9978873029869009
Ni 5.469520905392995 6.013552197797645 8.994998859233103 -1.3099822028814858 -0.7599707861779428 -1.0057703052794034
Ni 5.521091830311962 5.859725361172266 1.9934988157536593 0.4019621544703787 -0.8654724048568837 0.5204403879146455
Ni 1.6028112905510972 4.067295333482412 5.262951840382137 -0.5603799044220606 2.9005437515477785 0.2910146821855181
Ni 6.134963024473959 -0.33781100724767316 10.799690270663184 0.804213300936086 0.8377214599958606 -0.18711460366574226
Ni 7.2520284260098355 1.8798861097676238 8.083924331506461 -0.061955358656873946 0.5681261240263829 0.4563507565235882
Ni 3.5209232992776434 0.2625165242995289 4.7778102544292596 2.2744230532844827 0.3498692904298813 -0.7027290309466543
Ni 5.071753335669913 5.912247503874547 4.209258992243519 -0.9371691591712377 -0.3233858994273721 1.3404330631721753
Ni 5.105959873211101 1.5983442972353314 6.5392203241520335 1.0150846407017937 -0.4261606060934532 -0.012540041448539693
Ni 8.44544304315359 5.4637856216994765 5.680653950630859 -1.0458982836485406 -2.49505841441549 0.6039670449843921
Ni 0.7525102535137711 6.96429437222145 5.3016738646947115 0.0919336501865191 -0.5202642673480975 0.930131792708482
Ni 0.7468840800953964 1.373633084423867 10.337478628686934 -2.4425240919622 -0.5054434002851812 1.6904800168305016
Ni 2.93805061405428 7.618601647838895 6.057380956013586 0.3870669825261011 -1.6142465509880586 -1.54078884811854
Ni 5.076929079490895 2.8461088873316607 9.463297362456117 0.29662637194534075 0.00923565966565506 0.3132997188359637
Ni 5.8690230487209485 8.016275960916555 3.2482697776206253 0.8773447308144374 0.10063991971126539 0.09054371181752793
Ni 1.059003814095464 4.564036180993014 13.204871480203504 -0.5982260287355567 -0.9169134942459951 0.024594915730544738
Ni 1.127510145823262 7.002343083554068 11.43457591730482 -0.29690302264549506 1.0075286827314067 1.5638542145784358
Ni 8.425327584735832 8.352857845577551 11.251336867279454 0.33517929251787437 -1.2269612818035642 -1.426297624346479
P 0.4865851988240285 3.4981686777944105 1.7965295898226539 -0.5540511339905555 2.0441416844232796 0.8315158454057808
P 0.7286887760068984 3.6868175458207686 8.443850219649764 -0.3105437533573813 1.087713934132746 -0.3569539651908046
P 8.75395467754224 6.862644628710287 7.440044081413769 -0.23708887870134007 -0.34100027007502565 -0.889992501485435
P 6.687872349522884 4.420169154098821 9.973267597686439 -0.26033576504442263 -0.44774758823560956 0.0003193310126317081
P 7.98583699185046 0.30691228291964257 9.374933893218383 0.35600060013859974 -0.17664198626919256 0.4074743425378596
P 2.3661076076745022 8.272787689817292 1.3322961437736303 -0.5511553004999991 -0.47802438484228 0.7800408174549405
P 4.612734801232949 2.0442229703321835 11.876655314667136 1.6898606380789478 0.22339852569844104 0.5177556419936309
P 6.124602211167454 4.25724046888015 0.7397592723850727 1.1263162198859764 -1.0880265802771585 0.34096324618950313
Ni 2.6073065953967682 2.4839467048311117 11.856140717806964 -0.625087371902775 0.6685379868872422 1.3481494579798268
Ni 7.580217212582753 3.514535219066162 2.3179778529716484 1.7374337598722205 0.7861219906520139 0.39922238694171247
Ni 4.704415409348383 7.767047576023362 7.400857639006989 -0.14167292639317536 1.9174734589690525 1.619906063266681
Ni 6.412243008310416 6.340948302884468 11.04377648412775 0.5747253745104554 0.8832618676298208 0.990001986701553
Ni 2.7665236661276005 0.9583052883676173 0.8272209498615668 -1.4425693649233091 0.34569279045468854 -1.5840687418530977
Ni 5.944682165152696 6.060478941774541 13.29510567774843 -1.7703299963796089 -2.1113932584820865 -2.050882345581223
Ni 7.351020355126439 7.366379724627621 9.106266160586747 -0.5555909676738496 1.376866880519177 -0.9165836217104022
Ni 6.64192480032293 9.23436628643926 7.257337526833772 -1.2320821479698973 -2.91755854093822 3.34035357299355
Ni 3.9691240628455304 8.390850602922917 10.077778455079184 -0.7459603308314637 -0.7919198282807136 -0.44947768355283885
Ni 2.784130520783479 3.7465857298724234 9.272838382942098 0.15026426760661218 -0.007635662168386851 0.5330544771342304
Ni 8.281320672873504 4.950435765639022 0.44586281946713013 -0.6561051604405282 1.1086506842854131 -0.021721707947807752
Ni 3.077348065322741 4.290132087720872 2.8674889058613577 -0.3426450047673002 2.425109238919862 1.3086783964683977
Ni 8.521456534837947 5.160748152397163 9.0878395800176 -0.07899071687260589 0.3339119957696765 -0.4738440282123452
Ni 1.5545976048673624 1.051356769170771 2.957804236687798 0.3978597022662309 -0.2137743723451157 0.18031172181129593
Ni 4.55097092496924 7.617510545087446 0.9699437177164183 -1.0937573121133484 0.12456403462703065 0.4012574150938702
Ni 0.3484142878322779 7.488807048739046 9.32102036136639 -1.1176014657207978 1.5713721202220359 -0.09220747267319605
Ni 8.140456509961934 0.5187960441531619 12.777915513029452 -1.19452964363742 0.964416682033281 0.7735500675242742
Ni 1.152363041828514 6.117971663677872 1.3173629571420318 1.6916781509036607 0.41923662528011024 -0.18652196438706586
Ni 7.103088237604626 4.138953739825509 7.634611016158677 -2.33235360705268 0.8213049663110501 -0.4797565370420382
Ni 8.687900995589068 5.216842024619148 11.494904573795468 -2.102008989053709 1.5140797142584699 1.0505072431754618
Ni 7.299990318750927 2.366368726281687 10.55827959035581 0.7756604289990576 -1.1500852972811162 -0.0642518680005345
Ni 7.792180241964883 7.660035575400372 5.520290755727777 -1.2312650513852408 0.5946018017194082 -0.8720623993695756
Ni 3.923223141968288 5.438363860157144 6.9077584635001585 -3.2400065019323554 -0.01898425441198666 1.0592081133835693
Ni 5.90252083575692 6.145687538697613 6.5208758094308585 3.5527194950269134 -0.28750152682593716 -1.18743082780911
P 3.422444281710866 5.392481590608986 0.666264642693594 -0.06609766296002165 1.5183053223040432 -0.03446435232545677
P 8.679395989526483 6.944281496113656 12.954929681972825 0.17247217116221908 -0.2881054789585232 0.47113408548034985
P 5.038665877873803 7.8583738088861885 12.261790339201205 -0.3585665610935631 -0.3264740514343926 0.12410123605799918
P 3.292369912674748 2.2646257261251015 2.46912729130693 1.4662638803267714 -0.5482119016009591 0.3369078451732069
P 7.181871451658048 3.076853805101999 4.421623957767421 0.7536978086850374 -0.9863605332942238 1.4895061386841637
P 5.508698022135234 8.465754340526738 5.3804291017545065 -0.5768341933233421 -0.08901004878182091 0.08722698873946913
P 3.257762371558241 6.517361899031317 8.867243782968657 0.17705361988531443 -1.144596506252403 0.06809155346159886
P 2.6200361274970194 6.116656744977407 4.363411294561423 0.0025160815536343765 -0.6190493932388113 -0.08911057891542717
