# total energy = -340873.81016336486 ev
CRYSTAL
PRIMVEC
9.21368366677410 0.00000000000000 0.00000000000000
0.00000000000000 9.21368366677410 0.00000000000000
0.00000000000000 0.00000000000000 13.48515737974495
PRIMCOORD
 96 1
Ni 9.182090044084497 6.068058418631183 9.024496432850542 0.02889637131937604 -0.8778391539523528 0.7983974655852573
Ni 6.28926053847852 1.8988388735928798 0.8582592496184345 0.09615488735671826 1.8113064387919706 0.8035407003490935
Ni 2.934982108834132 4.796514776859623 4.606165598470167 0.8832358994878918 0.5461056538912337 -0.3441668407284654
Ni 9.30296436140694 1.0286340829721932 2.1774081526707016 -0.38167280809372334 -1.1845049124115665 1.6350408620255905
Ni 7.049933056492362 0.3435911667808642 6.583251681443399 1.5219619452200241 1.3147965935509938 1.3768342275090288
Ni 0.7637812149163944 5.287917386820381 4.215783660053485 -1.6694756466646927 1.6705616806400199 0.46972177851385555
Ni 5.99164933916209 6.751179360388983 1.0281807697309198 0.6504795867236346 0.29175978788165885 -0.20499919725564694
Ni 5.7709723992894 4.260223099592292 0.04512678034772941 -0.7784734729678207 0.7104875918461506 1.3117104984265022
Ni 6.035552542305733 8.430511431947417 5.052227670619831 -1.2525087912553654 -0.08834953237968655 0.673386316118479
Ni 7.537751543468256 5.813392199346761 3.379272389595649 -1.8229764189307314 -0.12863614781387522 1.7184651891895175
Ni 3.5640095132034073 2.229656189200954 7.650426603607587 -0.5644479038438472 0.3910843312156103 -1.1986644917414002
Ni 6.833254855373992 1.375962319888432 3.3573189452870746 0.10442638333689112 -1.2532158446247192 0.07444423515250405
Ni 4.869293664925023 2.1261035973580587 12.10408822975598 -0.9652862291224279 -1.0776902313481567 1.582554104980784
Ni 5.300107090442425 7.061118468583942 7.929690594441345 0.052913560169579835 1.220446620613498 0.8026328438228435
Ni 8.189140558336925 3.0433073888676687 2.0436890388104723 -1.3200850956434427 0.30997682511031777 -0.23280104995926357
Ni 7.409930108586463 3.661739056906369 4.4343921279207725 0.4062733802512229 0.3496402051382107 -0.9123359021776416
Ni 2.4663465114584615 5.636424975258632 11.189457820122136 0.6380220776865722 -1.4580638610144825 0.8126321211274005
Ni 6.762051507232529 6.687217967687375 10.117198787256026 0.8424150088167878 1.728200414199411 -0.5282236314044904
Ni 6.96889870777288 4.987403877117751 8.338587430385235 -0.9074310086768566 -0.45142529419751287 -0.05407338480563591
Ni 1.733784942613823 3.0245575424044344 12.435540368175513 0.5526470545541773 0.9671263676549602 -0.3048045368807589
Ni 1.404303611151778 0.9120164875495113 11.377831584712222 0.5467599996457809 0.21046407702496014 -0.6247436154101111
Ni 5.13134925858955 9.098521932329442 13.257851509213625 -0.7595236713381952 -0.24001890786394145 -0.7571839674614249
Ni 1.9537155741014913 4.600014543188174 8.818201131967758 0.20561703334530393 0.34427714105408447 -0.6932606864449028
Ni 8.88116191861241 3.6391194632615336 8.460817080589615 0.28998906913448125 -0.37665452894352547 0.1631328960391642
P 1.1978065305945256 2.25433964800931 9.684352823099905 -0.491804726455824 0.24283478004618178 -1.126506995740544
P 3.857658828500578 6.264623148088993 9.745804408343732 0.7799474864101857 0.4839420358782956 -1.472862873700528
P 3.8479383921277464 7.453566114900898 1.2808218213236369 -0.0674084113516452 1.1856649941579387 0.5066734160375402
P 7.2394308905018665 1.463621307235465 12.59790113938985 0.4710057874326017 -0.3173566625141567 -1.9689752263927702
P 3.815386447383468 3.8787028822214764 12.483008345568111 -0.9732484213922981 0.9608384777637194 -0.2725284504558726
P 6.539154069572301 7.578282538353645 12.471235100452278 0.45020042065147625 0.11025353154162948 0.019898538696139924
P 0.7200300375548866 6.7426474892219295 11.080282117077022 -2.0414641375911162 1.1004915455133888 -0.6380285054444753
P 6.245274412180987 4.028766149713712 2.3402544850194924 -0.33173967070870614 -0.05980154553866475 -0.03825210150266316
Ni 4.728858696967962 2.7183591898183566 3.460938797021459 0.34204850883388194 0.2320225199220262 0.10717514972662186
Ni 2.614834239026759 8.48551712402875 12.769297770273226 -0.04213292461430808 -1.954455692620357 1.6005294585122822
Ni 7.7762938161626725 7.3033093600495835 7.431508555965771 0.06473883493928206 0.24493871376306203 0.9441952127800836
Ni 2.723002886436278 7.305695704144904 7.984858447356952 0.49785607485622646 -3.724013329610315 0.22422282137194932
Ni 2.13909489146772 0.10054708819851801 8.175835077610854 -0.7051137291287469 3.236048545725872 0.6075313652968828
Ni 0.8998313907693503 3.1284602542304265 3.551127861930558 0.23702768644610148 -1.7551571452939125 0.3290400123893559
Ni 2.454764910964955 6.950471340241446 3.2567598792996613 0.7501237181805339 -1.2828372670355777 -2.264210631527855
Ni 0.8215454839171815 2.885246643866791 6.084557362150453 -2.0705780242379372 1.2221396920452048 0.8524839630170158
Ni -0.11530372411769059 8.3663104834679 9.296613369187233 -0.1895620367649703 0.7308743830326186 0.03269414779891143
Ni 4.610739271091468 0.8301068388722858 1.7738239267861233 -1.4333470749940926 -1.1087316740349937 1.7688102173009732
Ni 5.383693629565012 5.308261200575084 11.366085980647686 -0.49275320641202236 -1.5941217552137257 0.036904843446149346
Ni 4.722897443571544 3.5947187211945426 5.869158941707141 0.5482340130881461 -2.016130286812018 2.0956290536692936
Ni 7.993008872016106 6.004917043784723 12.526672914302221 0.4344925229979162 0.7245137309219135 -0.6850894634880201
Ni 3.8452848512032203 3.2647306371253833 1.17774004872117 -0.21462386482960458 -0.3791814091304373 -0.6755283021621463
Ni 1.5586051731762431 6.5656249830312055 0.8873790971599835 1.048714412941097 -1.5438651730510184 -0.09712239347631015
Ni 8.551081697705593 7.25316849299655 2.0145747194791825 0.47854246212927914 3.6684739017821144 -0.2541777158628268
Ni 7.304958609443647 2.9296381722500167 6.569483673792289 0.08078380421728668 -0.11705307096196615 0.6940438444678304
Ni 6.454950213637411 0.062419943407603914 10.863481373964568 -0.433958247761001 0.5799344295152207 0.6474724244661947
Ni 7.402245896325854 -0.26136825285560444 0.6482167435481341 0.6834203033157134 -0.35531745802864606 0.27459638872849484
Ni 3.112612718153393 3.0345728166577692 10.184382205170504 0.15201955973482206 -0.31025630402394955 1.7177270254719128
Ni 0.9477747942442594 5.690214461082889 6.731696104697998 0.4293130356795058 -0.09761167440790286 0.5480311530487206
Ni 7.768839945996207 3.706628124212943 12.764914820905876 1.0326421899695828 -2.07430689515275 -1.0357889631286807
Ni 0.39268351662135825 4.107524718543061 10.838480043066294 -0.24480270240583002 0.5370918804283975 -0.21261660459158865
Ni 8.673273571806535 7.892321735824348 5.295297547516721 0.22755959905466613 -0.7225895173160072 -1.2358084477815492
P 1.2708249744378337 8.586609662306198 3.9826793035175942 -0.9420701960172808 0.668415345266449 -2.0671761976452396
P 2.7823758646225594 1.9388446885036237 2.5836081433763667 0.025019661972789167 -1.0271289734608373 0.8207223543347026
P 8.387548024547879 5.386356384173304 5.694080522790983 -1.3402266035883241 -0.5040472912686029 -0.7582404337503974
P 0.4490316424273546 4.627508175545074 13.23009897234291 0.6298117739616379 0.31789068064075576 0.5303558472561447
P 8.605617491914872 1.809807047364755 4.6138931150444735 0.08648779658059944 -0.03509015883491376 0.04713500581458979
P 3.678406610838551 0.432977719833969 11.373476276396167 0.47715638041502983 0.11628945332306423 -0.34780186637789134
P 6.9285980549816335 8.031660275413289 3.298765984955942 1.7061753160785713 0.3278462491915709 -2.311227366597026
P 0.7035154307732152 8.029642478668597 7.165406312391342 -0.12078168476646295 -0.09361849408810972 0.5811934987333023
Ni 4.724813889794813 7.579636949867206 11.360530129336958 -1.546321347900995 0.18756788915307698 -0.5882928287822449
Ni 8.42811587416833 1.6115654274615852 10.312247865734374 0.8109105104506035 -0.5139506664252439 0.6252784048676587
Ni 8.728758375443682 8.636732101991699 11.666265954997998 -0.08035880086472612 -1.3950368665599846 1.1110932322886349
Ni 0.07015483092892345 1.211571774140507 -0.14205104808956745 -0.17740174725335253 0.6204730130592153 -0.1474972463844363
Ni 9.242799006416808 1.321398884627855 8.036573932965545 -0.4045093463722646 0.10662390520884216 -0.5440945369984759
Ni 2.8139603725714375 2.3451589288879835 5.154013999284838 0.08790858818752602 0.2156649044996092 -0.36712396374527095
Ni 2.32449263620148 7.4584677946642595 5.384866531508386 -0.8144138956181716 -0.3587534802933886 2.820486798194188
Ni 6.402303224600104 5.8960850111440735 6.1767955503290475 -0.8322036155014247 -0.5780364411615593 -0.7107709274145243
Ni 2.073401326218157 8.925719293303418 1.8441492108647126 1.2538110550065569 -0.5766038224800908 1.5930938281698435
Ni 2.329034982297979 8.097832952218669 10.418053203257987 0.487753953425218 -0.8679897719620987 -1.3983178513041017
Ni 4.394254557332179 5.306427677505708 2.087219087761603 -0.8601054841180156 -0.3604342104299212 0.5256712972962818
Ni 9.06014693944523 5.202045854123898 1.8540069311256533 1.3928807394489302 -2.492508394300127 -1.3979175305418894
Ni 5.3119927425002 4.914753980625071 4.368705933618222 0.5610720453930789 2.0174191808267707 -2.3228932329707286
Ni 3.809001364533826 0.5325656635524759 4.232855694702982 0.36643799342183986 -1.2744215321680568 -0.3495072791047723
Ni 4.96322717091651 7.163464067853528 3.404287541019571 -0.5156781906393118 0.39529708374537725 -1.0877746121673524
Ni 4.334291903384892 4.930260610402773 7.9455759066218175 -0.1921151422041272 -0.7512979409942933 0.511297545073113
Ni 6.657430128072811 1.7583854782682877 8.515714972570887 0.14615307365171604 -0.2519539687386306 0.031151228791823773
Ni 3.961874805574605 8.73895792337233 6.600027035475641 0.766285415542061 1.950105643181777 0.25687197486553826
Ni 1.0129523932029425 0.5699262298540824 5.716128868042346 0.08407404493278424 0.14154951344143363 0.5239787400852073
Ni 4.355520230781104 0.8394854475774093 9.264397723900402 0.5836974961020786 -1.4507521578444176 1.2168666165717237
Ni 1.2584878518755385 3.0150674481257456 1.285993462021334 -0.15741116306403857 1.34351298764908 -0.4620915156621074
Ni 2.4965673942100137 1.3520528105163963 0.3530370353774774 1.4169699191876501 -0.158989563294752 -0.9756760569971841
Ni 6.389146084182659 2.6155529063604845 10.668930755777945 1.1273523744599745 2.377293919208796 -0.3417065521134309
Ni 3.620480181003488 5.894214633339632 13.285604046084341 1.149063283774505 0.2665681191073796 -0.3416098786345665
P 2.0074682051906847 4.832604776169938 2.400344287802747 0.704589995414793 0.5149937629777777 0.34958646908213986
P 2.563431097297823 4.111670876237635 6.640132358171055 0.6100878131701493 -0.09594868488318314 0.5191262970889123
P 0.6085140588332822 8.301805483424115 0.39637359696952795 -2.4793723711388007 2.0912293819397014 -0.7944065992583093
P 6.596361832073638 8.761337961239258 8.819913034411428 0.4086346813945478 -0.5571449424245307 -1.3328241404766659
P 5.202607888833606 1.3696693738764474 6.019599048865394 -0.9019872119534659 0.40739900921523386 -0.1622702909285528
P 7.579756727756161 4.6957355038302095 10.437255441594116 -0.8235929910142783 -0.5763724231955751 0.1576813860062897
P 4.373026229935967 6.9336102989501835 5.478911523073438 1.0455581267003025 -1.0809197940290483 0.2114488095357326
P 4.9420633393066575 3.0590167196882168 9.124893338003679 0.8866133006005568 0.35774766473669356 -1.021217750182725
