# total energy = -340886.71380485926 ev
CRYSTAL
PRIMVEC
9.10478923667827 0.00000000000000 0.00000000000000
0.00000000000000 9.10478923667827 0.00000000000000
0.00000000000000 0.00000000000000 13.32577937407961
PRIMCOORD
 96 1
Ni 5.542367404436896 2.9801340608302564 9.718571212093586 -0.18152296851057767 0.7311960280380956 -0.6333328997410189
Ni 4.61003699541495 0.4443018743236253 6.2700321686213085 0.43636660009217754 0.8600008402193512 -0.10819407790943947
Ni 2.870512399456973 1.915128664305695 4.8970108446528675 -1.280870373117194 -0.1259007511605832 0.40373955808577566
Ni 3.965991525268608 2.8164663710589815 2.329119785068041 -1.7852189976762998 -0.05741119092961726 0.5537305174263432
Ni 5.269369406545158 3.5400694888033093 0.4553487150000543 0.9002357764799979 -1.144134993234952 0.6072817111799219
Ni 5.033609996279393 4.507772003675355 3.1059859193434076 1.804941930026524 1.9163365171511322 -0.020451582986132522
Ni 4.9418701407978975 4.724384042357397 11.783453627390601 0.262719949005883 1.2548076145918714 -0.4938366692841882
Ni 5.790454699212579 8.280678265427085 12.597511914867274 -0.8770253998018057 0.4944326509969743 -0.7497856181148248
Ni 2.453886352714441 5.4021536515175805 11.418620173731286 -0.5474793943103088 -0.572345304314053 0.7872584182493023
Ni 8.261876875831085 7.129414096489692 9.468232302960958 -0.1423946350505483 0.3658816066977376 0.33458176814319146
Ni 8.013261503284667 8.973771234727735 7.217548455467548 -0.6837586604917385 -0.18437972123308244 -0.7339476226413036
Ni 8.729107340672678 2.604707184994212 1.6163504559340185 -0.013214184697428855 0.3902484655778763 0.6422183751561069
Ni 1.5812196269964094 1.1597680420040573 2.5739939997524766 -0.49503943134303774 0.7837604323983727 1.230391390531036
Ni 1.9279208930622949 6.697810671594415 0.4124769943266008 0.9596513994341536 0.970007545857497 0.640922796273135
Ni 7.6104565264727535 4.01960052378737 4.08612375523735 -0.4916779710699726 0.629114233673981 -0.31790790703193633
Ni 7.517041389787547 4.344304619265394 13.048829939710355 1.8063966601951793 -1.5454980806687513 -0.6313040422364482
Ni 4.408365915729051 0.8131250465887356 10.599750915667434 1.65532660885782 0.011984168945069682 0.11240734465983868
Ni 0.6548246300217428 0.2021372448904104 0.6402596988175201 0.25371183197000174 0.36262787564713034 -1.314969114573116
Ni 1.8995139509124075 6.766187638115459 9.618067997054634 -0.5905772539410473 0.8314065735214262 -0.9071684990440892
Ni 0.19831778584173163 5.456372670909432 1.4970977485972252 -0.11995224688663214 -1.9880121884195632 2.440922551803035
Ni 6.4828648093269345 2.044307412774478 7.0252307256760655 0.019641428380011334 0.5978992415237574 1.1035809830719896
Ni 3.138939793195107 4.528949743239663 0.27901262160462814 -0.5450257905634935 -0.25109624872402564 1.2290053088167867
Ni 6.125119434021365 5.90049518088679 4.963932865867644 0.017013760949177153 0.13468672488332933 1.1159150791573103
Ni 6.835256568611948 1.1991280455021223 0.5147811366595431 0.3824595656610768 -0.3866324660918438 0.3015857728331451
P 0.22748679884352468 5.865787724644684 12.795399954661097 -0.10605183475545606 -0.3003022781350312 -2.060442478465832
P 4.009785561083018 6.436967567218735 12.761085825310296 0.043267552439383544 -0.13623092944199763 0.14708946942305637
P 2.607720870203062 8.59245356031125 1.6044905575864405 -0.11127014573160192 -0.07893235283084471 -1.5043018089360995
P 6.2434634834009275 7.9359891577634825 6.209866811435195 0.9112292993770242 0.7630165149828021 -1.8292709936901916
P 4.65397670785577 1.512869974842818 13.024349893121123 1.3562204079134192 -0.44367753193129394 -1.4099690623897845
P 3.698219676349317 6.423483374486689 8.629481827307846 2.9401346264665236 0.7513290513425447 -0.10593459245130143
P 4.679898042567542 1.468274717583155 4.078141586589015 2.2686298436414734 -0.4969968121797247 -0.7104544246153699
P 0.3245292835263324 5.8419513866484 3.98287544626949 -0.5689853867028846 -0.6740784570894972 -1.245873802437351
Ni 0.5822867748588733 -0.03296571007759531 4.794615654428419 0.9500557853259186 1.7045310956069288 -0.12510628028374582
Ni 1.9728257131530786 6.961521784552537 4.8792209971315 1.247383297103342 -0.4714140786146139 0.7843006211725589
Ni 6.703255335506478 0.7238107069369614 9.227862227469327 0.31946830954052075 0.5048548747715629 0.20937727171868456
Ni 8.455280806968236 2.7168235585947613 10.548967133222105 1.0856161710634529 0.06324528111289107 -1.2000019796059012
Ni 3.59381505915933 4.431319089177726 5.155544064021039 -2.734554874117058 2.4689861428084705 -0.09701723535701355
Ni 1.365809420482247 1.355138607597738 6.859724778975283 -0.19334001575016377 -0.06977999690761531 1.088335883987461
Ni 1.4483716484999327 1.5395014831083373 11.553957401581538 -0.369163619883119 -0.8558513368273518 -0.002948283995046535
Ni 4.308959827782746 6.884686468910582 1.5509207096610262 -0.7834616702110313 1.4643016143940781 1.3360069090800215
Ni 5.425206977646912 7.876370998405322 8.167743371281896 -0.38275755651746984 0.2768674441508587 1.342707718138965
Ni 6.895366386584241 0.7354429855557743 4.996460635587094 0.3547248187499697 -0.050083546919952454 0.6710466122417088
Ni 0.7982032076498092 7.59218321464749 7.091166698225831 0.7382179678818834 -0.04716405928031232 -0.5596659090741716
Ni 5.063947153729209 5.154995045235259 7.135515215699512 0.1751296633897242 -0.8945423256396465 0.9593657498729349
Ni 0.6081370922152708 -0.14442107598581064 9.050629312342567 0.5536850089003883 0.8227314143449314 1.0973601989732586
Ni 6.501666198922933 2.053685345599601 11.608272931738387 -0.9581979548170787 -0.22206026650299177 1.196364897073946
Ni 8.360481742332137 7.343713518727481 5.203489883688126 -1.51991868953775 -1.1848263003067272 0.23147333228677552
Ni 7.29553097454248 6.461814536810736 7.352018907390663 0.7334004918885821 0.12151342072616494 -0.7120868180124704
Ni 2.613347629898136 5.238495066535456 3.0094004950759605 -0.9828445497211653 -0.146902807333547 -0.7365475221579961
Ni 3.6615182712832284 4.455027960125901 9.425230383802651 -0.3567017399706825 -0.4410174686006276 -0.3902062994860312
Ni 0.8288499279307455 3.3546322481729387 4.091001190785329 0.7148070451571109 0.28383899037268534 -0.9240130814052538
Ni 0.8905986079501481 7.632745050313435 11.561233038591787 -0.24699996716746495 0.26582841272787766 0.4835877378626704
Ni 2.4696376379449876 5.601075084879997 7.176864615626986 -0.8495457063242983 -1.0042183874112511 -0.4319890398497721
Ni 5.299442525109605 3.25291354378238 5.215576491285553 2.988563154281556 -1.6517658880897552 0.31185553019026935
Ni 4.212112185587761 7.093441074555653 6.062163458960592 -0.9136024275948911 0.5982013461452085 -0.09690667792107827
Ni 1.0560553887895163 7.623458165379818 2.813391683762822 -0.08765456319519098 -0.29496518219283396 -1.1796619824969683
P 0.5013187954214586 5.826099948737197 8.216982071008367 -1.2803119295105627 -0.7507058159362491 0.5499584519784206
P 8.65084257313408 1.590979960965858 8.25494722080856 -0.6807440420351308 1.0603386274435866 0.3319569289258348
P 1.807910667268171 3.3754822153278234 10.320042688171698 -1.378026190934601 1.3817064679996656 0.20054039015334493
P 4.20743232396435 6.483493039778326 3.918098513378596 -0.4818990373063379 -0.3920310113995958 -0.2014752432627885
P 6.8366951252977435 4.291141755415012 11.000324308658534 1.1890400812777586 0.1684234550141422 -1.659807270336993
P 6.576671451945617 8.059186059760318 10.470637721680536 -1.5473981259049416 -0.429613340528744 0.09887845693546843
P 2.5782577725117046 8.876686868014835 5.950240106890036 -1.3456120362699535 -0.5492791665232089 -0.9935506232847597
P 6.944787182093726 4.346726493179455 1.8051236913091708 -0.06731122365214859 -0.6551073153036331 1.539549319284484
Ni 2.703075326977348 2.0102737109295163 0.29617970154809375 -0.7107855827025436 -0.4965617815248351 0.9829293961254878
Ni 0.649302575401901 3.520557925653563 8.22829568200691 0.8212430027248632 -0.06531013406171979 0.13088046376336168
Ni 8.196358813103332 9.229342666185214 11.44636428723101 -0.005507045861158258 -0.17283521092859266 -0.0798612924030173
Ni 2.5060750041257087 1.6145613648659245 9.260537494773018 0.29571131633023917 0.7213322478701384 -1.157255332666994
Ni 6.458545917505669 2.021299610590899 2.9257547971493527 1.0703548740290083 1.4021701351706561 0.05348280240948853
Ni 4.1050580747549485 7.373677379822122 10.761339982075626 1.0779015760280146 -0.3530751989616887 -1.1843434471330379
Ni 7.415195218348881 6.518564687586456 11.958607919154279 0.36519460793304204 0.1472715035268754 -1.5973127513471974
Ni 7.535469483028371 4.629066004739714 8.713140271939263 1.0675945376750517 -1.7694033708002819 0.10572916130871468
Ni 3.169923390674616 8.533818718181355 12.629707359782728 -0.24640501389594335 1.2936639253374367 1.025994088525446
Ni 9.173621356583514 5.138779415758031 10.51857079464281 0.444513397569028 -0.697121969172522 0.583660472216556
Ni 8.488258353271727 2.520879391284592 5.91152927485841 0.3294472751301036 0.3002693680145668 0.031217049032752686
Ni 3.5173257255050983 2.969745496409416 11.498574790136239 0.28265705424944226 -0.6850817501785362 0.3090810527689258
Ni 0.780515333766929 3.56085572243414 12.931016699538272 1.2508252329053555 1.3966229801001817 -0.2439606661205089
Ni 2.965356988038824 8.576538388875992 8.042014427422277 0.4955924756330303 -0.01825843198955565 0.7608704151740766
Ni 5.526843738935114 8.355009764052623 3.8197276399587152 0.8566380943947053 -1.3392241304657386 -0.1978697852997173
Ni 3.3332906224039207 8.799041226138476 3.593216874512135 -1.52929216033285 -0.318351165216942 1.0266872579377286
Ni 3.5620211354454177 2.9713843584565245 7.211978145465209 0.2346391316092669 1.1426895190376771 -0.1680573299239751
Ni 5.906313141154027 5.880719578851677 9.55187891136648 -1.2423526766579702 0.7750683039410136 1.0779242017358341
Ni 7.929998206502385 8.307428135951563 3.0088414610221133 0.736237704227061 4.084995442123907 0.27730144636448373
Ni 4.823981330875865 0.8468664847019625 1.8743911062091432 -0.6576583638602608 -3.199882894438592 -1.5720472919121893
Ni 6.148482322981817 5.96504813596458 0.5292495570987694 -0.7343471720725675 0.8534147023614013 0.22730583117264722
Ni 8.333613509548702 7.50413990356114 0.8451538738627337 0.7284094664318939 -0.5243564351396002 -1.2411979942282365
Ni 0.31461872053589884 5.028993868180036 6.0293152006630395 -0.9955594261846725 0.21833190980881106 0.2785952254752428
Ni 7.071334646497984 6.402196377452575 2.922130180588497 -0.6257450600914319 -3.0972470273432204 -0.9753868078915395
P 8.48155722845688 1.4341954917924407 3.6132983974627098 0.5604040727917767 0.7772951363890033 0.24033026845677324
P 1.8975108972992745 3.2644311020578956 2.03847124292894 -0.8016015743448517 0.9880695455655305 -0.9332795943088443
P 4.711437032185238 1.654449446134725 8.260503873627174 0.39018701621232155 -2.3746459400629876 1.2708404996850178
P 8.660220505959202 1.8779173910471725 12.673002453151685 -1.090085519688716 -0.8030856150895459 0.7830731765233611
P 6.4261055537620635 8.126743595257807 1.3042956440229299 -1.1063580315964947 0.3023283074261245 2.0089342832842108
P 1.785121380024207 3.4565694675031113 6.165984459166025 -0.44450388448733125 -0.2674438368441136 -0.7124107770107925
P 7.095881158048014 4.428114203396713 6.509736684026031 -0.34361276799720825 -1.533964883218171 -1.1635825604366024
P 2.518776184990802 8.960696757507467 10.491745354368383 -1.8416652535894864 -1.224819552870213 0.05656015578323163
