# total energy = -340860.28726043476 ev
CRYSTAL
PRIMVEC
9.31651952934363 0.00000000000000 0.00000000000000

0.00000000000000 9.31651952934363 0.00000000000000

0.00000000000000 0.00000000000000 13.63566805941993

PRIMCOORD
 96 1
Ni -0.08576601338845237 2.480374199793742 1.5435031555015077 0.790935095769941 1.3020871164041254 0.2277861132431754
Ni 5.146929721314529 6.215469269595152 4.693437896128489 0.9970838332489989 0.8200078447661813 1.52113405000209
Ni 5.6267770479534125 3.461552746581446 5.127065970511174 -0.5130263548387617 0.5084629038377952 0.007654431221464237
Ni 6.480123633401205 2.218440259623812 9.63215365921916 0.1987565587800448 -1.8844437822075932 -1.45733546748889
Ni 8.172040804684148 2.623056692900712 5.761438017941539 -3.634773938426508 0.7516031309395378 -0.2641379123993322
Ni 6.917142920809744 6.567242405392278 8.91834058335433 -1.0975417188564451 0.49437582961710996 -2.020247394304185
Ni 4.442162985691741 8.913570525471812 0.7803013475140099 -2.553090783868874 2.0264375822752974 -0.07553515422383765
Ni 4.955829277396136 3.3882876387921406 10.931823939902193 -0.49679035259587345 -0.12259559804675016 1.7530591251143033
Ni 7.30054563963646 7.901731313661905 4.64379016476923 -1.9539160180668027 -0.12034151190525083 0.9991072914369309
Ni 1.2414168804447077 1.3353926106419005 3.3933586202481067 -1.170402154461597 1.5250794078030832 -0.1466590667538571
Ni 9.004080510488738 0.21245856441775424 1.684959594668362 -1.9485969198467346 1.001992583404526 -1.8584656129762767
Ni 4.812420095783626 8.56508612098822 6.00270698664816 0.13034413164391745 -0.8049861745463684 0.4771772063506363
Ni 3.4048151440335226 4.646660584366113 4.936643769197953 -0.5461200520689369 -0.6827993819022627 -0.1457740930457425
Ni 8.128569925621978 6.673161913334371 6.6014768872186504 4.605697311230055 1.4025308609441844 0.24731107064998054
Ni 8.18192563166335 0.5701812294410059 11.002075153697369 0.39650113135580745 0.0431834773660095 -0.2870004188198025
Ni 3.683658566736208 4.252795414363483 9.231755745882113 -0.3166843190374804 -0.18943091050374472 -1.4970440989324216
Ni 4.613689422557065 8.169320381048024 11.647150950153563 3.122324539137139 -0.5239653703487687 -0.7953399097058561
Ni 3.399560627147311 3.331717733591649 6.921846831405221 0.09872239097357838 -0.013260207444015872 1.105620896320154
Ni 1.7958615771330537 5.477349394871944 8.587184904772075 -1.2119930905295062 1.1506802505526375 -1.9995613267097436
Ni 9.319873248742336 3.535619075030706 4.062092785819277 0.014987217437451605 -0.34892441001810875 -0.00792722526687667
Ni 2.9083285139216346 7.76650203599637 8.338538184430362 0.953715750676009 0.4157543231584646 -0.9248772291777619
Ni 8.369243568745214 0.2945929985823675 8.125494542600457 0.7628756185295635 -1.8379122143049573 1.0096896949384677
Ni 7.996797076617408 1.816134323133757 13.34631916840909 1.0113786526051163 -0.5056244059477357 -0.3941665696853599
Ni 7.862564666517164 7.604217586278426 10.655783857857418 0.5755041616580089 -0.28562410729756615 1.2221790299235726
P 0.9700266731834575 8.188037268325328 6.694199545569751 0.12277506104740792 -0.1105468944123322 1.0935698786928907
P 5.216021028456631 7.957267085219897 3.19065072493161 -0.08723855870369492 -0.9805079311681887 1.504192537051745
P 3.527765249259294 0.808313326098713 6.751755138512372 0.13272651583316497 -0.1160498265084324 -1.8415169009370802
P 4.817190153666145 2.3564365435219803 3.518002468682944 0.5227610656280223 -0.9381670043081327 -0.5947416697313822
P -0.029455107424550937 4.987626557773158 5.749561319135612 3.2622974521200723 -0.6162278646296161 -0.16938401915519863
P 7.7889082649171835 4.21309772561854 2.4480663741589814 1.0785530935690844 0.8964804232026239 0.2110214921903269
P 9.027865584266218 8.760351049034513 3.76682620289139 -0.5117274335216799 -0.06402818202550264 0.9484233919288183
P 1.633148567527227 3.3603101313288537 8.398425702154222 2.27273769516226 -0.5386450838481304 -2.124930887957205
Ni 4.477360795613918 1.409757067708818 8.486457493036871 -1.681861164813239 0.5774090919902056 1.7528732343557425
Ni 4.765725701043036 6.227962721978858 9.934266020530007 -0.16985298837181717 0.926217031035108 -0.6637611343238892
Ni 4.77847069944789 4.430787515624251 0.35711988622442564 0.30755638859428325 -0.551011061612651 0.023856237792307302
Ni 2.5282517924856593 3.5079117466271716 1.0283378358414539 -0.5379115481162156 -0.3049552035260103 -1.2097438894840133
Ni 4.218622421564503 5.724945211836412 12.14883433473199 0.6807782377071759 -1.3990333893138875 1.1692986369847733
Ni 0.13137037537073248 5.931250215255333 12.055525667316807 0.13243443851404288 -0.16835712055258104 0.20603740871217419
Ni 5.877177137227722 2.5734275945800573 7.2790878323805694 0.3410326659748578 0.6188010246734311 -1.6444086763937356
Ni 1.0016842057709523 2.4837001971844823 6.045086901300089 -0.7939800532438519 1.194369206800156 2.6419743343751594
Ni 6.882690432431712 2.333704236425604 2.130941373645226 -2.3433116487260803 1.0908313967158052 -2.153839600571755
Ni 1.546262708518699 1.7235188047546257 12.697888493352322 -0.5728014180148651 -0.5805764339745937 0.6024158984471883
Ni 6.129952938923989 0.1202790591419471 2.1077059745065525 1.5151233250316358 0.5308037334268407 0.265861065738026
Ni 3.2111899233843446 1.3063157539010026 2.1278054332482426 0.5294163661610108 1.166195058358785 -1.084678489740532
Ni 3.2280528233205907 9.434466436154398 10.402419252141277 -2.0260431750503556 -0.6158846223575845 -1.2402988794527348
Ni 0.6676487910725112 4.623937593789038 2.2766386923982567 0.6588073898630395 2.5650543839886537 -2.495641026391837
Ni 6.0899198554841805 0.9512911528675503 4.832453407238273 -0.11149023216220798 0.3638959437262765 -0.07484121348060659
Ni 8.060782931182128 1.3504946884301081 3.598466450936746 0.8231186224810212 0.07332246284323501 1.2370706023234244
Ni 2.2077169459074475 5.836352149647262 0.1022422777736745 -0.3747495986113288 -1.5340577000422935 -0.1819906521756156
Ni 2.7345381628659755 2.1920558769611325 5.016370814774983 3.369786790653003 -0.8357651076004381 -1.365389733117513
Ni 6.029800356429706 5.299264128418157 3.037399572328685 2.217715830400426 0.003954356662057706 -2.3951602579662556
Ni 1.8324289153925941 1.1949181326094553 8.027467989810843 -0.6335349884494961 -0.930955317051042 0.4634855677961566
Ni 0.4585041125704049 6.380576624661541 4.064574706561275 0.3177068467647238 0.4698631891877263 0.27728987640025793
Ni 1.7372699872440733 8.926222358683649 4.701168743845118 -1.1002933134596535 -1.6260754253021867 3.8598670782185525
Ni 7.344500977702323 5.115523734748183 10.639734290056216 1.3126805756492554 -1.7402948834700998 0.274752711800701
Ni 6.144114048262715 5.906766402530218 6.627425256778006 -3.8212205694909485 -1.8023919099111605 2.35306101480336
P 6.63258847177506 7.910311827938857 7.219486331799273 -1.1254520721134682 2.6075907146889676 -0.3305572203648307
P 2.127082471350423 6.46144401220111 2.094275280281087 -0.7933046244433821 -0.7038808851629103 0.8266047812574087
P 8.083869266011972 8.68689029433987 12.879187958965225 0.8980410828215243 -0.6828808858724755 0.8957366030580638
P 7.920764962595469 2.6485280566718163 10.981989669734633 -0.22135655556774778 1.6514740678809494 3.8318885907277553
P 3.8712094168006166 5.824985996099073 7.553764907651492 1.0465230617167331 -0.3879576126611706 0.5101186942736634
P 3.130769728771261 3.2130066446481944 12.37570462285769 1.069540862768145 0.8052659105703163 -0.32733588521405566
P 6.446975457725424 5.844038278071241 12.334620636040642 -0.6519296889065999 1.2121360438652737 2.0381386727623094
P 2.811837323512958 6.836014670729725 11.100033695896078 -1.381969748963381 1.5531442843600993 -2.2522640006889407
Ni 6.222428709513593 0.4527297339071532 12.891419617156549 -0.4732287632258495 -0.6046956956203006 -0.904930610852506
Ni 0.8529832411950232 7.606024991022974 9.376608056334469 -0.5463956743278267 0.876670330455232 0.5167531688710454
Ni 4.039428489313804 4.414194794747757 2.6517962916428854 -0.5056956255053033 -0.38809902333504126 -0.0874254779035204
Ni 2.920533154206985 7.795737273565399 12.955602050278538 -1.4829577960426847 1.5032715678993724 1.5655596273053165
Ni 0.7359202445160553 8.424611642955774 11.8323503107462 0.3993049193531897 0.5063695116438762 -0.7965457570884992
Ni 5.439449794352247 8.6553631930226 8.877174611167426 0.19321788835000273 -0.8644403640479436 0.2835358573099698
Ni 3.320174566176727 6.897354633812735 3.890460140633913 -2.530221335469868 1.2413813138836363 -0.7500044189938503
Ni 0.4254118360104337 7.6218817068746265 0.5596032534257493 0.867646529690067 -0.05689285653230202 -1.1321423396494503
Ni 5.924793867379189 4.294663852105744 8.961947483598307 0.5537896527990527 0.804819052840885 -1.7639122657787234
Ni 8.035572429951474 6.152135571381559 0.4932975855548837 -1.2012309669169956 -1.6230037283553982 -0.5888939527013536
Ni 1.9872135670725943 4.892216083603489 10.682523199905496 -0.2692214975698267 -0.6682222554190362 2.8580974094581104
Ni 2.5631980563866876 2.4695018217685485 10.256707958609294 -0.6283169345836662 -0.8994513329054897 0.4602583191081105
Ni 3.679484766089004 0.23341327963134864 4.0254676851400655 2.9467151078975187 -0.5238812952753945 0.23700171830417247
Ni 6.032492830507924 7.658430412095563 13.795886875665216 2.440752344773758 -2.8020280772683677 -0.9018344884256856
Ni 7.982086292639876 7.419918201450343 2.4460614592052354 -0.6123753236527454 -0.6306175576923849 -0.5698935003394509
Ni 7.4089340251935285 4.993896575263266 5.015566799159238 -0.6126967115479061 -0.38597014991749656 -2.4739704833969394
Ni 2.3134035408669953 6.307544429854779 6.186952335664292 -1.3041774232742507 1.1620090453018954 -0.21685403971170397
Ni 6.847651003337665 3.7273996248581294 12.670917169973627 0.2904477539384546 0.7272756099377667 -0.6335745834381799
Ni 4.011124903674954 1.1208518041601954 12.545659362916801 -0.5305126845489831 1.0302929730111159 0.0026824319281695736
Ni 8.274755429986422 4.400350447065291 7.533570420412924 -0.0033056673344652745 0.12054308639309562 1.0525764669996647
Ni 4.266099403926444 6.816766741852219 1.5359213720937082 -0.12017079065534143 -1.7293589532838862 0.26688410768590165
Ni 0.14462964564104527 3.340223715714187 9.78236483157391 -1.0790907112401091 1.3442935745688462 -0.07976796135826261
Ni 8.828305740821797 0.4757154503285386 5.727934882880359 0.48690034717567104 -1.5451728361188484 0.4696104497469719
Ni 1.388748316683273 8.434263556952434 2.567391421724425 2.641343128549064 -1.8978207177351314 -0.5575534907168592
P 5.646835514010175 2.3320179464319786 0.10725363350610934 0.10392630377202101 0.3143487289257683 0.6999139300953624
P 7.868285009368465 2.2487655299511506 7.80337868269673 0.09180020993244835 0.3350833903699584 0.5465648529158393
P 2.127669412066436 0.04294356406968784 0.7391381702828949 -0.3152861531383731 0.6033147561123738 -1.770883554890234
P 1.0726201837348095 4.064266329772385 12.886810735057953 -0.9446942639036892 -0.017085751837693154 0.2970989407063851
P 8.875866571857454 5.866668103455298 9.221992965305763 1.0110937743748456 -0.24972276541526667 0.4331547780230992
P 1.0007059712442639 0.722829603245105 10.09520795981656 -0.01706081213702868 -0.772184040414683 0.5919455950434839
P 5.298062297428226 0.7367568679493565 10.59637241426988 -0.13098407922076152 -0.20363882657301058 1.15435204297727
P 2.209505717613392 3.326481849744041 3.197414517944712 -0.6072891673790897 0.09176884247388066 0.2584956265118903
