# total energy = -340873.20441020443 ev
CRYSTAL
PRIMVEC
9.18654139825755 0.00000000000000 0.00000000000000

0.00000000000000 9.18654139825755 0.00000000000000

0.00000000000000 0.00000000000000 13.44543192618307

PRIMCOORD
 96 1
Ni 3.382346674794971 2.8582361257764 8.01933970319511 0.1216193501764099 -1.2798676428842926 1.1555074967379517
Ni 0.3557690186838677 0.4047250154372658 8.614824165477806 0.6170668155911437 -0.4393326246990369 -0.17067342739058347
Ni 3.582650019301753 4.211330966894931 12.678598151521916 0.6794582333441718 0.5277888578599168 -2.4318802390951086
Ni 5.645873682366659 1.7326919103886067 2.6709749138231076 -1.0686412337720113 -0.9325342315023875 -2.1460802683413105
Ni 0.8326285929973101 2.4145078123308585 7.383142327585264 0.4673730757760209 0.9868359302687456 1.3468945025268029
Ni 7.733267135350723 2.6235108113619443 10.678966482663547 0.5281007326733808 0.1416747261653883 -0.41030049913274497
Ni 0.15132346274624225 4.028647408425757 3.8212189825577814 -0.8789347010093767 0.5960647594181798 0.1368845038655965
Ni 5.202338286286493 5.430531969901814 8.740270060294257 -0.17094082211935718 -0.684977106279872 -1.1938806971995117
Ni 8.257120461215461 4.098924448669606 12.622585053812267 -0.2367806034323019 0.7149695388769041 -0.39723286731550944
Ni 9.154149464045641 6.0716055615850495 6.929520109258333 -0.6368524828585032 0.2577155538127562 0.10651900419986172
Ni 3.069443894697489 4.634407935704109 9.998211626230859 0.04257875390247506 1.0300613166162842 0.5511195621660573
Ni 1.6066250053864708 5.774972145967549 5.1084169262806025 0.7747037215127431 -0.4089267587136699 0.44050633329216393
Ni 0.27413833216062355 4.772022323005136 9.820678042763083 0.3617639849849382 -0.5138863888462117 -0.1562233134035245
Ni 3.37774421764959 8.266251883176558 1.0733701732491117 -1.1969997024444676 -0.5931193036366108 -0.3764077030400421
Ni 4.017210164621365 8.118183211980433 5.500593126427267 -0.6915344477824154 -1.7471643568964232 1.4035006810566217
Ni 0.10888807294252835 0.40649985519871823 3.9472022900349213 0.6414401022291856 -0.24208401792308631 -0.22350239826615703
Ni 7.680655813850524 4.558086151345169 5.617877698034223 -0.7323473680337194 -0.21949327710676392 -0.5796143271716404
Ni 3.005542314052233 4.2947906937727565 3.4476776812522467 1.0906696743269604 0.3951641577119388 -0.17076830109723493
Ni 5.798103856730165 1.9587818760672167 11.712840040641494 -1.562445507156367 0.8747931680371773 -0.49818003385454845
Ni 4.793500456350251 7.017359978984299 12.813119430398094 -0.14953587408101987 -1.057375688160521 3.623091102771941
Ni 5.872937421413354 4.924151445415351 12.871163672368908 0.7236436696121343 -0.7641493430356646 -0.02130621767694395
Ni 8.662706255563949 7.520571146753882 4.7431719903403256 -0.6757069938318556 -0.3215491033289494 1.5211397064290448
Ni 6.796432849464779 2.7020924848581385 0.44532034103694795 -1.0418727074289154 0.27851783527008805 0.3583307909336732
Ni 4.608088495142197 0.8234255160147887 0.35167641457554943 1.0741192261674468 1.4715942914007496 -0.03449520556339221
P 3.002409703500186 6.563186568184868 8.614098428722349 0.1831083107198266 -2.507707213527752 -0.7267009683812194
P 0.6221842256506346 8.404573634150628 10.619752793996911 0.29333433145763027 -1.8450012599412549 1.323822708309004
P 8.435752755011755 1.7247731118670122 12.565078224502141 -1.4647327883942258 0.4336116630548597 2.56315588141436
P 4.972546144500919 3.7826410214074517 6.901472680295131 2.156147165659009 0.4102436777528805 -0.22110767278173532
P 1.6515380053540756 3.117801847618224 9.569032956751096 -0.9441610171080385 -0.6848578070931883 -1.0735384139633124
P 7.7964705388641455 1.7316813908556887 8.637251268529742 1.5573817194802146 -0.8655783343071285 0.6934997990389025
P 2.8855201531651886 1.728107826325642 12.63340863666394 0.11037000251483572 -0.6369530129921094 -0.5172100539028059
P 4.980051548668138 3.892025167575231 10.693474787193889 0.4870908659199224 0.0510425683991121 1.1098362199530822
Ni 2.9497524492939458 1.4106117756239864 10.219066182074833 -0.19336032746513795 0.7680918726231805 1.239057036625834
Ni 7.942417119041143 5.116931012672498 1.573976037932008 0.3788163124815347 0.9228601987477333 -1.186913007632427
Ni 5.33922693683206 0.6795991895486778 9.097999486871986 -0.5646219675278663 1.8968529545052233 -0.04561239852247628
Ni 6.605214994213052 3.778791860641155 2.950841973081255 0.2579379542362074 1.9817577228694194 -0.8659321181021215
Ni 5.479183892141216 5.077649362465609 4.879091460788412 -1.221636270046225 -1.3621136334694024 -0.4554431571076544
Ni 2.159893636200333 8.525027562474463 12.413575624202336 -1.347566331782847 -0.21452847690232085 -1.0840958777641845
Ni 1.0098305423274636 0.8963905382161997 0.4768862152829466 0.4073383311806275 0.9272354449972934 -0.33696800898718093
Ni 0.607627232451889 7.111062699309431 9.058295255769515 0.28016256996236266 -1.1089810710416386 -1.1619437392815988
Ni 6.096501088259668 2.5552548101839316 4.724979882785438 0.7683808646185089 1.572418044988047 2.5392837027824524
Ni 7.785915203015756 8.147800620836142 7.747163616236589 -1.114964799428899 0.4434903556211523 -0.24411698919271504
Ni 6.161449934602676 7.2957581103032325 4.698627370675175 0.23662170925693446 0.04512131781867068 -1.01794062209335
Ni 6.9584099440503415 0.07344731561484927 3.748963161337654 -0.18392129353942516 0.4109113932438665 0.046997194685144864
Ni 7.762434403687223 0.7410837912020186 1.3409291045963176 0.36493775472722956 0.22158204131499257 0.3059628188549182
Ni 1.2070655820706582 2.169962085364681 2.911621872700463 1.68834960075106 -0.8519864545553069 0.9520347634291604
Ni 2.1058859604364657 7.564519559894611 6.821391763273735 -0.3508092857456474 0.09301505617615594 0.7585394530480549
Ni 8.290265501895174 3.854185804338053 8.11582410819813 -0.8167006347698192 0.3282290864522864 -1.0006730932621541
Ni 2.0351495931321995 4.822842268969708 7.707526446884938 -1.3555611770628655 0.10871164097580631 0.32613312315520604
Ni 2.7897137149033453 8.166825947678626 9.840818615708262 -0.4625692266294743 1.2762470154125698 0.7526901933561295
Ni 4.673165953062123 7.9177145097319 8.027030675494737 0.10246411740419774 -0.37280173085633855 -0.6820486197791673
Ni 9.149620499229927 3.09265828433098 1.3991313550759161 -1.6651014288563968 -0.27269557216135615 -1.8945273916958403
Ni 2.6777389641148126 3.101008850289367 0.9180891485503138 0.36629941096144664 -1.2458447489716284 1.3798771281004107
Ni 4.568917083429809 8.481758953383153 3.0967784480629232 0.7499985054565793 -0.21765390990518 0.15051109351009562
Ni 3.9355142536555423 5.842594275802186 6.583945395353368 0.04873191798806446 0.5764940363751039 0.2455568069630352
Ni 7.84582982477659 7.561589053249148 1.936438370540277 -0.7177517296077316 0.06866876612130754 -0.3939043171629087
P 4.819966881571496 3.9392256163037143 1.5050411513586988 0.39894445068997747 0.16731839487542152 -0.7315097026237724
P 5.782606161711685 8.141268990037007 10.11552283880732 -0.8559462105340033 -0.7623973933415644 0.5758191217952664
P 2.926666671237371 2.1682809483235532 4.332803682638772 0.1314957287498574 -0.43942287041999806 -0.029181763770278774
P 2.4743397552208175 6.197433616515769 12.424358786272691 1.8348991385102462 1.475574101984104 -0.5068104558360368
P 1.4655564785911055 4.512796503188022 2.055026512344698 -1.1822819366183188 1.09898256506803 0.6627134097856651
P 5.898641363714306 8.839372629541655 6.161032865631817 1.6251552274807624 -0.023309107039585664 1.7563102850617494
P 1.5477760224058046 8.884809262358136 2.1891178610923245 -0.06236442116983453 -0.3583660150469828 1.470681292668177
P 3.4181098797190637 6.7464029460441255 3.9754913250319026 2.1286415040395728 -2.897688798597487 -0.8856362813992683
Ni 8.477229988567439 2.1130973952850174 5.52882887948524 0.22801417009358152 0.18043950563841182 0.0401518896285373
Ni 7.082042415632265 7.123363477987406 11.654567053794592 -1.0600943726432646 -1.8749402135925322 -1.441133660918047
Ni 6.453646250816546 6.243779716911876 6.713048452224862 -0.15875842112055238 0.6230806258853915 1.1001051087082472
Ni 4.692209652987024 0.9247907303618023 4.932644402762467 -1.2253368588262639 1.2701079923943674 -1.1333137342497321
Ni 1.250545481609761 4.911290287723666 13.447179097868757 -1.4948861720491544 -0.5913737817004138 0.07218603524594665
Ni 2.0337991715745725 0.9837040191309269 6.135379449307511 1.1866641248464145 -0.8543755236127738 -0.49581307628426863
Ni 3.2985746055160616 1.21194363545229 2.3716130954667274 -0.31976938572070734 -0.23497697456465985 0.30716532380345163
Ni 1.1483452106669088 3.241774221224857 11.70042994212314 1.0610616216525406 -0.3065171486964915 0.36030282705837946
Ni 6.542323933100714 9.14821495842505 12.534732322928612 -1.0639736530930128 0.5482448117214236 1.9977312154795401
Ni 1.9475099900045758 8.054538854489008 4.378478246872549 -2.0633606805538913 1.9007787719221911 -0.4925071518394873
Ni 3.149715891776019 3.7674005495428053 5.790637954690142 -0.7849639657881706 -0.90263512995011 -0.6309721128183262
Ni 7.566035339193988 0.015115534904212953 10.38849172427212 0.494443963850884 0.7026691242429963 -1.2750727925988106
Ni 6.562736427665659 1.6911779306680899 6.974911728022893 -1.1751599808615567 -0.8016776789984259 -1.2755631019716676
Ni 6.969259249217398 4.683528371545137 10.244760019180456 0.45792272899639846 2.684032954108106 0.9738238342797938
Ni 6.100166518201799 2.975814666702024 8.89114154521305 -2.4807412264618693 0.9065437209758969 -0.03508115997384926
Ni 0.3265503057166015 1.181508624429039 10.86954219868481 2.4325718658454947 1.2372603497367272 0.20199203499820698
Ni 0.5605655004956519 6.44551616184716 3.026459149729516 0.5391256230289747 -0.7844852263795392 -1.3248256956522215
Ni 3.299456513472063 5.8192145284269445 1.1935053285930182 0.15370028987135465 -0.6656352114181504 0.27009001621770906
Ni 0.2576016393314794 6.209807887523412 11.533598679163086 1.2271515434374995 1.047602667934157 -0.34173663402041793
Ni 4.260102314170041 8.755563814097913 11.739206332563567 1.0170993571389773 2.753532700771142 -1.9577433622326932
Ni 1.1208774524539533 7.250174492827417 0.7053637630216057 -0.5746628967036361 0.03189993403239022 0.6281865796533891
Ni 4.660277235746813 6.454473039525298 10.759814475875839 -0.7388843978212889 -0.9524404835080114 -1.2490532286065974
Ni 8.712837210937895 8.525404210664005 12.746309390806275 1.4364501393994487 0.6117621155487787 -0.5747860525450617
Ni 5.505870794351462 6.08782899335899 2.559122344032646 -0.4139859184041322 -0.5146314945423524 -0.3439220717075109
P 7.561965701438691 5.855639164318037 3.6433620328394722 0.08892417393623395 -0.2809552410669871 0.1675888749279888
P 7.472176447668314 6.146971945658323 8.61411128988004 0.9076230700830046 -1.1903464587940082 0.20292611677670214
P 5.563764377046461 7.842155208293252 1.1972552747142653 0.9481539403175154 0.9819027546331864 0.09482974078739152
P 0.32087761652044766 8.76918745470989 6.520079642218824 -0.32489822230684046 -0.06056644872914729 -1.3379491204080571
P 8.278056588629282 6.441556762586363 13.220140162483325 -0.6609848571303326 -1.3142193808912852 3.0049948174750183
P 0.5056070177167203 4.076215318802573 6.018538587640918 0.7637634204511555 0.04867715349072907 0.9050028588513382
P 7.8895853205519435 2.108871586329178 3.4183257634374593 0.8903719963120408 -0.5756993083879505 -1.0472216304456545
P 3.1293860760819485 0.59531175530798 8.230983832823595 0.574916664585655 -0.3043512513934242 -0.9939982523451397
