# total energy = -340886.13352209836 ev
CRYSTAL
PRIMVEC
9.09265130044148 0.00000000000000 0.00000000000000

0.00000000000000 9.09265130044148 0.00000000000000

0.00000000000000 0.00000000000000 13.30801427747941

PRIMCOORD
 96 1
Ni 6.595945724744663 2.4304293520830824 11.25442837714706 -0.11027435747723591 -0.2598233441843783 0.06126038947237837
Ni 4.715567227238207 0.7766206332200446 5.8926955143062125 0.29352664997409444 -0.44872537876784646 0.079848693997527
Ni 2.5541712451622858 1.7688753132291197 4.7619406587095305 0.4864527181152913 -0.22500752205677377 -0.23034487510928717
Ni 3.5934158384084847 3.995620181010106 4.7167329051493505 -0.7015843758192497 0.8937170015248739 0.5138452511956312
Ni 3.9670237923162937 2.600134598054884 2.806420489926233 -1.8040536138842993 -0.7592804449791376 -0.6479447361169228
Ni 5.113625320795511 4.4672105465441545 2.6099673912928774 1.9194848329721266 1.2079986246581325 -0.276892126741207
Ni 5.754893654347122 3.0126772853130603 0.27085099102461563 -0.25766438885984655 -0.7135978553403581 -0.47711961363982347
Ni 5.547999464096246 8.149670720239923 12.243293316709376 0.3198776291637975 0.13200686405832104 0.3055054196025255
Ni 2.148393490555364 6.024818104192756 0.6862878692275426 0.9644128253785389 1.3773515334650794 -1.9819842370579284
Ni 0.9051152551928108 0.13084416309787938 0.061225368289280185 0.058396694771338145 -0.03879229027684932 0.705219915689308
Ni 7.82147146748852 9.01972834864486 7.57130171210272 1.332726695666853 -0.5950725707082397 -0.9803696058181116
Ni 8.965408849103735 2.7506634421967173 1.367318367408102 0.2528638821474097 -0.8993487458893543 -0.5875058141045753
Ni 8.024392169071927 0.662364194094859 5.350966254302741 -0.4598114613786791 0.11343501459340463 0.048736803084070905
Ni 0.8161300221397121 7.667978418986056 2.1109972338240723 0.9086168014548416 -0.7846904004118099 -0.09867354001351394
Ni 7.889266276423676 4.1364562587457065 3.927474395730409 -1.1699450123195205 1.254549218724162 -1.8513192317394829
Ni 7.755249687247809 4.19859543850199 12.512661296288535 1.1489360141680212 -0.9568314134868554 -0.323889578536668
Ni 8.596892779987193 7.570759790078507 9.25056076227068 -0.7026169308488223 -1.9913718489204155 -0.03942298188231275
Ni 7.100506044302166 0.8794557929053899 -0.29068661008202484 -0.6777458786387554 -0.054950388093950524 1.2211125363322712
Ni 2.1308083027226665 6.585198210774524 9.426452648263872 0.5603927599378672 0.9076485240043013 -2.066242372977061
Ni 0.010670226433128434 5.178237701736125 1.052947218925555 0.3598536553361028 0.6066952425488326 0.4369808366374087
Ni 6.9318282679400305 2.1781810165842765 6.924226811358782 -0.7151621145036845 0.6916216081795831 -0.07650703121880373
Ni 3.838335496868431 4.31258091661507 0.12718073384359097 0.10424666322591723 0.31521184825701193 1.3105293336342074
Ni 6.34557047543693 5.949867378595587 4.4764568637660105 -0.6096661522516984 0.31709646687423454 1.728197585985933
Ni 5.703429247349672 3.2776553327900344 8.80979903135233 0.1483660221426348 0.08148854359379515 0.04449988218458788
P 0.5961005876576484 6.129338132184925 12.383959361863555 -0.6574835288452935 -0.2082470147689833 -0.0781949604441879
P 4.293149920545537 6.298797876568576 12.800592832992429 -0.2989005126914981 0.27902999901981623 -1.2404156075362573
P 2.8561018279815977 8.707804941922687 1.2284444838474229 -1.0918544386636808 -0.27130537668204885 0.5451959975927708
P 6.640090547354665 8.031357140054267 5.929505295021367 0.7347148398246315 0.3755443265984823 -0.7488883031115361
P 4.883372109064696 1.2423107772522126 12.264945647519099 -0.013165590847680552 0.9250924305123616 1.1641227492107886
P 4.301478789239824 6.53555233405967 8.080959372042338 -1.1765185517719803 -1.4626627932390743 0.2824840190066877
P 5.302661543671301 1.2834095616388683 3.726230379067556 -0.10049850903739466 -1.429630545374454 0.5818095350507464
P 0.36587101682050716 5.964570195930371 3.476678923977839 -0.6879058498908928 -0.8468853858833156 -0.7641328879754323
Ni 1.1078577408085226 -0.14808201164660104 4.250233515141428 0.023128615597663393 0.20458344987446703 0.2016415936373237
Ni 2.1136504695063794 6.704075535347785 4.483882832174989 0.9656212438643433 0.9443458794253348 0.9448377314600888
Ni 6.267964695627172 5.821488233295765 9.018202601737762 -1.0750378813269743 1.2050513691043505 0.3550598334918853
Ni 9.203945466271772 2.6890970994794507 10.167362802324591 -1.2150743005579914 -0.015017042234122525 0.3775865538394917
Ni 2.459125759942438 5.679397369665175 6.747270175885132 1.3465936834569325 0.27998824916802745 1.3341749980776054
Ni 0.9483089864650164 0.228329206691829 8.929731103489496 0.31291508180303523 0.40459342144563865 0.5899815293385775
Ni 1.9243323744367864 1.339965853427585 11.5544176788897 -0.5270676634231761 0.09995523493941494 -0.9262172881454241
Ni 4.4532987898823 6.918243846729044 1.6579786088010293 0.016803187600267833 0.7967892405578729 0.37756084280787877
Ni 5.641444642667409 8.376950634958694 8.058774211859816 -0.28193663114365 -0.3286746586301372 0.08732623332149476
Ni 5.718132064684457 3.062250420816611 4.83106208548584 0.29156875491677525 -0.1257480276328028 0.11395206343913925
Ni 0.5990957070330829 7.892094091013112 6.443593803994528 0.377895086218846 -1.196344842469288 0.013891670380427688
Ni 5.015006423570363 4.6941813111148845 6.89795632289641 0.491472797037702 0.7629537800656666 -0.40782144146463317
Ni 1.1035478240387717 7.93628437688018 11.199519673794375 -1.7656454464197462 -0.8817881112977718 0.49984790847527455
Ni 4.898502281015889 0.5766068522933672 10.166684490529182 -0.33615502616758236 -0.06589351736901555 0.09042698373400555
Ni 8.329923441850777 7.643828336833189 4.384564710056184 -1.0357244284393325 -1.315032877931516 -0.13041303720863995
Ni 7.400936339638337 6.186430890407008 6.9736253679552025 -0.3225261225302381 2.409748954413708 -1.3329048731159303
Ni 2.806037689301747 5.282721359122643 2.7400141288618385 -1.4052176637477283 -1.022465249436581 -0.557311292799066
Ni 2.868958837079547 5.338795740386471 11.295164364742337 -0.7912055758225083 1.0102900475266279 0.5366848747979659
Ni 1.0302246830445256 3.4915690499317296 3.49859676020882 1.2039360245529844 0.01593621161428223 -0.3862203182550897
Ni 1.7315227012246106 1.1575036175233766 2.408590621919395 -0.47738700836859727 0.5146636333318685 -0.4809965800967264
Ni 1.4381028401278448 3.4942331967957325 7.899410947605134 -1.44045206146999 0.4139440094226033 0.923139677661365
Ni 3.4606176645219566 2.8860530217359437 6.977258791459829 1.042795990574133 -1.0087802957503207 -0.2874025393542276
Ni 4.66200241776436 7.088712875419535 5.977135330917963 -0.7010143622483926 0.7566648617331614 -0.5363791706320892
Ni 8.062090301830128 7.6832540733598575 13.008158060917584 0.7125228771086245 -0.6386579114983582 0.5165194555936846
P 0.4288248981433943 6.208189605238261 7.804884652780968 1.1606129362853173 -0.4570171864629935 0.5301375605977515
P 8.847640828002858 2.0454283059548133 8.091325903918273 -0.34747816448988544 -0.7289542831917705 -0.9787225571329919
P 1.983289126198529 3.620030029094268 10.10988542494774 1.2167966825657366 1.227458533154957 1.0293738036309563
P 4.233438478716518 5.977481760936798 4.050759837708681 0.8245185881523412 0.9558173704000442 0.19155798414907654
P 7.1525978442471105 4.1800373369681045 10.152178074464919 0.630783650956604 0.6549275951926591 1.9638258209813466
P 6.588480657934609 8.064827189905435 10.09838776723603 -0.6432231622715374 -1.0552028488789182 -0.04992670962711401
P 2.7341784651849905 8.624361679905796 5.654868123948387 -0.256209658691191 0.3116840376094116 -0.2546443710866002
P 7.229721713531981 4.233365737505214 1.5618420054116242 0.1852839782149067 -2.1846820398739086 1.310124641996621
Ni 3.0568584785287154 1.85748320124858 0.5323192750561804 0.1476941928865908 0.2258878677791981 -1.206584003698793
Ni 1.2202792828785693 1.0061473421029627 6.667940429367473 0.05763256291180397 1.3761354016697913 0.204941347434518
Ni 7.1262837110579555 1.2961483662684492 9.21952663373305 -0.7040261524915229 0.37193809730446264 0.035914968729054274
Ni 2.8082017403380353 1.8510001407911276 9.206497773523395 1.0276509074025786 -0.9258681323361216 -0.2530808832542222
Ni 6.682535044150442 2.1347636060873114 2.2662351621326864 0.8824799951584738 0.1965757490786421 0.8622163598134313
Ni 4.460472891847139 7.156489499051864 10.21046742561295 -0.09425818455463766 -0.2009455960115636 0.35233086459649643
Ni 6.942048408128217 6.182357382573994 11.525445763692533 0.6548946850721947 0.9350726816535251 -1.6106567767542714
Ni 8.13674096993067 4.587524510040665 8.329858884025745 1.147238057640308 -2.344506697475446 -0.7731214646272879
Ni 3.0997757931979666 8.258664332727276 12.317792137531322 1.0230676589072705 -0.3478106081286397 1.4218634998345254
Ni 0.2947592086498972 5.3977615847996265 10.272150154268303 -0.3289857621126528 -0.8665802932090818 1.045515189277509
Ni 8.823127039793473 2.931034368275941 5.5262989422340345 -0.6106657971608064 -1.7051425039386825 1.555875053027701
Ni 3.6458258811528834 3.0655419606281082 11.53591958885514 0.028904598849492157 -2.1549755139484112 -0.8043454556385761
Ni 1.4299285465075788 3.7352612004509247 12.5852824845937 -1.2550971208078319 -0.27924314347188683 -0.48991522274259497
Ni 3.186428761163637 8.543973548763667 7.750267823538639 -0.06539549468667447 0.24133711245473274 0.5853846539965145
Ni 6.126964950166139 8.303991200020967 3.3223993611281526 -0.26626241494150277 0.5020215190878257 0.21390961237139938
Ni 3.535668409284668 8.757869080602536 3.551563273219693 0.474963229418453 -0.08089101921911229 0.10758806889432437
Ni 3.760966125995411 4.48350457787621 9.066244534743367 -0.9710935798328244 0.8733680055548766 0.029891645353109807
Ni 5.234566677239517 4.636297492219874 11.233827156840677 0.43112026409157367 0.28447173886067784 0.22502731955111568
Ni 8.216301669794218 0.12664244887994275 1.847711328775054 -0.4786229376582273 0.45812070393981746 0.32797994655595775
Ni 4.817186699429636 0.6500445606954166 1.6024043233649141 0.6917990142977117 -1.0055895567271649 -0.8673140860513129
Ni 6.175701561739696 5.546044544042456 0.44694018755346826 -1.0986874024251143 2.0685450529683083 -1.3394318756011707
Ni 8.169001697143912 0.07077810786375376 10.88147145708042 1.0025528267833703 1.00679926076455 1.6220465066484515
Ni 9.596657080798247 5.27583822200302 5.6690144710166965 -2.3048181206365723 0.5996702173812511 -0.5622971760494316
Ni 7.367338992667387 6.284622433015746 2.472962047597565 0.6470114256693761 0.5161399607670789 -1.011026154361704
P 8.823854451906511 1.4184536204244018 3.546093134129646 0.26080730536420244 1.6069875554328001 -1.1675952811404213
P 2.098156591498667 3.7624664134785517 1.3316660812178196 -0.8974610419483382 -0.9937190305418241 1.0220518160482461
P 4.906549277516374 1.436111549468403 8.131356301763905 -0.25620220249202325 -0.0807794333419125 -1.1014590516329805
P -0.20431096798445042 1.7673750257459786 12.240272737909985 0.6417195811428175 0.8489715789883829 0.6030360485296904
P 6.374257790644872 8.110372280833037 1.0475789175313333 0.6797315416102164 -0.5959588299679349 1.051757056422163
P 1.6933699358957595 3.5295217769294953 5.748370586223452 2.2887806075577357 -0.08657675674997993 -0.378314947365084
P 7.017244635313537 4.321009804474898 6.070011309510675 0.7198973151958248 -0.8453067285422862 -0.3672278363129869
P 2.777141243111306 8.707368494654864 10.198689714237721 -0.016280739437894542 0.9244501689426723 -1.5531519976695831
