# total energy = -340867.86152682046 ev
CRYSTAL
PRIMVEC
9.33007237910397 0.00000000000000 0.00000000000000

0.00000000000000 9.33007237910397 0.00000000000000

0.00000000000000 0.00000000000000 13.65550402498441

PRIMCOORD
 96 1
Ni 2.5060761574039327 0.5873756528133831 5.372744692235473 0.5415550584060738 -0.1867345946185042 -0.00777938683510273
Ni 5.5724231737445304 6.579483218724494 7.656245436991022 0.4056426886457595 1.9096094828399435 1.0791472755096576
Ni 2.578869383739051 2.250161596375227 1.267827176761925 -0.7338491493902264 -0.5309752260076984 0.44768716731131925
Ni 4.175319444204246 5.368206544928449 6.268368216233459 -0.17399709244717776 -3.1480707948633073 -0.546458152134646
Ni 7.154971426052929 6.641033707590526 10.113498257546834 -0.19943661556620493 0.6262258563825924 0.10982518575495924
Ni 7.040248853505298 9.21047038794265 4.4807673606050535 -1.5021662506503355 1.0870071378737085 0.1937241385624599
Ni 2.3527270843401022 4.5365052142484785 2.4637260249176807 -0.17627946072345124 -0.46900418362154067 -0.1898284030524795
Ni 1.396385313950974 3.0994221236666677 12.600343269331445 0.9994775302921561 -0.20613202530850952 0.3895211004935485
Ni -0.03225126191650909 9.048229755702023 4.251914675119159 0.5986332914763044 -0.6497637916035326 -1.3100565077628472
Ni 4.6237040726601695 1.6134961030842998 10.826630226750954 -0.6610658468799131 1.0611156148189276 0.2882399476538584
Ni 6.82803635248091 1.0060803873581763 7.665927253316061 -0.04655753604456498 -0.0660495833309056 -0.6800048498762611
Ni 7.065505360002243 8.437287272537462 11.79125523558411 1.981635081248626 0.6843371587030279 -1.4690890084803925
Ni 5.774213983687615 9.399954832141564 9.683664612418532 -0.4371039924788343 -2.292329244140942 -1.2368626000776763
Ni 8.843070789554506 0.19018886467934143 6.550668222542313 0.3677330580841796 0.9262435133976693 -0.5107393585767978
Ni 8.349948463036945 5.8372852743855645 2.299641770333575 0.00663498881801438 -0.4510895081246489 0.31196300230241114
Ni 6.039122734691591 3.323409176297684 11.505745684304829 -0.1168005886315279 1.0693002075122489 -1.139422161140315
Ni 3.4597775172505276 7.4950712320472554 5.860014264218297 -0.814520596399365 0.9777776767212193 -0.4628708170302932
Ni 1.406779014814512 0.40215131975835805 2.4749099829294607 1.8440162703201661 0.08426353523577101 -0.017535437780602056
Ni 5.172135069482088 5.88045552025234 12.509807976962122 -1.0233299114297214 -0.8650314606647231 -0.699917272529472
Ni 0.0012222395090874796 5.949889920455616 0.18991642655975857 0.4385857192306834 -0.7528213196173551 -1.131507791389245
Ni 4.642513498998492 7.784238171781211 1.4523722805325103 -1.7271316066152642 0.1934112353077314 -0.6048869856955001
Ni 5.0600249172592235 8.154875305357548 12.6436590643306 -1.9439887316507618 0.5125650989316269 -0.4478026098432611
Ni 8.212059320252184 4.010886244905331 6.995783593563243 1.128309081946289 -0.2229778932212547 1.3391053454996873
Ni 6.693851248513764 9.094068402329098 0.3072532854466743 1.5309425514520794 -0.31892400700127654 2.124146958603329
P 9.807119199901697 3.893429961089283 0.9572477204374666 -0.4071778943433632 0.24575529612708644 0.3844159180564992
P 9.07600538179785 7.322660820685213 10.9016943927541 -1.577690863351212 -2.383318785246637 -2.4287558345335136
P 9.138376917051666 5.104137500457433 5.119708458600305 0.5655084838978777 0.760752915759606 0.5262873336137258
P 4.622649774457674 3.8381026306397508 4.691771617229236 -0.10869904257031601 -0.11367695540088166 -0.6397796838076273
P 4.75230979321942 8.695441050987398 4.284072636309784 0.06694715544451052 -1.0213385920313056 -0.37476785344377395
P 5.859229605113608 5.150769203254527 1.736611075925245 1.5088110096603629 0.5815323701299598 -0.3903446248361084
P 8.082940445700567 8.636792214696376 2.185072210976395 -0.13089100528632297 0.10874120866216111 0.24822792603729507
P 7.062389115757699 5.243519454856349 11.935852700559971 0.6224023688714442 0.4977383183314396 0.3767596870628221
Ni 3.326740012211762 8.626127941727773 8.290215472311145 0.5909068693663243 0.24232261629645366 -0.002330447905389535
Ni 9.222748763469054 5.93061399048787 8.663339070232304 -0.6102086550187297 0.8967555312408813 0.7739107932978027
Ni 0.9227469780198813 5.2908322529523995 11.339258003021936 -0.09345034394136165 0.07586296987690161 -0.17430613904716433
Ni 0.8825306331346091 2.548751909423521 7.4194864479936715 0.39869068280795855 -0.7151857686527683 0.5426146100188398
Ni 6.405309423643234 1.2800579689181293 2.06471240857082 -1.1424624906285357 -0.7739185066072866 0.6852707262608908
Ni 5.879690454300088 2.6874620985960678 8.987220411046122 -0.5697960555296381 0.7534005891595928 0.09640865523873719
Ni 3.3816008390318717 9.086958887016696 10.918313118048657 -0.5012337330792077 -3.101156646810272 -0.7348665349111473
Ni 2.510461291520506 3.355140753171016 5.517343090218592 0.5518461559194368 -0.5245950335129675 -0.5596191149966362
Ni 0.7159011347483728 8.299398129752701 12.267053483319431 1.6115252954021537 0.9536031363575449 2.333843304224329
Ni 0.2307224320326212 3.941787727315241 3.3592403870663823 -0.0028953192699240457 -0.2225099524459007 -0.07513071969656739
Ni 9.195663562744773 9.333618016037656 10.121650874974625 -1.6935550562113995 -1.6981691579446432 -1.1102391118184558
Ni 8.464801656600814 3.7976567659688025 12.636585003294035 0.695774454005692 -0.08652842001054775 0.020430499940209977
Ni 3.103956538944656 3.284437463095711 10.423888313397747 -0.3467983648140414 0.4820386482079956 2.5366514073659285
Ni 6.966877162669695 6.802033440176889 13.910725840176568 -0.014360639597046233 -1.2629441276560764 -0.1984948204782259
Ni 7.646498310157864 4.265830478384838 10.05325024681415 -0.2825644945356359 1.345954507211037 -0.35360973130892004
Ni 8.947119759060946 1.1591495582443534 12.035060295400264 -0.49564852568194634 1.1344725304445236 1.251261806222142
Ni 4.132214508845588 1.0727530860752688 3.198924548800753 -0.2826904785905389 -0.46022823720112355 -1.1832455860831688
Ni 7.134725168535983 4.297468754532286 4.966943448080511 0.13252031335962985 0.8314130012793295 -2.2675808335516687
Ni 8.953286937041915 1.636494732014839 2.8530307677289968 -2.306092359363306 0.3957678527342087 -0.5055986949161229
Ni 5.816161990045304 6.616607577553953 5.219202486669062 -1.070050198304396 0.4264969063869493 -0.4306181276441745
Ni 4.121251673554155 2.9305664699608265 13.323443488089069 -0.4533271392059161 -0.06802727588256671 -1.464565409578426
Ni 5.856206661594948 3.1352869226966846 6.449768152534476 -1.5966748606528824 -0.8266641737404343 1.3303605094275217
Ni 0.45561543471197624 1.9251391876838417 4.948099500473611 0.0343998176361085 1.1537396062042518 1.3558949062532004
Ni 5.304687410746253 5.155070366717804 9.872711476213048 -1.0097873968585964 0.17306789576468903 -0.16260993365615867
P 7.669403638362518 2.034496968493112 5.832975713856957 0.2984845082000021 -0.4997797742415005 -0.5772483980426253
P 3.264741679861485 6.414014381368261 7.834995632676919 -0.9819819446105541 0.27223045959947956 0.9529313071015008
P 1.4127875815614765 7.831821541982326 5.108920095666276 0.8073888704505902 -0.6767899424833893 -0.7573896557143279
P 1.2574605331088935 -0.0031283733389086406 8.048867953614792 -0.7206092536611847 2.010091536817106 1.5787499007433456
P 3.0323482318282715 4.705174266502551 12.354517315792634 -0.2703437840997279 -0.3523807439978254 -1.489314848608964
P 0.2631714914880055 4.023724424787044 9.272306377029889 2.619210558316083 -1.358123281363087 -0.5749390331831582
P 4.521110594477529 0.5145637663330878 0.6366869524578804 0.9284793447067236 1.303186520115891 0.4685874077990962
P 0.6805877430083331 0.6806315943494989 0.3546677813339389 0.14794179012102263 0.7306920918184835 -0.33321085593759386
Ni 3.801239513842769 5.094471545255796 0.6897256161014651 1.9492769766328943 -1.4144466385451642 -0.12508571145845554
Ni 2.820154390949061 6.913658428625153 12.33235466136602 -0.08630524825614813 -1.3826495486392252 -0.2134804952537807
Ni 2.3920906605907892 5.159371530181081 9.322626257521197 -0.6390929421532476 -0.7539477199123144 -0.6252928030453618
Ni 6.415581833563123 7.157854418482761 2.6163258931526587 0.6623873939048142 0.4874711320774766 1.1009528014205232
Ni 0.7557778649914254 7.518965547946285 7.143562613291767 1.0860411744160134 -1.2231539922423322 -0.677117243915821
Ni 1.3286863072491517 5.033434210382129 6.8771171993324725 -0.10277470666608106 0.0834271553774047 0.08790961662879054
Ni 1.7438931975805334 7.294110798564543 9.906331459778281 -0.35176676456291034 1.2054576034038336 -0.36008685439283145
Ni 8.278321495775383 2.3005626484980555 9.224825637627246 0.7895955510229111 -2.237787147229004 -0.5200796621411172
Ni 4.731708992944114 3.276254989435637 2.123703658525838 0.00262843876178257 -0.0565922945727477 0.6284642587948079
Ni 4.625047603112907 5.667851156179238 3.404044328643398 -1.3951865047639713 -0.22297352234588047 -0.02770029412874584
Ni 2.637312958433127 7.585358344485725 3.1728973783080017 0.6525858344333599 0.3140196277211237 -0.004618215498301724
Ni 5.292483675800556 8.896569425776702 6.383170094398092 -0.004253890180347513 0.6399596610289173 0.7868537266117158
Ni 2.7448700352328257 8.836213186201993 -0.07398934164095824 -0.26703400300020463 1.130844446773633 0.9761049170044866
Ni 6.422849960109528 3.724760908835211 0.11084219535809287 -0.8858386272180615 0.6646841603587907 0.9679262378484362
Ni 5.922422186755207 1.494397726492684 12.752206061831936 0.5155892304699313 -1.0068465690627177 1.0694254202362035
Ni 2.365854496472057 5.66331674090125 4.656322006429405 -1.1238885842810902 -0.16069703290416196 0.04299475839397112
Ni 6.046605452907531 2.159482620888042 4.19846642128894 0.17377752023720397 0.4553747657635641 0.4271916184611288
Ni 8.051386140206416 1.9380146878559084 0.7020954263392375 1.4503078712181474 0.3662986396304982 -1.6591868631441746
Ni 8.160706600725332 8.161732908710063 8.3004160406721 -1.196474683178933 -0.5814081858472696 0.879893208267904
Ni 3.451958916421403 3.062614987305216 8.275317212401902 -0.04377046021773107 0.30285795467734933 -1.782916831905684
Ni 0.7505399622402674 7.998988452549658 1.1440768259777057 -0.6267655309361464 -1.5345937750514216 0.2971619327338366
Ni 1.3449392936982387 1.5062842389703743 9.870321111615885 1.8029850634104692 1.774648421249305 -0.9979564656619394
Ni 7.856322312599607 7.070412978183769 4.47353002329819 3.0118390940903614 -2.077517688780564 -0.7808183190509134
Ni 7.261726116610019 3.5336343718607304 2.4351993279784825 0.2393491354904265 0.4942570446510585 0.1941044047200141
P 4.2192920763136295 1.2978130970539572 7.377058875904935 0.9892697365212189 -0.35061053947128007 0.020613562485293533
P 2.6501231480970744 6.640725815195107 1.0898849653621883 -2.296521942066051 3.0951024701963923 0.9571263190194548
P 7.007761540752301 1.3198973788708281 10.779395801264647 0.9758161821194742 0.7411266568882462 0.6709442823358897
P 2.519726053600841 1.411584002197566 11.69644490395476 -0.19974206262176566 1.603673917678535 0.9166602405846084
P 2.2550505544115764 2.09340704681661 3.585362160305637 -0.6270267550173331 1.1067892055966424 0.35688454540544984
P 7.28592832490447 7.73505935916747 6.36563608898261 -0.019870770781998035 1.2038763749596428 1.4132153372412242
P 6.337003962223162 4.66631451417164 7.895912609614195 -0.15727695147901946 -0.5746708671234361 1.0231288511625092
P 4.7981111195561414 7.406780755142715 10.359870953339328 0.5233562760098599 -0.29420876364278364 0.45414423579057267
