# total energy = -340860.1942734217 ev
CRYSTAL
PRIMVEC
9.41676334653576 0.00000000000000 0.00000000000000
0.00000000000000 9.41676334653576 0.00000000000000
0.00000000000000 0.00000000000000 13.78238501868054
PRIMCOORD
 96 1
Ni 1.099021046312459 1.4216393623520518 6.602850909217739 0.9881618481690208 -0.18704621232165203 -0.5156010575444733
Ni 4.899871613440209 5.19691399993037 6.992782133801238 1.310263995787963 0.31094535967117415 -0.9748355633737599
Ni 9.34448979754784 1.9183453844227 2.2413187124446248 -1.9714925934979854 0.47901194556652993 0.39114218103673926
Ni 1.3953948425971674 1.036870407495725 0.6854782290366753 0.7891121836285894 0.48631619253742703 0.04751475775151172
Ni 2.9191401711143476 5.06151977494446 4.804305589496023 0.6267411054561143 -0.9463163728881444 0.7331156136583116
Ni 2.9472209597433627 0.20703131130930721 12.649624986120626 -0.6493477871120366 2.5468633149019233 0.37162236583625674
Ni 5.868159732678013 0.4691845891909834 8.116501467308929 0.4736008018532876 0.8685497582306267 1.8158711753445178
Ni 6.696448829599395 0.6576196760252472 12.25557298584831 -0.17038803493968074 -0.737957258021329 0.5809515579258253
Ni 7.073119367882633 3.1143402608161783 12.58892735390532 -0.2972933161053783 -0.09098362756842396 0.38691965831495945
Ni 3.962197392201375 1.394688585337886 0.5826066800024862 0.747230455793139 -0.0575824264001589 0.8170392490561605
Ni 7.272180330601867 5.656649808668519 7.030986884822961 0.2942244473720675 1.0816988382869177 0.6936054713788313
Ni 6.736526574872732 3.606639237588913 8.165264293518732 0.4174407097219521 -0.9270426122601969 0.05505503199261486
Ni 1.904154321892879 8.255930775436198 6.615282920333778 -0.1908840980105035 0.9111675929011535 0.12740484650993542
Ni 3.437947337018765 7.561915308649334 12.388682704019532 1.1054522319527735 -3.055733481480466 0.9326519880271743
Ni 5.312824941323579 7.702017915363783 6.602382896073923 0.5300946231749581 -0.6702179456928263 0.4588712089525968
Ni 1.668518649906343 6.5446882697250786 2.2495743889674475 0.6688606603339835 -1.6028871601111814 0.5976200197204418
Ni 2.062026361250841 0.45994015250516707 8.801141604397925 1.4582834332244563 -1.5150158529194941 -2.007144281263324
Ni 9.194725591526424 4.929440250695444 12.085539196485527 -0.9969766182471732 -1.2538190254263566 0.18007158077603183
Ni 1.1577722335211869 3.651067527579421 1.3250450278383528 0.4598551701324209 0.08462297545771878 0.07942446197591482
Ni 6.783939978879134 0.2232846450362289 6.054229328531858 -0.8658426437121087 -0.6726543230484608 -1.0732828463090807
Ni 8.02123677979537 8.449661850038725 13.820976192546924 -0.6947760946481647 1.604831942542378 -0.6455304702484753
Ni 2.2687243191337676 7.10109657211362 8.678699195870884 -0.83288598628043 -1.565958148295316 0.445537210847852
Ni 0.5847668855395405 5.540522281715797 7.63315312420215 -0.4109934114347115 0.21477144615106236 -0.8751315252132024
Ni 8.633637157699715 7.883676699214332 6.291314240414439 0.7705012533956215 -2.5767693584327365 -1.2592754205552377
P 8.605989540189725 2.5875100124463284 7.031166745004991 -0.045187395169915726 -0.23659239868089577 -1.1781355185501128
P 8.31298694522265 8.112117963919658 11.573757877796437 -1.2996941906919166 -0.9606009078316168 -0.24468803120483665
P 0.4690047290089531 8.254442926809979 8.282965361645132 -0.5209996028522252 -1.1942028564256209 0.2858359661980561
P 7.9462605091500915 7.973540872885255 2.0204287503555314 2.414409593114171 1.513590433326877 3.6074073734880967
P 1.421545194717481 4.595389983818954 3.3739689044150114 0.30718049331210323 -0.03363491444562595 0.6077033720983728
P 5.093160100160253 8.476574959999061 4.6264163360573445 1.2329254698067993 1.812826474980923 0.7239450029026371
P 8.484522708356838 5.534900473931919 5.061967071208671 -0.19085735853762614 -1.4370021552481769 2.770664732465738
P 8.48948534269872 3.711476065156595 9.55251646075456 0.44868809777200785 0.9812250118398715 0.5126378611510913
Ni 3.376898459526509 3.66984455391284 0.24875793186397854 0.12057136852786979 -1.207801678155978 -1.3594263164452265
Ni 6.67543061356319 6.627894791631847 4.894524775149279 -0.9579619275468728 0.2699756021270318 -1.1467302647659543
Ni 2.4649979198697056 8.656369224685108 10.694207687320091 -0.1865127084156852 -1.5550283887566896 -1.296431975000877
Ni 9.28167998528911 6.306067483722648 9.75317356487977 -0.5915918112484908 0.880105067168394 0.32062479174246716
Ni 0.7672006690226066 9.182653300774447 2.6805909525141907 -0.4359030301921976 -1.039348655455481 0.9552280735554775
Ni 0.3378395724916185 9.399248277050766 12.623948297202205 1.1234610098253683 0.701828887729888 0.2139998580923605
Ni 9.160881743661676 6.491643641171342 0.7072187108300382 -0.7245826364866359 -0.8518339881378426 -0.07273830820499086
Ni 5.003465428231556 3.80478677425281 4.327283428079711 0.10468272232207133 0.6999208720738979 -0.058145240882164384
Ni 2.893959745630113 2.657749651072695 8.959335697066118 -0.23013995818733268 -1.161338244487116 0.16331570147393165
Ni 0.047279685965311964 6.7522431530826 3.776387699018945 -0.6796114710925844 1.6589431225644848 -0.22539164486906987
Ni 6.598486239355383 4.697740785833966 10.629306411897543 1.895303864850549 -1.093126877618201 -1.993056692822006
Ni 3.966444352520518 0.21627763134781497 6.910198059958984 -1.1080876126930914 2.033188270735569 -1.092618827633531
Ni 5.102567446853876 6.5174361562802865 10.614490076274171 -1.2409115733360694 1.2635300820665336 -1.8165535461235232
Ni 8.167121279272468 8.906412544760977 4.203379537864132 0.05775777563575859 0.0990229529331327 -1.5241859494545362
Ni 5.421513225145207 9.30977960744504 2.600087983395951 -0.5938644093327514 -2.734841037898909 -1.3550688108074793
Ni 0.8134426276549482 3.88320958032338 5.724279120464582 -1.0886212764383638 0.4904780372246004 0.1304307778204528
Ni 4.347663187553525 6.962302895519705 3.4261358906145483 -0.31466934548998066 -0.2011577120223697 -1.248099092223444
Ni 2.829888087068135 4.568806460579615 7.557874575449899 -1.8102787688584048 -1.1334888263750156 -0.2853312586474957
Ni 4.358643133744482 6.525308570530406 0.6054668149708958 -0.39855415723009424 0.3050228235391521 0.8271881645647043
Ni 7.758716248138868 1.623506520581496 10.244625974617714 -3.145918010186363 -0.49146894038296 -1.112784761058445
Ni 4.440776144617142 1.8539629726666376 3.284356158328392 -0.3344673540525143 0.5243224965778712 -0.7050337678204309
Ni 2.8914172194967014 4.32161641983124 11.699645880072426 0.30353029815402566 0.024000990900287695 -0.15151948016995195
Ni 6.617856521786598 8.669609194105764 10.104596818658228 0.9110300388820246 -0.596706763877553 0.43206103073828817
Ni 0.9115436443217804 6.846599122922551 11.89769924910175 0.5910025144039242 1.6275252703748355 1.0013001853231918
P 4.807333078947474 8.819994906515346 0.2658691327418403 0.2563035039565779 -0.9139058177679228 -0.28746784537452424
P 8.367434671531493 1.5658853449876176 13.686955873349401 -0.24168986780846122 -0.3491139003210955 0.44414650114791254
P 1.5404129998362137 7.647052267064802 0.40013617114193745 0.4463291106215281 1.2646929920263832 -1.527154802274873
P 6.976154954565071 3.1085583680535307 3.16624075260988 0.3732411323866024 -0.1278357633997669 -0.5924850124867216
P 2.65247626353673 6.274483659087598 10.682782328217613 0.5156630211306603 -0.11556903021727194 -0.24299084600807183
P 2.9659132352056687 6.419699568359244 6.505630359934144 0.6424775423547645 -0.07942908996160514 0.14762348754965546
P 1.6472085142029687 1.2847007881591808 10.794709036992131 2.074372715393679 0.3278567907145321 0.28817772695735533
P 2.641317398840089 2.0735901467761364 2.341599709851771 -1.6979796676416563 -0.05102765600077663 -1.2920353885950782
Ni 2.9025760841933423 8.362566204824184 2.02131110109146 1.5538814196364399 1.857076188827918 -0.9845165381069496
Ni 8.988592639450923 1.889398253555633 4.742725606544788 -0.4924593293206874 -0.40408948522602667 0.09747437749909019
Ni 8.45631950180288 0.2123621411023607 7.49710725918501 -0.1556990654689383 2.83849840428026 2.2001924768046814
Ni 7.039219019437141 3.7335866257538206 5.517019923479613 1.1168864419316442 -0.31846120843224507 0.036293178004079434
Ni 1.2887123293918974 4.3236127736841405 9.833621916769959 -0.4251905288707 0.3968315181120327 -0.4882591751964107
Ni 8.786198142467883 4.450616662429792 3.1150116760506683 -0.6201871063876804 -0.7493863257938772 0.8241789454247355
Ni 2.1866101417880217 5.519711234475647 0.23479287165712753 -1.0826558028835482 1.029217737669066 -1.837617565882674
Ni 2.391970919260043 7.232978344330038 4.426364729822425 -1.606209539616195 1.7627758381814351 0.9283993833984076
Ni 6.47152001766356 1.5962261568463323 1.3916074203347293 0.9399896593391682 0.8906810429120274 -0.46887588557379245
Ni 6.407740278768751 1.2832694401137046 4.0831971525667905 1.8894175812731009 0.47954159281775477 0.7511637294092741
Ni 6.278984872020084 7.261746556691421 12.665185246057106 0.07627563193428799 2.130492184095066 -0.32545023815556856
Ni 0.16740651235825635 9.27328964904885 10.254852579732102 -1.9313823557406609 -1.225121400381348 -1.042783392168643
Ni 3.310105356325434 4.435502757081177 2.272081395306217 1.0922419039100866 0.9966295193203997 2.2065726692994128
Ni 2.531254267553727 2.7106153611207473 4.512421706027651 0.1322683452498238 -0.7531275380038642 0.15727232349332912
Ni 3.2040443495083317 0.13926545644311566 4.499976511442773 -0.7382997289624124 0.32490979227106626 -0.2509774637579742
Ni 5.413810312637315 5.201773049874223 12.4162474540111 -3.462713400880411 -2.0015289919590753 1.5577061926991689
Ni 4.608498118551211 0.39037757917136445 10.673341081175545 0.23101953257880858 0.8706426362039135 -0.43533815882766314
Ni 4.19651471730392 8.111383456370005 8.565931570119648 1.0895234765376591 0.3544707937576347 1.9152831361859532
Ni 6.592638429248535 6.7034643183749205 1.295481098964847 -0.7063509439699577 -1.4980671408802975 -0.8039986138221186
Ni 4.555462906760931 4.1682738436961335 9.139664833916527 0.8569607678414468 0.7788138870263749 0.9738091789917744
Ni 5.6484478076974005 4.1136189485912364 1.10342432490499 0.5718082008636604 0.08281497571470255 0.017238732475789664
Ni 8.272532529411032 4.122583707402377 0.9141219541563291 -0.8047581176959624 -1.0854837592506468 -0.9337454782016693
Ni 0.28682519813922824 1.8110319480658055 8.851309411715523 -0.7694044207870169 2.5792116493256416 -0.1232946809963038
Ni 0.003487969184502779 2.5361039007341235 11.281888119473251 1.038224826263683 0.7649440710228181 1.7255742894304735
P 7.246142979643038 5.324840731494814 13.217844734913383 2.2479257783249027 0.21951615992489934 0.6381506328446364
P 6.193932664475728 7.061197745345969 8.654290003313784 -0.10303207409252578 -0.6004014391203208 -0.012478334972668832
P 5.4844642888557935 2.3230684610445818 9.835881939999657 0.26236410832836105 -0.9240480484082473 -0.12423930429776024
P 4.211148367716223 2.607708970061767 6.812164843989043 -0.6454931892526367 0.45215420194373745 0.2788623630937004
P 0.9296662055949325 9.224623815502657 4.9562563679921725 -0.8396050501718185 0.6310086224832165 -0.9304349257711975
P 4.655026346792647 3.074620352554211 12.508024172340155 1.188174905063986 -0.8861756988425059 -0.2828663420467709
P 1.2089523429104219 3.374883272146694 12.905618759025026 0.4280580802264822 1.124598208753605 0.7459834707599152
P 5.6280887651031914 5.506593682979934 2.856564836265699 0.1286315198281849 -1.7607338680507418 0.0028858061882272882
