# total energy = -340891.9933683053 ev
CRYSTAL
PRIMVEC
9.04785146690307 0.00000000000000 0.00000000000000

0.00000000000000 9.04785146690307 0.00000000000000

0.00000000000000 0.00000000000000 13.24244519265614

PRIMCOORD
 96 1
Ni 6.422490554459221 1.6749744186033235 11.562190327561343 0.0792146599579539 1.4742450987600353 -0.36133795319111317
Ni 4.662167754821104 0.35141673377665433 6.084400400818912 -0.20411705176100978 -0.696892112549903 0.2306966020217511
Ni 2.7391736371903477 1.6126618669032677 4.675497049312829 -0.02374568035637201 -0.4469238067827335 1.099966269137538
Ni 3.563297170165455 4.279145066986276 4.703596961003677 -1.1219530578212742 -0.132728572715694 0.5587338841782056
Ni 5.058418401213427 4.640570533838377 2.695631757736108 -0.9208971614840915 -0.3721862087595268 -0.5115479705210222
Ni 7.093551587490979 6.108005339998565 2.79616876669872 0.5023920150533671 0.2651498986036143 -1.1191461845000985
Ni 5.340358494654029 4.680543940751525 11.501394195734226 -0.8481051172230297 -1.5006809243540606 -0.32960976884989684
Ni 5.711709454349888 7.745322601613994 12.472939798170641 -0.779985795847289 0.6486193935864443 0.448530489148221
Ni 1.7389517749371541 6.830657220974815 0.4767729035594233 0.36218256057959564 -1.510097075461638 -0.7809085647718744
Ni 2.5762761229159468 1.7586308514505302 0.09461338073580385 0.6017677233402281 -0.7019929241115781 0.6087446688786935
Ni 0.6038825469184187 8.746087334943418 4.652732655516207 0.32246055939962526 1.502713381403057 0.028317615997770582
Ni 8.75033077718929 2.335214221515543 1.424847475014988 -0.4144970537125958 0.5361719397172895 0.7415493462479616
Ni 6.823274174338073 0.7701449570803254 4.8319163020775395 -0.15416103155785707 -0.7116075643832067 -0.2419528916618607
Ni 0.7321367434631344 7.8090737616660615 2.3855202745796213 -0.03141348131427493 -0.7783001806147499 0.8633296474822679
Ni 7.780763035040611 3.694129099537141 3.7988733593405435 0.20897900783900136 0.365372528271803 -1.1534369873621684
Ni 7.519651095224741 3.8540136793384594 12.589751177213532 -0.45004178358642494 -0.5276381912146654 1.00259267888237
Ni 7.843175113104643 8.743906802787224 6.938047977274844 -0.5956850074812579 0.4829390485350779 0.13802607366920744
Ni 6.7111622492450875 0.8668194383355531 0.6252155706440453 0.473689762022668 -0.9095989628624529 -0.6106693967052322
Ni 1.830787465332909 6.234168578114664 9.210120863913952 0.19917796258817955 0.3641702804335857 0.3817815657574457
Ni 0.07600918895336531 4.966266036023203 1.508314807770641 -0.9051180442729637 -0.7989075724524564 -0.3094199241655832
Ni 6.425431106122138 1.9606965138750028 7.015092240413558 -0.052016502276607195 0.12108044695380436 0.049951649327778486
Ni 3.5308968147657307 4.262352255028195 0.44429292706851875 0.3581577556909187 0.6708982595893026 0.06784678444064444
Ni 5.726502691177185 5.642801019073626 4.773808286862894 0.7305059439496064 -0.01696850953353852 1.2478278408399281
Ni 5.34175186374969 2.897863900623958 9.166764465410758 0.35715939633339133 -0.44476562278915016 0.8364009414122241
P 0.20298944803919222 5.5714044246979695 12.629081281901346 0.9063547448935422 -0.8862399764215382 -0.8225889752297962
P 4.147109773395611 6.106322439662249 12.574495595186313 -2.1782949054006417 0.9132059634874207 -0.4422472272426706
P 2.4235212499157957 8.77532999024973 1.0243561007321724 0.6275934261540804 -0.9808087502380594 0.6666106879575423
P 6.25419147297632 7.587003300082475 5.73454804052693 -0.11309665741737941 1.142113591929549 0.5409752746432038
P 4.553874022964276 0.7549952349129704 12.491823568557338 0.24619675453987921 1.2291030107369154 0.2948458830061502
P 4.128724539613919 5.898176621183988 8.039196810880409 0.26011207906939077 0.600743652951088 0.7597280740395174
P 4.729085662817852 1.1162243633925013 4.023584888709995 0.29013690756625515 0.022847851132450973 -1.3980692256284053
P 0.23686460319601058 5.723037364140577 3.517325942645081 0.5082286763398021 0.13564111837679865 -0.9075143124192822
Ni 1.7803366466485022 1.128818972361062 2.470603553572189 -0.2886610943516771 -0.03801196046739905 -0.22986279326654607
Ni 1.903278849712297 6.574458264398835 4.712177943148636 -1.274789457030437 -0.8397747429804635 -0.2896252580371592
Ni 5.897172309692961 5.351089246260863 9.310325816734936 0.7176378297376866 0.9637697924779014 -0.20951148330370367
Ni 8.84679896743555 2.377006246534064 9.958848652251834 -0.5027661105633342 -0.9244571109212079 0.1707176503649576
Ni 2.3299302763735605 5.40013764799834 7.007319231387056 -0.45897585285126113 -0.3308225582110754 -1.3421503029735982
Ni 0.14179702032642671 9.027231217472215 9.216556600522672 1.0478836895096855 -0.1337960947482599 -0.17293625528283119
Ni 1.3028724872520112 1.008446359058094 11.345014753515105 -0.06791209046094111 0.1426977681132639 -0.36627652814331113
Ni 4.082670976646984 6.972970873608788 1.6352561610960048 0.41103429197497604 0.28396266043474316 -0.3942465309936759
Ni 5.752370497959595 7.785259817122059 8.212990652439895 -0.783666844243302 0.1365857416782551 -0.7474757390347255
Ni 5.557651690766783 3.0384313179627216 4.787660547158057 -0.10999076479854605 0.01485197741116797 0.850507041796303
Ni 0.6591594894705196 7.374794996383752 6.743424172520373 0.6638025290847859 -0.562729892711476 1.2827213102830037
Ni 5.491656663599627 4.295657395554971 7.1683736983576525 0.06004682878025142 0.6157828066723976 -0.6837458049759321
Ni 8.147309585711826 6.842944203000179 9.20572360819648 0.10306318444077733 0.29750234679239085 0.6036284306980507
Ni 4.897936663228253 0.3076432293298896 10.257253120649398 -1.6827877903925665 0.015517636019624888 0.473767666448455
Ni 8.261095363289856 6.947890229886913 4.892063702968561 -1.2477486508625608 0.548007756009953 -0.3032014540596972
Ni 7.392628311237942 6.245188860962155 7.012828468025674 -0.6360842372339109 -1.6521278994148643 -0.04816190441720738
Ni 2.325940173963262 5.249563307154385 2.3945256009491676 0.020738003878299768 0.872239034156756 1.1458800009505168
Ni 2.4020235552970455 4.9005967315017855 11.67986306204519 -0.37359800150538885 1.4286357855613525 0.16911456754389584
Ni 1.2063862013032105 3.254005422334077 3.70641427199225 -0.25829868000973577 0.771496013208723 -1.1851985960444815
Ni 3.5544574194741587 2.668138956865513 2.5161576751489916 0.884144270234774 0.6982799940363651 0.44106837644322106
Ni 1.5442782070006948 3.5528197583941954 8.207508559355087 -2.986063013567522 0.38149283087243335 1.0714154540830387
Ni 3.455627740046294 3.0973961646926855 7.20226152050625 1.9272829888603067 -0.7683078452887284 -1.0072232356758462
Ni 3.779486528423205 7.010456121422544 6.0044816353315555 2.0738073298085125 0.18916608687813227 0.4839204386117407
Ni 0.778738606217063 7.184880598215584 11.254529002528912 -0.8811746460834889 0.03166622075502933 0.15610555687873762
P 0.2231987286370206 5.469950868401655 7.912108882364463 1.1997122162796243 0.46006394370911735 0.2849016273092448
P 8.48030670387196 1.6348833896236592 7.8485848233792845 0.40119570861799936 -0.10751042157885356 0.37850263789585786
P 1.820002426618452 3.14816365817156 10.450752277490945 -0.6061188012200723 0.46230903098955217 1.1441442492063327
P 3.839528069454361 6.2243426116348815 3.8135191161921305 0.27998799205771135 0.24517654080548099 -1.0183311726635493
P 7.055993956867059 3.6912337871305754 10.446037442193878 -0.20109292022270528 0.216768164866117 -0.6071852948113737
P 6.3779570305057325 7.678377550063432 10.329331923010852 0.29117306214025335 -0.5699912022595796 -0.6652256346845575
P 2.311762191022361 8.638327426311552 6.031443327332571 0.39172402168213827 -0.09249003691062135 -1.285766781977547
P 6.877760334689131 4.003185603235486 1.7284834110171654 0.7230980815213095 0.3673885302605673 -1.0044053066110765
Ni 5.23061710659392 2.725113276315963 0.46891484473097866 0.14022590953400366 0.17383074207264254 -0.8578573115137871
Ni 1.5976786251992903 1.3639002440716534 7.013595725813414 -0.8520463612589649 0.1649342109139611 0.2804073389833171
Ni 6.920683341116467 0.7982122965065983 9.313107126215494 0.5133174037166192 0.087602626911333 -0.8877972936063291
Ni 2.9159324596111817 1.8337280169958272 9.266983894793775 0.0829486730790894 -2.2100716835916066 -0.6133482290889759
Ni 6.124508620715989 2.2312815539711055 2.6365972425513613 0.44333866053463644 -1.065597561849681 0.17529292844046584
Ni 4.193724303141318 7.030813786781209 10.282480339561857 -0.3743796168664198 -1.1292465061588939 -0.17028801902670676
Ni 8.127340977957793 7.16085855309236 0.27670229234010013 -0.6655812182517633 0.7415424042694262 1.7756372675251357
Ni 7.873141596512598 3.8846677994429735 8.24411073688484 -0.7215307370341897 -0.5151485433880869 -0.5484011347936297
Ni 2.834737042309556 8.191852157516584 12.065006566217825 1.6195522794716881 0.2804322786839816 0.6433781997921629
Ni 9.199221822273486 4.674092822795645 10.442462636156897 -0.1333330390689123 0.7392330394099591 -0.1942987801190073
Ni 8.524396883113193 2.2244051870055124 5.618874881173868 0.9266003825164557 0.20742580441926856 0.6074722299241732
Ni 3.7705743949217454 2.630255603595855 11.418417256517436 0.7148666947504527 -0.0027233124684340193 0.39194513655400887
Ni 0.7855652100006686 3.338159487001162 12.648256393098954 0.632223468726924 0.035168063260700724 -0.4366787320159576
Ni 3.0250404980823555 8.311012358749302 8.107448372154431 0.9036216622330955 0.16555050434172133 -0.3097204861251376
Ni 5.400246222213586 7.970514571885909 3.7389648217230644 1.2411260033397205 -0.06275137219560806 -0.3512227191339822
Ni 3.129959381415279 8.353455829059302 3.6928804960618096 -0.9838521650500733 0.9425695042512025 -0.1462957698771674
Ni 3.4947416010887418 4.356395621133957 9.63010492897397 0.5741903279425917 0.7181196544701116 -1.051401472854957
Ni 7.409846372205737 6.0344282134667155 11.595879096981989 -0.7972468969205817 0.38946864998905834 -1.5791761896474867
Ni 0.3711283825546043 0.12069471680819825 0.37423541468090005 0.3144777983044649 -0.424956558483023 0.2294359901417726
Ni 4.485752750748548 0.528427991247936 1.6615166446235554 -0.43902409231968265 -0.6770041153767244 -0.05496838581607953
Ni 5.847725802499581 5.50691134084172 0.415950532963622 1.4554451924447127 0.44860427980895 1.4169010136229274
Ni 7.838940718710041 8.732967950601168 11.546061627886518 1.0108646890831752 -0.025924433175245672 -0.2423645252779826
Ni 0.25849439644331024 4.743263645758753 5.509069253369738 -0.4196058356940709 1.0651964697565204 1.161637778005406
Ni 7.6359702711585165 8.972690770013536 2.6861505143897326 0.840661773571107 0.045879793251250016 0.5807245295166837
P 9.006457350955106 1.4582421892693418 3.53503077801123 -1.6791859319739209 -0.1196311161017875 0.43687696406969273
P 1.8299007759083985 3.417255802808028 1.4187030792171793 -0.7469561190858297 -0.8938823234581443 0.023388297016953268
P 4.649618385108895 1.0614758153545985 8.1570550263153 0.7895022199781565 0.10049028150727854 -0.19594402903191416
P 8.436641773640442 1.6194568032074266 12.532319036488794 -0.7994570171980231 0.4642155039836457 -0.7622192158924873
P 6.270730945098826 7.87809077115757 1.4975216259900404 -0.7374435516097042 -1.0373689060212907 -0.21763565507273488
P 1.790768819163409 3.3312831200355686 5.768462101444211 1.4291800881005965 -0.8971645937538419 1.3745906828904908
P 7.216385216339527 4.1288783530855175 5.851981911737233 -1.0618926021942678 -0.2417528598359127 0.6154565336812303
P 2.1550624548682644 8.377414539223633 10.025232737023625 -0.298392462706828 0.3509401548965569 0.23260127524363167
