# total energy = -340860.5016660032 ev
CRYSTAL
PRIMVEC
9.36332565485220 0.00000000000000 0.00000000000000

0.00000000000000 9.36332565485220 0.00000000000000

0.00000000000000 0.00000000000000 13.70417355534072

PRIMCOORD
 96 1
Ni 1.6822993391502372 0.2569053085841226 8.9281593818835 0.27836048375661737 -0.43723846117416953 0.030922657720785455
Ni 1.466643224966331 3.3332783543188333 0.7608160816430137 0.05844965949646063 -0.4407130499863314 1.034187680079832
Ni 5.467451784755773 9.155347367821005 7.164020832051905 -2.058542690339958 -2.254324225652079 -0.5347187522105308
Ni 5.150456398089562 2.077309954341122 7.304461352052097 -0.7633857253967626 1.6800670490272938 -0.49714465061149865
Ni 5.524989420291553 6.543616244099863 6.3606821437331895 -0.8000607122202932 -0.5853962239607402 0.3851833923501431
Ni 6.298568650998655 2.9585112489779664 9.355044629928885 -0.48026998634334706 -0.7010063918285927 -0.32298583577547596
Ni 8.649606064616103 9.223062938235126 8.831490536188056 0.7777021420194348 -0.5593612333495593 1.220807860607659
Ni 4.896644732268828 7.748095716850355 13.442752341529632 0.3782283011885486 2.780160330660999 0.5840206837694522
Ni 7.678095495000804 7.618572834447352 3.72520562640444 -0.8645509214838787 -0.6486031956365281 1.3156658835298245
Ni 5.444633360378116 5.723875818406365 13.158733651135753 1.6705639946328648 -2.488892137703778 -0.10283101382531322
Ni 1.6259321193088376 5.778005203440109 11.405956560532656 -0.8867886498361567 -0.4873492617876316 -2.6929971052799297
Ni 0.6037144601501666 2.0779372971533103 12.752185546195935 -0.8042600950136214 -0.06793651594097332 -0.8960312514803471
Ni 3.0452718235710576 7.124329695024049 3.6879030737256775 -2.130017301341177 -0.0798648919474431 -1.917945770619781
Ni 8.68583277118859 4.513619173788407 3.5598371247790395 -0.3463108836546616 -0.7926736757276025 -0.7668528580097568
Ni 2.711825073904625 1.0861551277113286 11.202517713532977 -0.3109366179204258 -0.5107853813233849 -0.06301028228394955
Ni 5.705785873434009 7.252429351942686 10.936889530861771 1.8357812840048837 0.26043089586139023 -0.2914587117014722
Ni 7.6250897090336665 3.2588305528306325 6.898201637539375 -1.4592573671019513 -0.03542928734188737 -0.1414196727317887
Ni 6.700910750099144 0.6669356342978626 10.194713021401194 -0.8651623298156325 -1.2926653088695932 -0.9682499397364421
Ni 3.6473242934352026 3.9269600111367637 13.595554323927601 2.3554883932979305 0.15340332745622615 -0.775498963720529
Ni 0.3412482725188999 6.999778738490777 13.218291892326313 0.12720790000778093 0.15663006192363993 -0.09506988182265562
Ni 7.517327195220599 2.253359201427168 11.52830713556049 0.7172035704137455 1.2500279338150406 1.3904078524284054
Ni 2.501206428869335 8.606291320598443 0.06651519207796257 -0.5010964361703951 0.415071181048511 0.7886172462700418
Ni 6.287903823191454 5.756750454430145 4.135837077618814 0.3971644759714192 0.2462029251874663 -0.2791333573668999
Ni 8.335953385173045 3.076217614530497 1.282069606294968 0.329206105653575 -0.8927746922162626 1.2631744984993278
P 6.807128315195628 8.960196936602658 5.2184940669027755 1.9448227975162828 -1.355949927860852 1.112127329980104
P 3.3570143846008844 7.943836037578671 7.285864851167212 2.3511108330555253 1.6956008829968348 1.730780002001129
P 3.437211267979886 5.866685259771985 5.079492690040396 1.4332534868390219 -2.0784255453068137 3.117375165551663
P 0.7821803815619708 4.652018488817598 12.902383587757045 -1.0313080445391916 -0.1830977691968653 0.38181267610569725
P 3.8030738507179005 8.016860613582503 11.455757280162299 -0.5635449324136036 -0.3182128398668649 1.2037994989751204
P 3.617408468286819 1.9086670977691207 4.1537762730497345 -0.3420518512679916 1.7373018622800467 -0.3556928390901939
P 5.645720139998365 4.274339389229111 6.465245209204097 0.06420944479837329 -0.013623761431021699 -0.06798253868756034
P 4.136661050267659 1.6827487787768796 9.180562803540756 -0.749070080105039 0.15448550477681136 0.59878832899693
Ni 8.850655390934131 7.871476257689245 1.8621912950440758 3.0468361789908367 1.3481810825487104 0.811149623044603
Ni 0.5653781963301263 6.945705533410365 3.9432390889467737 -0.07519474016528341 0.29522152117801415 -0.2972205538859139
Ni 5.0700067049205755 1.4012216693131982 2.5041774120679525 1.249428352557829 2.070862645357892 0.6127476193904995
Ni 7.28431147545763 1.0047316486846156 7.291730038294896 0.9763419727159572 0.28820883730560687 -0.6015219258780092
Ni 7.933311659654795 4.379817251606746 13.2504277619638 0.008751520940384928 1.2245935529023362 -1.0142060947515823
Ni 6.6728488634106595 4.642261903589236 11.17327323882689 0.4686262314568316 -0.20006473606850705 0.5890896136519274
Ni 0.7901794705836498 2.199754162624508 3.097526670828679 0.21871320440762976 2.0706944952111437 0.9093778479905822
Ni 8.64717159997179 2.6230701109683077 8.976384253822228 -0.3656458365378477 -0.34704056273183453 -0.09457288758157904
Ni 3.133324537090745 6.314102408094484 12.879853553806484 0.14662744218497328 0.27725902316232254 -0.2653818121087623
Ni 2.1995200794856316 8.020774483664516 5.607829570474745 -0.38019956598230653 0.432028634838456 -0.3506041117133768
Ni 4.893049215255689 0.7156202455213438 0.11093574484367417 -1.8612909982402137 0.7900136123969362 1.6397891753438536
Ni 5.99745346447381 8.760598925745663 2.2420436224938904 2.1682976849786137 -1.1961137002950883 -1.1615560169248769
Ni 4.153880205963395 6.428025990122773 9.276012544248932 -2.8896055073687203 1.7234472157851415 0.2942280469164933
Ni 4.124095467372782 8.791778799843978 9.466801538423738 0.34921391623406955 1.3383270725727658 -0.7859656675798078
Ni 1.293374885570135 5.000924088975418 5.137146430813059 0.4494149486357034 0.026812235096837694 0.13227914388310122
Ni 2.2179002875501945 1.9332926439789013 6.617347751183103 -0.6404538270565163 -1.3026874689922856 -0.6497254821664294
Ni 1.4817649957377363 0.06029045324896548 3.8391694707326174 0.5349660923346465 -0.1291269714073647 -0.6360829516823304
Ni 9.283484478041862 2.9858802495753762 5.309654468174185 0.6224607329132055 -0.6682425671340104 0.5284136359281093
Ni 0.22888930219085818 0.6590760588269539 1.657437837136469 1.7084898231443608 0.13055470499282676 -2.621571602349092
Ni 5.863492365757712 2.8604397771143746 13.324143351393595 0.915154088352727 0.2853785669456633 0.4375552210836399
Ni 3.484477335381777 6.254158397891055 1.4923024823173894 1.7132414788967334 -0.49852250479563176 -0.4935160527199758
Ni 7.651793913516668 0.9200188333904139 0.28954024347369306 -1.1279334437744253 -0.25024572779827225 -0.4647487507792964
Ni 8.991021004329882 5.534287202567718 1.47622752500448 -0.11116241650914403 -0.30416973151023746 -0.8599334773165254
Ni 5.439970424251702 3.6499928412183915 4.0653705621566205 -1.642973486609106 -0.7807774385106488 0.668771443054287
P 0.0282940971622494 1.353581068889105 10.666876502833135 0.41898028629493 -0.544780764432223 -0.49544695119410154
P 1.195734126682076 7.375248093248273 9.43178738251063 -0.38758171737899055 1.7647861837432444 -0.08433938277902894
P 7.110537516481462 2.8861421057629864 3.040010570941675 0.37516097511713453 -0.5006878878780667 0.026335809681051415
P 3.3122951417499666 4.020134463735064 1.8164055694124377 1.1006694658521494 -0.27957790110348624 3.005432162122753
P 0.04660688928281574 1.4438528905653398 7.3248808924225495 1.1855791193123517 -0.664894476597384 -1.1097534304312888
P 7.6976648454108565 6.490676001411611 12.12219104021041 -0.6545370446224599 -0.06456322859336622 0.5732374771110192
P 0.1441287339363256 0.07131576909003658 13.190472515769706 0.3893624634284972 -1.9980063235177978 0.262693980863954
P 1.6320931875240603 7.208112732090634 1.794533777248397 -1.4297300470667957 0.6188028244456439 0.23428920446901585
Ni 2.862921058386463 4.428693811004106 9.55208270757913 1.894398322317144 1.5390962909074657 1.3630862817953169
Ni 9.221948702494075 9.12898960638354 5.529085875221887 -0.6154143675893853 0.6107776401483224 0.54727807693278
Ni 3.3613683309839826 3.800508299515817 5.80947346796552 1.2156227168622935 0.17760460729277802 -0.6118199653699076
Ni 5.685392550375111 5.1455125621964966 8.862104865422847 2.900476131534637 -1.3248058981578799 -1.2747092386118046
Ni 0.48850810252083415 7.0597602019964265 6.615456359420982 -1.328595704217615 -1.2936202165836947 0.597142565863391
Ni 0.8032899990258304 5.4059534625102055 8.995680195126075 -1.382777075356025 -0.8896788268997582 -0.8303933017655634
Ni 5.862715209736644 4.358047519691255 1.5644272427353823 -0.17999830433593514 -0.0030925228823946737 0.6434051963753564
Ni 3.789300398826422 8.724737388869823 2.5479481500401433 0.150733751043863 -0.08700330276443727 -1.651435758443846
Ni 7.875090501353496 5.445700779491392 7.536637181512778 -0.081210350231744 0.5850514390268118 0.07762366132175018
Ni 3.940124846867164 0.24843337162191356 5.243367741239767 -1.2876927953556663 -0.23413879493408063 1.5033265895070238
Ni 2.5235473236436836 6.032135222329714 7.407009429863558 0.8667191327797911 -1.069478642071642 -0.2676454113319584
Ni 5.126430104715305 7.988583370406253 4.356268487835796 1.1519904847236289 -1.723758062157341 -0.1558060233604478
Ni 4.706765853337974 2.4796707800927207 11.299460904667185 0.8693529708582125 -1.8692318503538452 -0.8915611315241355
Ni 2.843726240998611 1.1685055759679912 2.0228182086083986 -2.234422344521829 2.3960280052831893 -1.1447158054390865
Ni 7.431343776648577 7.086979389384956 0.590613295033541 -3.3287740956860667 -1.0872645053001533 -2.00540055909934
Ni 8.528004555632672 8.44793875881144 11.40280392881827 -0.24303301209991693 0.4831938448583614 -0.1501197716089479
Ni 2.4979948082039534 3.411986468934581 11.838515047531844 -1.0425005708209012 0.21128503026435871 -1.7366652571373127
Ni 7.736747366277634 7.798236325197647 7.063678753741215 -1.680223886320132 0.7468278210380815 -0.15517327487245533
Ni 8.162825495660174 0.4988658132498302 3.27416018942936 -1.1841274744674897 1.3118765916907213 1.151934691785029
Ni 0.31652253872568 3.7095904083762834 10.70232886238222 -0.41035912028482235 0.4523634897410661 1.1142600600523906
Ni 5.995927242408337 1.4136842556269695 5.014864208061776 0.09219718826055089 2.023902474558269 -0.308883592046139
Ni 1.6151455682694205 5.029135788872782 2.4262960790987154 -0.3528923935269213 0.3916949682164157 2.0078364222343423
Ni 1.7350148620251675 8.12918306694088 11.427046515012849 -0.798529106067115 0.5975449435081321 -0.28290619414577084
Ni 1.8599028982784214 2.7347839481656067 8.759433191714058 -0.9122975927405383 -1.8974239965173454 0.8873684335990265
P 4.636306828536225 4.5094431305908556 11.523798694305734 -2.5510647545777805 1.2929854112131731 -0.42438448802963685
P 1.5471116447864286 4.075593440997624 7.126800676638027 0.018675464922316223 -0.3533762751418753 -0.4544841356284947
P 8.458032423759784 5.5534726566300145 5.374872839662773 -0.18994487402568577 0.7283585585893004 0.5925377201015278
P 7.969220013158411 5.308228433692151 9.732073914723852 1.4001441058795627 -0.8475579864703081 -1.6234295030389072
P 6.472192796765943 8.28996073004664 8.888883040177733 0.4024601771527198 -0.6784025383861477 0.06930562837435805
P 2.8119845673669923 1.726812588838944 13.491813358440426 0.22882098226559303 -0.2894555652285144 -0.6577938609968607
P 5.632911110639057 6.598363608620239 1.8953149955276196 0.7806460551391071 0.2132876625166843 0.34100232695755467
P 6.128109309268973 0.47450712181836824 12.251188640049776 1.5894752575806497 0.6256805254020836 -0.3966708241644523
