# total energy = -381167.74146420776 ev
CRYSTAL
PRIMVEC
9.21777857830930 0.00000000000000 0.00000000000000

0.00000000000000 9.21777857830930 0.00000000000000

0.00000000000000 0.00000000000000 13.49115069669044

PRIMCOORD
 96 1
Ni 2.6165033093966406 8.335895230576442 7.886859445051916 -0.7898727159436977 -0.7959348629773776 -0.3126150340641132
Ni 1.3756428335966233 6.288101203697731 0.42049201250079704 -1.2853921722469475 -2.3548119360561963 0.12747606606750303
Ni 5.684852904994336 2.3413065311161274 7.1421883008924505 -0.20032390326716468 0.2865746441362935 -0.11620255003621277
Ni 5.477701767888391 4.898769968970759 8.799252678616943 -1.4404497474771452 -0.32673733239810826 -0.3780889473972069
Ni 1.9606214952358094 8.334853621601539 13.407451536482064 2.4332282684825706 0.2039782121903003 -2.3851879772448923
Ni 6.663098870219514 2.9475782611803014 9.678780844579178 -1.671086442795238 0.28107865401872884 -0.32060088048306723
Ni 5.336301045100815 1.3415093996668712 11.373916491225266 1.627283586677675 0.19748180583267924 -0.7216821750103893
Ni 7.769739272713802 8.673155311759741 1.1321718054914869 -2.1902885874274083 -0.38990393775426396 1.6808538065946474
Ni 4.057186788364133 0.17997159530598045 9.347667178125654 0.4757620711706645 1.3635778767197546 1.477508085782023
Ni 2.5547718465212563 3.403978129979599 3.3453604326946738 1.849576280906447 0.6309947385261456 0.33784938315086976
Ni 0.23231382896158467 7.052310351248366 10.105006315331208 0.4240846974010309 0.9794170120968552 1.2664467414926963
Ni 0.5321829132794655 5.964778403665332 8.110083622596235 3.5139637144149547 -1.4625226681167844 1.2036377765862754
Ni 6.221207784840532 5.8779653653854504 3.311321941883873 1.374359283605975 0.16676715035764184 -0.3758865404292494
Ni 2.331812219221004 4.032473924101193 6.774783318553205 -0.5666014598517404 1.0128752917553008 0.7786691339183944
Ni 7.17819755275488 4.686281738090759 12.352605831598167 0.342402549739191 -0.32105879395609227 -0.9590708443403354
Ni 1.7932542903039965 7.440977983343419 4.252815702296383 -3.357621616045379 -2.499836295420107 -2.3912202994819007
Ni 0.622112482483368 0.38089520123100645 11.452961707530369 -0.08269490519707047 -0.4751864011728526 -0.025362647134504708
Ni 2.4503989401246646 9.068192428825213 5.463835463632241 1.7283541661684556 3.078015175696802 2.5858558941150367
Ni 2.38885183282006 3.5973763415054214 9.091672876097494 -0.6690339526870542 -0.022518749927806378 0.2598580540770557
Ni 0.5251248602521874 0.5861447106243642 8.278696149408661 1.701250110862812 -0.31396357767220767 -0.1603224231735626
Ni 8.379329403052 4.697933010163999 9.75168702037734 0.1393306514132439 -0.036418904948666314 0.09332076034203284
Ni 3.773730880512716 8.203076259608634 3.6571941935561187 1.8502244560134071 0.0886647496272602 -1.393849531120103
Ni 1.9114815178446383 1.1305052311316437 3.494194372096063 -2.9417677911945725 -1.1881556217902762 0.1996577304380755
Ni 8.786478681117659 5.019633481173543 6.455907174887998 -0.5356705746008387 -0.34011375370501423 -2.1277233631006776
P 9.08692295481637 8.311016446299801 3.4623958014702287 -1.0527934681064772 0.2761477923760148 -0.7015851471501982
Ni 8.779427080535358 1.8608666958872344 0.9651816077019173 -0.34168598328814054 1.4558221161681573 0.10753690394141481
P 6.462105209177592 7.696448715550567 12.953784739019568 -0.07357108851893136 0.7449894822777621 -0.41236818029505107
Ni 5.470760780648557 6.927455540938215 5.082143846335469 -0.6066379069483359 1.795783403455707 1.6982578610037073
P 4.963497209871304 4.254852831353492 12.973023164608222 -0.41250419165228314 -0.14014054890904898 -0.08363155807872694
P 4.322668028064587 2.4080801188523204 8.7290712781549 -0.1809267296874755 -0.5363925403685279 0.4682055989796452
P 4.792802386886928 0.4203399191549043 5.0855166315028715 0.6210386557546982 -0.5648245704569756 -0.29766895427724216
Ni 4.377117445894196 3.4106702371988806 10.542335522111259 0.11743359422983647 1.2730454777561366 1.2404204926322635
Ni 7.798885888453979 4.0668746736085755 3.6674074921772815 -3.22276082747803 0.6538919548392932 1.4253514583831262
Ni 6.35367648022386 2.012305579503732 4.838574187999964 0.6622670662768659 -1.4416923616349944 0.9839390683369249
Ni 6.178935052460883 4.518591910910083 5.521441970611441 -0.06585417949064788 -0.3386014308255459 0.09629244137584707
Ni 5.396465485624577 3.407840379187421 3.4869906781678695 -1.8203140416072199 2.9210575552304143 -1.2174034629118002
Ni 0.6707989451704226 9.178409406815502 1.391544423354175 0.6083590034045007 -0.18021144878800577 2.369899426516938
Ni 9.11093526791035 7.744224461717973 12.959532023938607 -1.7779934264621378 -0.5370237461946235 -1.503828725954423
Ni 2.7288680297865064 1.61903827591774 7.462576160238045 0.7160833407663733 -0.392285293502247 0.8548753460673277
Ni 7.160056964590215 8.722378249157762 6.143829142895271 -1.7178900334123381 0.849569360473382 0.5439418134706955
Ni 0.3925077586343824 3.435161874776885 2.8684205879770217 1.7362677645885773 -1.1207353833640892 -1.5054274379001107
Ni 7.906107088419108 1.4984697326282037 7.162937520383639 -0.018364104329484505 0.9248836569356652 -0.1538337301254254
Ni 6.351058631118796 8.864055505301506 3.5055405356996627 0.14514494410217585 -0.1833505086376197 0.41427439617882844
Ni 2.935862464657289 7.408042860623731 11.224974703814969 -1.0526240324081484 -0.5611041841825949 -1.1080655012059044
Ni 3.035635699562942 4.08332840830061 0.871410990180832 -0.12333427598498761 4.467641669874493 3.8374020643468167
Ni 8.044788566537692 1.190577493870016 9.57112180013345 -0.28759254387784666 -0.9938342159634498 0.8548087544954505
Ni 7.777039753316655 0.7630080710070088 12.72620239578203 -0.20607417548738058 -0.4047109208601095 -0.4870551275859806
Ni 7.783326278280222 6.921381024881044 4.98806996390045 2.2655244652432724 -0.8393908772784835 -1.7349976396269025
Ni 2.7111883305487905 5.078359948245226 12.235178707234708 0.4178963092021319 0.4807322706917463 -0.6282997081924856
Ni 3.1807235337660993 6.965036424041536 5.97023901567181 0.3954675478849705 -1.3134940726894861 1.4546625486424174
Ni 6.5103879331646395 8.967561940515438 8.76084311722297 1.3425948467101847 0.7696515038008165 0.08957723413920057
Ni 5.377891661868582 5.128845721303086 1.4198494559137453 -0.9665229297430064 -0.7010218184475604 -0.9397076093223752
Ni 5.435917577771306 7.590849844608296 1.5527910233361215 0.7705318495232407 -1.1334885692646994 1.8126398128914136
Ni 8.412098605757986 7.566994233749479 8.010127875675511 -1.313343148933919 2.7610806883217287 -0.4124427422867284
Ni 3.2166175633967917 2.7594249656431438 12.82667065118952 0.7183369126872403 -2.34962550675925 -4.066425392431203
Ni 2.655024405910935 1.7914199523747445 10.732210698679493 -0.770960195309911 -0.5287512217731861 -0.8830268688008792
P 1.9809835680283618 8.911656113676672 9.907145777214675 -0.6428732351312865 0.11157379301494978 -0.408117118328181
Ni 4.031552146247298 1.4177588637411103 3.3424595977884644 1.8373563418014873 0.2080014744170805 -0.6131317422027958
P 6.536428157537189 2.3611892794246545 2.1957661039867076 1.9132445084893694 -1.0436259426745964 -1.3033968363544843
Ni 3.9449326813167347 3.278385897386332 5.395866330019545 0.7665659228969572 -0.48380473896948284 0.044382125659800986
P 0.3550476284299217 3.073225800444802 7.743259360304945 0.10241629488539782 -0.11509903255938886 -0.1442846529844096
P 7.743560781663169 2.5097522161369983 11.411193187636801 -0.9909499524371191 0.5120094835384731 1.146302433199916
P 1.8757626260061864 5.544300217832343 2.9831496685621297 -0.11073227095026092 -1.4647225039815808 0.07649006193793924
Ni 6.803623904045889 6.360626685242232 9.871232390249052 1.2392771230564399 1.3535472319566302 -0.012574494230900925
Ni 3.1575408207406266 6.537405242062318 1.752783633628713 1.9873527004586935 1.1405943270715455 0.03926922991326785
Ni 8.971120003031475 5.880537125597819 2.7331321741386274 0.1803636580951539 1.3368646290946267 -0.11907061561262719
Ni 6.787750889401808 6.2691402332431 7.035554273420253 -0.9134738724368268 0.4018050600672241 1.2267723057212099
Ni 5.057112968712934 7.416855056906973 8.506993792260824 -1.1789001646302792 -2.8417307951746285 -0.25364626883938896
Ni 5.087725211240805 0.27987664444474053 0.4500644896094737 0.3002562553884442 0.04693240288548046 -0.5927266961838824
Ni 7.906503452896283 4.151217347240017 1.285735387061214 -1.055102575855628 -1.2637141730528816 0.39874133354023583
Ni 4.8500263560567625 9.231697384549202 7.169966076519592 -0.5356957714118193 0.5346609023894018 -1.7463277199277407
Ni 4.601081811055195 2.386916099326879 1.0355879219603124 0.20900111932618842 0.23313606470117915 2.6578354697771327
Ni 0.13927141594507683 0.20300221498556048 5.436313020470627 -0.3932952228240001 -0.7859875219566786 0.044411693346155766
Ni 7.369558635223593 8.60468565277238 10.989189459455616 1.4603490575042335 -0.8596953931637904 -0.16853632644292266
Ni 0.24595153230996916 5.334061124915849 11.77855668997262 0.6847817024396142 0.20477525417029893 0.289340894027521
Ni 5.138893099910548 5.643925968281374 11.380622425112357 -0.3698529326406598 -0.6873314654446614 -0.7711098335138978
Ni 7.501732361693675 6.21196235296596 0.646133091578032 0.06162291501811969 1.4924598219958491 0.041671925817489526
Ni 4.26872558805462 7.04962797769353 13.122383439164185 -0.03944766447266109 -0.02514204648326638 -0.09727871654851634
Ni 8.715483350810624 2.5733456702772513 5.10789831957331 -0.29335618583450124 0.6653832433083444 1.1845463071724631
Ni 5.275168737830463 7.907489755199951 10.917618939767749 -1.0083560637287086 0.7782685560458661 0.490922838071503
Ni 7.340448890597573 4.074387163117824 7.739697610677493 0.12619051448686008 -1.6921165239926599 -0.08533208570960142
Ni 2.0639251393218823 2.0285196519537547 1.3568855760477028 0.031271299309455824 -0.9554826127684447 -0.5414583849272094
Ni 0.352380003320748 2.703666623261003 10.377123433801854 1.394501562881805 0.7738192620252609 0.0929914020270721
Ni 3.943107561166021 5.519227860206385 4.0738414706283175 -1.0028053091138085 -0.7034805644006981 -0.5083137798544407
Ni 1.101542970962246 4.735495457710243 4.8985017316152755 0.7760473800248312 0.3807762644213829 -1.399446565591906
Ni 6.456510017604446 2.5991831035219435 13.282051033682409 0.6980048859981075 0.185360597089113 -0.09959939426189299
Ni 3.119637315388442 5.793668780646703 8.303371220779592 -0.5022763154111092 0.9343856828888294 0.0327018611083953
Ni 3.574202846258488 0.2860663827336491 12.179069167490232 -0.5705668722573916 -0.9260414246891921 0.4978661021585555
P 3.0336907482912223 8.948057121127007 1.5696005642797606 1.5861271670440233 0.7423294189470958 1.6038994034257799
Ni 0.7306905394494313 3.9215103060492487 0.27098701882177195 0.12659829144824003 -0.2323598486567869 -0.43622750341115196
P 0.7444222641389131 6.996708711101387 6.098984650303254 -0.34260361000640355 -0.11634987424735448 1.3262989377636385
Ni 8.365180112994702 1.232481515108107 3.2782817364888417 -0.595487032537839 -0.6007271978908558 -0.7421234735838768
P 4.515384123978527 5.341656574431949 6.756624294831463 0.7801410904782305 -0.2695806806814583 -1.043177285172952
P 1.2443632316448205 2.0597587034222746 12.662699275871459 -0.7849835061721965 0.023655177525094745 -0.16180209304288265
P 2.0659714861575305 5.546291257996757 10.149675670130984 -1.3111309717739483 -0.0038929072965029725 0.8854200516234042
Ni 1.622089360614134 2.1905313275544347 5.631799980613377 0.1462039814943095 0.13466512761677454 -1.2918199301501623
