# total energy = -381177.18556178815 ev
CRYSTAL
PRIMVEC
9.17730661441274 0.00000000000000 0.00000000000000
0.00000000000000 9.17730661441274 0.00000000000000
0.00000000000000 0.00000000000000 13.43191588656932
PRIMCOORD
 96 1
Ni 3.2188576720529833 8.434008948541505 2.949567966341217 0.0674966001900773 0.3117534573947663 0.6360222736477239
Ni 8.381441336698236 5.5289233869845615 4.029333144244758 1.4021889042237334 -0.29124659569066613 -2.3534950170169853
Ni 4.539986011876555 6.409669495329251 2.961737074809124 -0.09491638696392685 -0.23965432543567114 0.5212281739232637
Ni 7.762496251931218 2.076383958582919 6.990183691242418 -2.776605266319889 -0.44791959503709955 -0.17836231139440895
Ni 3.6247332309531837 2.3195550498907154 5.886161056700588 -0.2908917834544087 0.5356680034976775 0.3967487285902393
Ni 8.339904847312303 6.556662414130511 9.30028519766949 -2.1240680257362774 -0.05895899503271136 0.507434462573281
Ni 4.638944908263768 5.0234924067722515 7.416579707559089 1.4653948474582568 -0.5347727453769178 -1.102983715807623
Ni 2.4399796662676985 0.14982136467592716 10.016918121868363 -0.04563579556124398 -0.18083211309114017 -2.577911956677612
Ni 1.2888884619595005 6.3292671127596165 10.076233807208203 0.7674480683915944 0.41984829072218016 1.390172853599464
Ni 4.622278919592787 0.2217356564295983 8.515055578030028 -0.33304167734958123 0.23818082621393818 -1.0898986004888906
Ni 5.503236105987825 7.889767138984715 12.281485504182037 0.276200242880505 -0.0883472183868414 1.1523208714798543
Ni 3.8172364128708476 7.4263590454047925 9.670858411514262 -0.5963259834993666 0.11278889636897349 -0.04784514450773696
Ni 6.756516618584218 5.792477276110776 2.185144218351523 0.7069345843875696 -0.2423897220889632 -0.29404652703330647
Ni 0.7086220533228287 5.535356678866917 7.879390358483461 0.9869588289998551 -0.4159116746719353 -1.0291809708938597
Ni 2.242695107644318 6.537692921518773 4.264834760479681 0.5524953594676614 0.6246310010916469 -2.1186535395889257
Ni 4.7123450059457594 0.42777536548916517 10.847642403203118 0.19517372652479292 0.9918426394547177 0.14352077823519155
Ni 9.175149869847125 1.3794868320916123 8.940726587130285 -0.5213482444408957 -1.1803883191400315 -0.20880237305182106
Ni 5.808436612178415 3.3194960155364455 5.22931369593624 -1.4294238286802865 -1.472815051181728 1.764633460215464
Ni 8.828128377767959 6.682354804459664 5.802788897735618 -1.4938168502443758 0.5752385667014479 1.8923825774386958
Ni 0.4101237340961238 3.4402693695618294 2.4999212439133514 0.18963634164633147 0.9595603823822442 -0.1721474408329487
Ni 2.612191823432313 0.14838878712551964 12.222250579139722 0.7179121664449959 -0.8978199679496538 1.2071352482165727
Ni 8.178264947278178 8.211927307655467 1.9922216335251233 1.6410222764200062 -0.18507314775568126 -0.9743743074666252
Ni 5.54258839641798 7.226220344448442 7.724600400048465 0.7439471570561768 0.18225907534565386 0.832140109253341
Ni 6.801375292936504 5.287174778189982 11.796364821066502 0.754026909889682 -0.1981235531817362 -0.33031373689545696
P 3.809857858415193 4.870121259927857 0.920090139198962 0.33433288535717903 0.12304168444523325 1.2739523058411222
Ni 3.1561307818733857 6.677545895834338 7.485163554770526 -1.3015638969108034 1.2106954547640054 -0.4238460990276636
P 5.295994169771927 9.008352323539272 3.373170410548061 -0.23700686051049505 0.03323356524214922 1.9407028618106383
Ni 9.278715774115854 4.586606729083922 11.403535721139134 -0.8431521440931286 -0.23312655161948237 -0.23154712294750446
P 2.451699086715298 8.849034282058978 7.509394397219858 0.4337325049034401 -0.5227389541408352 0.3023691879663889
P 5.4643518581910495 1.8613871983433539 7.141575293066806 1.1245444726975342 -0.44040066095223507 -0.7780813797357244
P 2.842661522493063 7.050575874639033 11.831261529173 -0.6273059768206487 0.12143551630037797 -0.08014334241981036
Ni 0.31777066295415984 8.427621543191833 10.4674651380675 -0.7400059130202417 -0.028726935621047302 -1.3609620363634627
Ni 2.093683181404944 0.5118055373328296 5.0212265297882945 1.0413245482349294 1.6211862155306853 -0.5858765060312685
Ni 5.07967587739105 4.0029850971773655 2.879869994116203 0.03805824032430219 0.3187273176094382 -0.32314704394368865
Ni 4.30184408455097 3.0088900757956303 8.556640707140607 -1.9123086269386613 0.5382002830012279 -0.6443289937412066
Ni 7.07205077193534 7.751254051423535 3.853415190700549 -2.186811170401769 -1.1184422164545382 1.0480556963111758
Ni 5.777848649490984 8.051388684405765 1.55299849586185 -0.17475171122501515 0.23562206434782648 -1.1865080588845243
Ni 0.9930763403561411 3.3271131799620584 9.48126718896075 1.5022886351608127 1.7453077633036587 0.05162055238976917
Ni 2.4750828637712767 4.874838395487815 2.8392925332633734 0.46213650996742994 -1.5660345100592061 -0.41431193428498325
Ni 6.145858641620004 7.776188793284247 10.067301534755853 0.8442242941113848 -0.7393551668101201 -0.46749546028649813
Ni 3.585307522070733 0.7162070971755627 1.1750182779111598 1.8972167656025454 -0.8704644587548364 -0.860392676341131
Ni 8.400309878938069 2.6045379497805525 12.616974792866957 0.8836053670121686 0.3507979728917378 0.1289364526631134
Ni 6.087867241613438 1.5237082043187333 2.2676160835452244 -0.9488635647900304 -0.04118830131285165 -0.04892706471800606
Ni 3.36291385276244 7.051475250679648 0.9100024438536198 -0.7245818651556876 0.11282412048228312 -0.9117743732472169
Ni 0.687794156137372 6.239145962567423 1.771548709192496 -0.45291730536200714 0.8667044774917718 0.7426855167349339
Ni 7.675339371750437 6.774806990512227 0.2024871736991393 -0.8886221035004697 1.5171604100663227 0.37461075904061936
Ni 3.363372718089284 2.5743170793545955 12.82953497822098 0.3068315946131167 -1.039746919335164 -1.8301971050488866
Ni 8.120135887673559 3.96589960146182 8.560039063751216 -1.1126965722200126 0.3071946343794903 0.2043633634438609
Ni 1.5654282398354047 8.741182575637525 1.0464093395645846 -1.105219290006361 -0.0921251973720349 0.5066973272969403
Ni 6.160055934832562 2.1640455906232283 9.327766642094188 2.1200277942286325 -0.5396521849564061 -0.15776443263839923
Ni 7.456359660473865 3.280932973468462 3.7326757927093515 0.271447558686868 0.035363209990642325 -0.36276980054163327
Ni 1.7714587715884347 1.4576224199466365 2.7761086132182395 0.07587068318638546 -0.4384018853546514 -0.5846963696802382
Ni 0.919244909266915 1.511126117056666 11.120430498166744 -1.0947924382460823 0.28204153215263045 0.9093577933859243
Ni 5.8420989725557035 4.894220866893713 9.475786501496925 1.0182632955400914 0.23234802158224502 -0.6233346508777265
Ni 1.657641815918008 7.7347716088832925 5.833830219365972 -0.8430045627716708 0.034733546826443404 2.3142057324990595
Ni 5.619852140152001 3.4442798525184477 0.4016383964721215 0.7487170676409944 -0.2658469246706389 0.3660209604890793
P 2.148095431862125 3.0375783360299273 4.256667875392508 1.3313514125858814 0.665628269439615 -0.7783037801591758
Ni 8.470993493885144 4.688153625914535 0.42954475018947624 -0.4902057573998203 -1.308350580815334 0.5012478741465948
P 7.546233023389562 2.9396197660552352 1.6154831051488734 1.2087483583399634 1.0144652619502401 -1.168714225236213
Ni 7.16312636200737 8.506830875911675 6.351885502450419 -0.07352943664771854 -0.7484298754178788 -0.8422674274953301
P 1.337528186604982 1.6720410098743779 -0.12391658151426667 -0.3052480521760808 -0.229740665866385 0.5910660206520078
P 7.123223433185001 5.706017871226798 7.6011885703937265 0.0906396139654439 -0.0047218309557015455 -0.3129433639378094
P 2.6897033544428295 4.152162214934403 7.079492649806098 -0.701798805822901 -0.0035108413667358893 0.7971461096766594
Ni 3.612518235952592 4.802080709263405 5.103200984967697 0.5654120675293295 -0.4085066404571158 -0.23003711406088126
Ni 3.4270724027617914 2.8957063542762485 1.4583969846183495 -0.6869879660623136 0.8263368723080026 3.570163401534974
Ni 2.9792381983749605 2.4576276267381245 10.573335464007636 -0.7086667365873279 -1.8372727809487455 -1.6945626715403073
Ni 7.383207350068367 1.0171759473219968 0.45903694247640436 -0.5695039782105159 -1.2933049993361212 -0.5054341443138005
Ni 4.228893674889285 1.906447773439451 3.520733240085261 -1.3557478391523747 -0.8295502370389778 1.3549196868241247
Ni 0.6427528533850025 6.5195218545757445 12.722375240712408 1.8448349095667196 -0.2789549228075067 -0.46995292068805516
Ni 1.8216861702647968 4.552788354495506 0.49828552934269316 -1.38055589933499 -0.4845465022315139 -0.6805807769843892
Ni 7.379077562126771 0.6093300207083273 10.797030475382861 0.6804375665383056 -0.01372377734399572 0.684495281547447
Ni 7.937544196815729 4.2446511102131135 5.989425945314905 -0.22478280764047737 1.294282789868358 0.32559987635955534
Ni 9.502825599746542 2.2348760424748932 4.8468127367854805 -1.4639858829258723 0.41439883757183477 -0.45352177171522534
Ni 6.115518466209068 2.5527871182190673 11.628465997974223 0.1533321078986585 -0.4891462057870544 0.9759743049638934
Ni 0.6108433585562594 3.1166132999255667 6.9871349900108655 1.3676762151588444 0.5005462200938798 1.0255410601484272
Ni 5.098489355791661 6.824951793429757 5.51354589215136 -1.3162942611424426 1.2709032346021532 0.21461692285106912
Ni 2.4738531046953343 4.486730102043021 11.62389937024147 -0.3844406006468476 1.2777076591184962 0.4471492925299783
Ni 7.2673897415729005 0.0923494002193492 8.398010045919927 -0.5183092005042558 -0.31090859289596773 1.0083763754436827
Ni 9.226496899920988 8.795668244547002 12.668056598781902 -0.9394265877468466 1.361866550455603 1.1492229492808208
Ni 8.520468353425482 1.2124231438941888 2.7992785590319085 -0.07561177309804398 0.328278451632983 -0.46373650746469813
Ni 5.353379867547058 5.883662993861248 0.13046917838160133 1.2710783267274368 0.5565484464911123 -0.13788929098102706
Ni 2.896945290658728 4.984727463960456 9.387620117597086 1.2470703938486136 -0.9232096116673518 -1.6449244396878897
Ni 0.28494710839434306 8.059684969515109 7.835749512708619 0.42827251023013335 -0.9930605710222187 1.3800347367241976
Ni 6.749817184812293 1.0419087884388971 4.744233392969468 -0.18960034620207347 -0.01397883077759528 -0.47721191624331355
Ni 4.71237253786537 0.07288433305461975 5.88226529007568 -0.1371966357893766 0.013659242654647442 -0.12489750670704942
Ni 6.198417076156734 5.363282181300355 4.457636204859793 0.3521087212833613 -0.41043213961460284 -0.19527117133460564
Ni 0.3180432289583053 0.7321416545155532 6.628637276107326 1.0304536669586963 -0.08730617871683674 0.03557404044986777
Ni 4.541068934047907 5.821853834335339 11.159235821127302 -0.048332111446484506 0.3056203479138349 1.0420123183305732
P 8.225629026315033 2.809476382055693 10.44244137633338 -0.6592089961768325 -0.44282546834364384 0.06752513943516758
Ni 8.84034337276855 8.892452119284972 4.6449174993579705 1.021481545367073 0.15680772515208477 0.10056458638863972
P 4.5591941144582515 3.689249695907473 10.805371729294233 0.6149788227138634 1.271536497310778 -0.31890343817598626
Ni 1.1441898697924615 4.897047477307073 5.4547551487454315 0.3729750232094093 -0.9940980111477976 -0.2050187376396727
P 1.0622456997246306 8.20590699456727 3.192981338541587 -0.2493000760555513 -0.31031158274191717 -0.4948471128265736
P 5.130637460590363 0.7835584321190956 12.967412996169807 0.4238484130205087 0.4838183658162377 0.6556963550378836
P 7.880286981332114 7.325885893438994 11.591165753285713 -0.5162895989710657 0.17329852371825638 -1.3611821227940686
Ni 2.2808451709181417 1.7175145637646345 7.974286461266795 0.32054354488257053 0.23230277016660641 0.3800761530305648
