# total energy = -340895.3486331623 ev
CRYSTAL
PRIMVEC
9.04031023154339 0.00000000000000 0.00000000000000

0.00000000000000 9.04031023154339 0.00000000000000

0.00000000000000 0.00000000000000 13.23140783243241

PRIMCOORD
 96 1
Ni 6.453108858467002 1.7425739878297115 11.320064596324107 -0.4535192006120641 1.1067676083300875 -0.26640074029157995
Ni 4.55865766320645 0.2679692518917864 5.99930518684963 0.98975978878376 -0.9738624008272131 0.39931494665551875
Ni 2.9559463108626036 1.551742084754853 4.896626035165915 -1.3463329735963778 0.756090220176614 -0.9520057099634379
Ni 3.3057701453116404 4.184958370136886 4.759350736392354 0.9664815349821096 -0.43816560097412927 0.7663306669576996
Ni 5.142291034309286 4.386457838971768 2.6946289190438897 -0.26415950966588697 0.5940523569738415 0.2878766507771687
Ni 7.359734424039426 6.254475167891381 2.5253464028352752 -0.5405934658237529 -0.4457485555277097 -0.20046454261008703
Ni 5.177584404417024 4.9568381156642705 11.53866019533592 0.8428004171806646 -0.6706964279911416 -0.899502240748083
Ni 5.45895501180259 7.840335382458377 12.372358484442639 0.38095701297362133 0.087244729351282 -0.24489269101647498
Ni 1.81434500865075 6.636862198838387 0.6465394639710961 -0.5340242972466673 -0.38976432685260615 -1.314563137383949
Ni 2.726539405162305 1.6610213516253296 0.496541736982212 -0.5114867782657836 0.02169831090904005 -0.33034818967781815
Ni 0.5759391632906704 9.166422290148871 4.702667088873775 -0.026599090644767096 0.09251189128749229 0.40558715281747565
Ni 8.663636411073059 2.349431915235514 1.2138469393061135 0.20557152481934918 0.07910101719822506 0.6742455787949807
Ni 6.927173672780446 0.7795486404716447 4.832057429294885 -0.37192472756802397 -0.5780762932605593 -0.3591095780812267
Ni 0.9129718631686418 7.582993918962763 2.7139869347743457 -0.07723953850945407 -0.11875334148252453 0.011716517105979821
Ni 7.474790448978255 3.876313147583533 3.7561846047227143 1.4830920076277039 -1.0113665684202582 -0.7795265968226832
Ni 7.857566213253804 3.918947249383762 12.624403230329102 -0.04928007718205061 0.3843526689187316 -0.500464459013351
Ni 8.032568533577983 8.692574443274614 6.847279933454848 -0.07227808073912069 -0.054789437036054024 0.17350061242673345
Ni 6.861730868935693 0.7940565299052765 0.27481367056713696 0.41552909452153597 -0.374710003622645 0.3109551298631871
Ni 1.7953513174119284 6.4381200245431724 9.27214690714067 -0.31425874031512324 0.36688536537190364 -0.2628014529760958
Ni 0.13714421427905263 4.805476205901498 1.5932072744764625 0.48939251746990553 -0.22353530838662147 -0.8866624086709375
Ni 6.3166182585985 2.0756822891513895 7.109301565419923 0.36206197584133126 -0.05373194230581713 -0.5226803329887579
Ni 3.482951180337655 4.339303582188478 0.6569376284941291 -0.010324778964775766 0.18747764343211581 -0.41422888765287375
Ni 6.334364387061996 5.561960303556577 4.755540245741633 -2.1462507324809037 2.21340074796484 -0.08069073028284814
Ni 5.374952451597388 2.7870100385256915 9.41396134554822 -0.4198326069928963 0.19269132642257136 -0.41332540200199785
P 0.24392925962987613 5.732966806875732 12.45680130774319 0.22082433721336162 -0.6230777976719141 0.3090203747343194
P 3.8961475876492035 6.221948132633275 12.6514084442599 -1.206798176592128 0.36474903575519113 0.55911877832145
P 2.412216867950227 8.735154303215046 1.4450022409538603 -0.3575157512315456 -0.8331572376639458 0.1586733176059138
P 6.288457693054032 7.772451694922771 5.739189252225413 0.3529808394756695 -0.3684920477373912 0.7187886555126782
P 4.497744054654723 1.3442669710323651 12.54535928014032 1.0999539278423636 -0.1664251936371908 -1.1070676560690096
P 3.992752339947178 6.115643127741653 8.225767189801973 -0.463806441470685 -0.9233903602195904 -0.2161546996518342
P 4.909674818571014 0.9107931484668066 3.7228150125757664 -0.2282373418479811 -0.03623095730757631 -0.26954108569277446
P 0.14639335540539153 5.664622063531853 3.568854917728731 0.6467558580151442 -0.07062357585483321 0.6525945761841084
Ni 1.4824842701043963 1.2977455359467043 2.779521949780753 -0.19295332183470637 -0.0440738503907628 -0.8470378523007799
Ni 1.8708198250091106 6.312269869504795 4.79588262896545 0.9814777512806258 0.7470538210059586 -0.17548910361167197
Ni 5.940749291137067 5.479313789846295 9.131629753213256 -0.9293463206927092 0.7642074499671097 1.3551608563006532
Ni 8.723881036687294 2.3199785853658903 9.98894494807547 -0.17974530778486464 -0.4923688264894101 0.7928400261021378
Ni 2.254499620281272 5.197292280143169 7.087059690810274 0.774611161798937 -0.3366193673985106 -0.3318851951476348
Ni 0.44541245590681866 8.98620371097424 9.193751147176457 0.11331777228925001 -0.3393928163785897 0.29733985307259764
Ni 1.5987336159587526 1.0351245314308752 11.407404838968798 -1.0723479931996371 1.0168949544376553 0.4902342966449105
Ni 3.942018120417304 6.789408389206721 1.634092076298247 0.5881511609980581 1.1897448206542671 0.8802873583825291
Ni 5.622675025289049 7.735070013212859 8.069345418551162 -0.792988378754544 0.3830249512462436 -0.3744649774913744
Ni 5.331242552911191 2.7001597806811626 4.787652330772293 -0.18528654931806798 0.9872156822056675 0.48690831759547115
Ni 0.8750251620858469 7.135010398901579 6.631184884179662 -0.43894258834946986 2.0330147212721825 1.0547544484875897
Ni 4.9639166783677435 4.404719265103333 7.102103670624897 0.21191083677381567 -0.4391215371294954 -0.46093323368794814
Ni 8.03052542352564 7.014964122861452 9.210342828057279 0.29754914086992623 0.5798179585420143 0.09906640457655842
Ni 4.48940888886596 0.32680449318230154 10.49539034462557 0.04901293956359301 0.11971801938863898 -0.15309222397371053
Ni 8.208619529858233 7.247272968060875 4.723797909388587 -0.2823395230090234 0.18845389130245607 0.10323699101448028
Ni 7.0875126103395765 6.093593811734283 7.072412580603164 0.5696914116309737 -0.1639037127669177 -1.0280987935732744
Ni 2.4520755945908568 5.24845139424145 2.8389836845519207 -0.8129727922962708 -0.3542170258756158 -2.017092393614971
Ni 2.3081629002401693 5.264308097922028 11.419339856186072 -0.7692403844053268 0.21458349850997235 0.33620824800302096
Ni 0.9294794691667797 3.5105874079040884 3.915437801054914 -0.09562935387055144 0.033489390006697164 -1.0015413547997203
Ni 3.7553085986869967 2.387328894613495 2.6055158716148403 0.7892157990859893 0.3034714198916322 0.06980313683606688
Ni 1.1076187770492034 3.3183632970944474 8.160219518361613 -1.0402151172208345 -0.28521658744650236 -0.4274595274105348
Ni 3.537283443234045 2.326297762032209 6.982927976434507 0.2213311016464511 1.1094559537955277 0.9734145146565171
Ni 4.207703790011648 6.615346261119018 6.050061103123422 0.26891450785236914 0.8222585884735709 -0.5034245700829394
Ni 0.7539247859036701 7.652658547561695 11.535657004365174 0.7708059291202337 -1.0512166105376606 -0.39940570659711216
P 0.13667050203682787 5.661647801552999 7.970348600236152 -0.09462045299006286 -1.2161801320276602 0.8913767834274713
P 8.480145239690692 1.5504493204296976 7.932995847518131 0.2422079450954603 0.6028794683471681 -0.590662357455686
P 1.7368785925510548 3.227905955573436 10.438694040673038 0.3599657554339349 0.014761217469574577 -0.4614952768390052
P 4.164671914572909 6.058481247825867 3.867817968308368 0.48209855491165365 0.2972334094017203 -0.3197259340772816
P 6.930925401416387 3.9111183409531005 10.520648970670912 -0.12057856761672138 0.26553582118812336 -0.05430426986951938
P 6.258543307376136 7.907613369226253 10.241625227752552 -0.583788256043672 -1.5877495331387945 0.6405052491197422
P 2.4457654582345043 8.464017326711131 5.630876394490314 -0.4282087468717335 -0.249961363788634 1.9445484608089738
P 7.0515050557445145 4.067289695617849 1.5878743956274473 -0.49960931010190734 0.37087494614727096 -1.2486642206982947
Ni 5.584705723431338 3.099063457936273 0.1076565312315576 -0.2591422589569537 0.017228705173460652 0.13202306200823713
Ni 1.3909420913874504 0.8745243289137238 7.111087930669228 0.0757963783050243 0.33160623045463533 -1.0708845212802331
Ni 6.9429670942912605 0.46713722478640524 8.957054135519478 -0.6333624674273738 1.0502753296703138 0.8904894957265115
Ni 2.578287362027879 1.4777109864422844 9.265690317762864 0.6733094401339565 0.23174406944965895 -0.6974425857367343
Ni 6.318977779499657 2.1098004189635318 2.343758216700776 0.3862725116492638 -0.8073958124291255 0.5130690351512389
Ni 3.9784686502007056 6.730167237998726 10.331162265719014 0.7847248531941712 1.2346753626183704 0.31347558229219563
Ni 8.169990285372997 7.3912579848912925 0.4068537258393174 0.396568237148317 -1.263835014901462 -0.6946089729426812
Ni 7.475974729583816 4.0230102574037865 8.320240237009935 1.3286628100101248 -1.225564658566354 -0.8523250688416483
Ni 3.0373995036573582 8.43821628206782 12.492288140484204 0.3901749320274635 -0.4341364252100781 -0.09562292611264822
Ni -0.019162745035187695 4.750981217425719 10.222082789698787 0.3568549777190951 0.48526435423414493 0.29537990113274937
Ni 8.62950924095095 2.3529847570521993 5.7611138119552505 0.22403384528959483 0.15726306752194852 0.6429791645815314
Ni 3.7503635491355287 3.1768101236449175 11.491530347389538 -0.6643077508559785 -1.5649348492371242 0.09195190501896423
Ni 1.31693811400478 3.293375880348088 12.602598002690817 -0.8720528862878789 0.43789794913503943 0.4287980437163002
Ni 3.1391843535659203 8.237846851978704 7.9318450160594445 -0.2913640951051369 0.13991429183085582 0.095204607628307
Ni 5.665010796860396 7.918913756683904 3.5454875245283004 -0.360059857809638 -0.5734573064313092 -0.13180657512205687
Ni 3.0916413634540874 8.534857195605658 3.6405952014958847 0.8351063909705165 -0.9085959755192351 -1.3770255175842283
Ni 3.280873131664942 4.046108249367227 9.074747218875423 0.5375176551119065 0.6596715376355478 0.3173224668421116
Ni 7.287800677638998 6.2103855761866065 11.447575456303259 0.24489834744342984 -0.04680796149247422 0.2162529157925953
Ni 0.48353273094096316 0.14755684329803134 0.34080974138181697 0.9122610830756483 0.7746330161758079 0.2065035497153153
Ni 4.690176092593585 0.24119818198911083 1.128373520669425 -0.902960888720645 -0.2277442042616465 1.7677483516953618
Ni 5.763893707269832 5.658899547323299 0.5499663527580034 1.3186033688915935 0.15000150086352876 -0.0560464493716067
Ni 7.854492507865323 8.84989391730506 11.332488694310547 0.2696788968222194 -0.26864299935853736 -0.05311821998121819
Ni 0.07600278991617987 4.916563534765199 5.856194367992937 -0.9057279099428208 -0.6038914545514503 -0.25545478280303746
Ni 7.877274088979949 8.819843926977672 2.500273103144237 0.054260561115777525 0.8443489926147071 0.20344985049065606
P 8.458556979491593 1.7348083615688132 3.5211953076183353 -0.14123223931133097 -0.30731856155186427 -0.08045470301264208
P 1.9581040177320137 3.2926164943109337 1.8240687660503099 -1.2345000133827706 0.35506240459504657 -0.5150161315752807
P 4.677718545460269 0.9713541849298544 8.311374405026159 0.29748640595279086 -0.0652931647808553 -0.6831837618248751
P 8.487693898512404 1.704432920082645 12.241420442955329 0.9075675342547208 -0.015242527981367295 0.7181003711964019
P 6.297009826281982 7.821549618348776 1.2423763494972 -0.40291269130910606 -0.40487341457990267 0.7375865049454716
P 1.735414062336543 3.2602341040122864 5.9142937280522085 0.20990537630801268 -0.6057328786355631 1.136214709946611
P 6.93909784162576 3.9208005129268164 5.873937784363443 -0.4884075278488169 -0.6953142265398219 2.269116296359589
P 2.3966042526387357 8.447084826144586 10.168045240907293 -0.3108003494528776 -0.426900055362639 0.15912351776945496
