# total energy = -340855.81425832515 ev
CRYSTAL
PRIMVEC
9.45649576805714 0.00000000000000 0.00000000000000
0.00000000000000 9.45649576805714 0.00000000000000
0.00000000000000 0.00000000000000 13.84053743379219
PRIMCOORD
 96 1
Ni 9.267006409191994 1.6409289545396981 12.292237721393052 0.12610361120000863 0.09867456845477844 0.13842176644572934
Ni 7.792020040659203 6.759522017489715 12.496274854554635 0.3783344877491097 -0.21420297524210208 1.844400136022146
Ni 3.264041871238217 0.6549852595507428 5.9730914681340925 0.9806863657275819 -0.3842711649485189 1.3126260682622362
Ni 3.6874280953492984 4.074955287881956 13.050312022834365 -1.3231105127333278 0.17241097890698048 0.025457777951472287
Ni 1.7860294240912133 7.937668986959545 12.468455735594349 0.4027658813185967 -0.92770055755917 1.0829962169421026
Ni 2.9650653041539683 5.859490585657401 5.895847028908037 -1.3321276286302735 -0.44691763613514646 -2.2607165023316678
Ni 8.3923845812234 4.416817062827004 9.980037530460743 1.520370175252872 -0.1061330816153527 0.3908269637891656
Ni 0.48402978518947803 5.867386759541364 13.73507200464983 1.617468400359466 0.3634740256975095 -0.5543383262136711
Ni 4.6228362774808955 9.300293273948336 4.152659312797545 0.3487997115147864 -0.5453482068999188 -1.5369733310271916
Ni 6.588737705700066 3.51891334252031 6.296323000960825 0.5474328573430896 -0.4477576155379385 0.689750102188483
Ni 7.2618037849707315 2.5998176154184547 8.762291485375235 -2.7495456910989358 0.22061479230571682 2.3553179291583373
Ni 4.393431149036539 8.582166992812905 8.60190742752281 -0.5259062961252233 0.6820923285329092 -1.0581866140975904
Ni 7.851387920471796 6.705742926617748 7.469391832256179 0.8285716751757923 1.0006903196533348 1.4374657251481568
Ni 0.7192128324878476 1.8789489505388923 6.240172220974968 -1.6586222488899562 -1.1779511704534489 -0.18812967519381793
Ni 0.26075719418673754 6.601532344340786 6.013630519419311 -0.403642370386279 -0.426128210193621 0.5367820624974626
Ni 2.5955338228802094 2.363130985308648 7.543591279876683 1.0042875500862898 1.7910975679442638 0.29009628413630684
Ni 2.4467453200176217 6.959791682776601 9.804415275486623 0.05430221298699035 -1.578828833610397 -0.4497383934133932
Ni 3.0685288232730463 4.1356659900796044 3.6723099957226033 -1.7917714540828367 -0.16342548757891853 1.2514093875435996
Ni 4.407388936644597 2.2999143117586036 0.6235424114499355 0.5882288083135289 -1.1649167058669938 0.24899051523493249
Ni 5.383119616310583 6.331814174857709 13.700374230739609 -2.375979314162431 -0.23240304318989652 -2.7000126173658145
Ni 0.7583778549522999 2.5307000885706947 9.112720845396774 -0.13358834961282798 0.42141563520930003 0.038859138959042756
Ni 5.934934508108 4.104714879753607 13.418733311516533 -0.4524614487715111 -1.219716170205377 -0.28767019119331744
Ni 6.169729839083924 0.12356992021138943 11.798393984997855 1.848882854383848 -1.0141328183114857 -0.08080720125605438
Ni 1.017301434628738 3.5287764675035107 13.824980582876368 0.9946184024276419 -0.1363420010985652 -0.19139523331896716
P 2.75349512654213 0.7071870069450515 8.773779236314443 0.2120676740666541 -0.38405030718696437 -0.6494403468258428
P 2.807794324675915 2.35419459690105 11.156552308778034 0.2937403086467973 0.5077471087176932 0.18313762129586522
P 6.6908584024340865 2.0087866360799707 13.519104556551714 -0.09256382757135026 -0.478320318816144 0.08362615876208823
P 6.445500165795425 3.901088158504078 2.8033734129504633 -1.5112954666451135 2.699479884790796 -0.6585297107216207
P 8.285138463836557 4.7978854688174515 5.767337981008511 -1.5292253116506567 1.0854889014569693 0.010955470570239196
P 5.331477693459903 1.461510862203873 5.341104406051368 1.3297046210110777 -0.31697768190818315 3.2948761573870415
P 6.2494480975770985 1.239349409442289 9.962778480214492 -1.8269413171157503 -3.228222107702918 -1.5824126943069134
P 8.617978741912982 2.7180616372688293 7.464229531270245 3.0732048987923526 -0.34581748895801084 -3.1111335555173256
Ni 1.3377915293609068 2.362431204629111 2.9278691240878887 -1.391130589527043 0.6339677051115404 -0.034609619654069425
Ni 4.716843300930558 7.259524769514402 10.364251166910838 -0.39961987949044725 -0.3500634087185584 3.0362195798172547
Ni 4.308823882282277 3.8564913249271133 5.990308909799397 -0.7223426914125237 -0.5558874158683458 0.6815475117730326
Ni 9.289588520850558 7.792634712877715 3.7544396606114794 0.021517048136169396 -0.3310318460084041 -0.2796396075793571
Ni 8.133030730994005 4.46640692611742 13.39485849689996 0.70278842342968 -0.5010342154738918 1.9032532016046126
Ni 2.5893492747124114 4.49829422951469 10.959878948794225 -0.8747492021731195 0.448890186480485 -0.04167861068570887
Ni 8.816432760031342 7.207561325810963 1.233667001194537 -0.7962989311850157 0.5602688327654931 0.47778732913080946
Ni 3.1198965077493126 0.6881756680512582 2.2462780139712444 0.2519233726110113 1.3920988669775831 0.18804354323791486
Ni 3.232504458180715 5.989356640685488 0.7434186244528512 -1.3344382790413212 0.599879762288896 -0.28948204759107565
Ni 4.921018498928913 2.56492314639831 3.6868143687803534 -0.03720926206044559 0.17402588880258416 -1.8691783714080907
Ni 8.66415481026674 2.2487168442043868 0.6258734376324464 -0.7318480597997976 0.8501861681217745 0.48995841727570455
Ni 7.565678816811737 1.1932206235668787 5.9848695334903494 0.3889009504110464 0.5318725410109872 0.8503165230520516
Ni 7.564997949123539 5.775441252147634 3.686980803104135 0.3651488422967711 -1.5903982836155512 1.1541502113791091
Ni 1.0036178853950932 0.2582389293899721 0.13120414916530876 -1.0303045429753417 0.8607109789124983 -0.4620514064527914
Ni 7.0983104313422025 7.830451239059708 2.8877452129625576 -1.8425247733763042 1.9428440765233572 -0.7255038627493248
Ni 8.984644904998909 0.7852229548586374 10.134968972910185 -0.6433260063979888 -0.4350589370243475 0.3365540613782139
Ni 4.262609987945842 7.902150389225219 6.1480914856931665 -1.2087270181837249 -1.3614196927261715 -0.5790147459144287
Ni 3.775439700544551 6.344552074524412 7.841066155448628 2.4080769660279238 -0.11705512784449518 1.7308278245199287
Ni 6.608842215493244 8.043676303413694 0.22808972989674087 0.593957740377506 2.4799233585462646 0.9146650645314505
Ni 0.6128102345147156 6.342140668128711 11.330569796437056 -1.0275007549779593 -0.6590745274814972 -0.5373747017761391
Ni 7.076513208824199 2.3865452685861213 11.341421125217709 2.20487265588917 2.6374188537939935 1.3628057744404205
Ni 4.30245020420109 8.8225983952078 12.85927095167126 -0.47660076502187587 -0.9856622216756186 0.8909052431076915
Ni 3.712081179559465 6.492007211497612 3.342905262522876 0.13744423302380845 -0.16756727766143398 -0.9149787391171276
Ni 7.783026913277588 7.801192841458537 10.548689712797556 -0.2775855532638058 0.7724856308155019 -2.689504518745639
P 7.122509603760238 4.924744358222663 11.61157429350158 -1.6889463537947944 0.21969588003587323 -0.761005140979728
P 4.680445249098977 3.8547135037412628 8.49000682296748 -0.7972306989706658 -0.18129362610859098 -0.9144046117812122
P 2.596914471247944 0.5142896256820414 12.354354604496745 -0.4338574605170786 0.6186058779434894 0.7279638942540431
P 8.69034930327102 8.844764421056912 12.19140972761704 0.5960228504366509 0.7803462645105013 0.6527750676260307
P 0.18669202880473956 4.258628803269017 11.934528751005198 1.48103281110583 -0.509304168792168 -1.0507952067295256
P 0.5040690451625369 6.271141298642738 9.177521481971446 -0.7518628123588278 0.16147479161045095 -0.852926192760757
P 3.778465779158764 6.134844826559449 12.081792866765873 -0.7812091267314287 -0.17645789528284447 0.029837395076406675
P 9.359443654360533 8.732232122590863 6.48364104977888 -0.6267696447012044 0.8486352786948869 0.05788298835971322
Ni 2.1557500352783605 4.919675676543856 8.590475469908053 1.058649669776938 -1.3292117405350592 -0.03769057257223832
Ni 9.122104526049537 4.594712659360053 1.84654910507634 -2.4040927845691953 -2.1858922581319256 -0.7122706518885024
Ni 0.1201684187191006 4.692729236973547 7.6069393987165315 -0.8530681176552598 -0.25741987694920826 -0.16811800795858145
Ni 2.1050253925076143 8.183443309407659 3.421685436645645 1.391714487054971 -2.354461494695313 -1.0447646842647298
Ni 2.5703322619212163 8.360932276626924 1.020758729445476 0.563781731014758 -1.5036559478219846 -0.3772371409198729
Ni 7.602275455052376 0.0402875085004119 8.360832983422394 -0.42818586405359804 -0.29487442225124055 0.015907672369191956
Ni 6.74275565066784 5.768197576464861 1.3850645512123163 1.5504705941826784 -1.292208938058465 1.6634440957586318
Ni 5.146007443895653 4.591355603397411 10.640245612569705 -0.2572550692365698 -0.08270518960971564 0.15767881490312843
Ni 6.018208408972876 9.0393129064638 6.611596892681745 -0.5587652516367732 1.2012358520130022 0.7433241787601972
Ni 7.471842010284125 7.9630880473189345 5.312745321188357 1.1491242189194275 0.00128503736001069 -0.4386379126248575
Ni 4.401885256164997 4.319084180083593 1.8416913032509614 1.9180537569525549 0.43970826287090087 -0.2567033104981579
Ni 6.580160664127906 4.979393446696216 8.602710284005145 -0.6071215314529738 -0.979834302139932 -1.0681141576239475
Ni 4.848146743300395 2.0586412812491304 12.026568823355621 -1.3435664665948346 0.17512683517624678 0.11754440877608789
Ni 1.0070411368274217 5.9880232747961 2.48869433480715 2.390212427042677 1.0200327287356883 -2.965382859510351
Ni 2.045146861928874 7.907909395087893 7.105815106305451 0.8478086690285334 0.2857724599499723 -0.6352727970762091
Ni 4.936215087469664 1.4734827857213535 8.073766872633776 0.17016306341306822 0.7776286084690222 0.040355778109227275
Ni 8.675058149773577 0.7039944940070569 3.999029084152217 -0.325163303042769 -0.4076838874455043 -0.6918931166734149
Ni 0.602331491663436 4.001137882686496 4.902664386484144 0.8401303265476693 0.5331987160215785 -0.7410017012746077
Ni 1.720789060467914 0.5593753600851149 4.287591212555737 -0.6247420727482144 2.0774133019922156 2.3081695536073084
Ni 6.109151527825646 6.041859104642084 6.1593986175650866 -0.9403218458676064 -0.9000555421483918 -0.2892372785701212
Ni 8.060877669036362 2.7888813333370837 2.986372680196296 1.5562897719676165 -1.4622750708823524 0.46190742467575935
Ni 8.23020568049292 0.1544217373328583 1.2647041656311264 -0.43230220021481675 -0.7370951671313499 0.6329994276610003
Ni 2.235572315223899 8.976559601201558 10.434353114957785 0.0530490573061796 2.1799833488466587 0.1379700236202914
Ni 0.5932939187521753 8.62368100880164 8.638820858368375 -1.2133976841865166 -0.18441571667734044 0.7552055035788156
P 1.3704448089073993 6.248483535018818 4.337458151169267 2.4929742781929516 -0.27380063230007684 2.5096483964145233
P 2.4629253841079923 2.55425621928321 5.277826265279473 0.4500772648100506 1.363498172521755 -1.262891162930954
P 0.7117526030542456 0.12949063215001064 2.388890479512136 0.044596812773768355 -0.21385227677090266 -0.7455006175862258
P 5.401001849621449 7.140429663053781 4.441981743452886 1.2029199245836444 0.14972433594274212 -0.11880116400132441
P 2.559561313353752 3.179803407815061 1.4554152050953677 1.1950356367395611 0.36551239628377696 -0.48728421287765117
P 4.634675810059004 7.7773341028846 1.4150841967148764 -0.17463164070738313 -0.3957747947127442 -0.34466794873459994
P 6.5996505017025715 0.7006298728478787 2.65231724242635 0.5079198868501317 0.010514269267762538 0.6897675856899799
P 6.212284069596294 6.9491247556615 9.05921315595052 1.0592489939238339 1.578936819943171 -1.238311416709061
