# total energy = -340887.70764228655 ev
CRYSTAL
PRIMVEC
9.11530306235866 0.00000000000000 0.00000000000000
0.00000000000000 9.11530306235866 0.00000000000000
0.00000000000000 0.00000000000000 13.34116742071957
PRIMCOORD
 96 1
Ni 6.65864668936387 2.4800004445985344 11.323062007137501 -0.35350637296183635 -0.09546326060633237 0.8859908365252096
Ni 4.247074823210593 0.8361266761570384 6.126183566010073 1.0768060289709906 0.08947798955717493 -0.48457452725597194
Ni 2.8016612513357457 2.055828942084666 4.667981224245962 -1.162225532188076 -1.0529029971011479 0.05572686124865887
Ni 3.4550188132407302 4.2363552270667775 4.738808950399597 -0.7543346709380879 2.2029065333017352 -0.029205675029678732
Ni 3.7592602762442415 2.861867826616274 2.370458204208494 -0.014613636148116766 -0.35274789752925695 0.6283493304834985
Ni 5.100768511007394 4.6350038816191805 2.4588037193665375 0.01430510376876246 1.7887069562249 0.9996207407382397
Ni 5.795664507969663 2.984660071219453 0.2804204420829049 -1.9976162871682308 -0.16632672038611354 -0.7936977461167427
Ni 5.954845041523617 8.36441154105135 12.319086591182268 -0.8402524539478303 -0.9429348580104211 1.276577402168795
Ni 2.8116880844634644 5.50392924046727 11.419105395546781 -0.09726843213587119 -0.29668730709026325 0.2838778140304208
Ni 0.9210375452036965 0.25945342248256104 -0.05517401658069787 -2.2048130062958284 -0.8783070947277066 -0.11298327176796671
Ni 7.998195134015695 0.33895891694309455 6.848301503383813 0.6244281410522214 -0.4250601739404228 0.6275957401469255
Ni 8.748876784379453 2.5877797854186655 1.4223682632262125 0.38480029797911147 0.8427052863636971 -0.7626794433583576
Ni 0.6208450997232149 0.3840477624578762 4.981271448382096 -0.6904599837713141 0.3600092070773606 -1.0333667268404332
Ni 1.9886947366431684 6.641090616087519 0.22143167126225227 0.6632826520255738 1.1563662451938215 -0.023651577980668942
Ni 7.754032632052905 4.120417690201821 3.6026220006533065 1.042645581039198 -0.7074056104867171 -1.158996740838133
Ni 7.822880514428959 4.138757679522702 12.915210078063952 -0.14409439135047442 0.29293786735016 -1.0430240474245391
Ni 8.429531264564462 7.613775467201809 9.379681263989346 0.7178753996697895 -0.7792018664934129 -0.21496273622626205
Ni 7.1540087070845395 0.9376638575900226 0.06979678540204888 0.1738834496874489 0.04145312493846409 0.802076199988425
Ni 1.9789413626007513 6.85141711389568 9.335828453540127 0.722497214712517 -0.37584925943341074 -1.343247906913151
Ni 0.13561200652210914 5.310766857913195 1.6196179475752606 -0.36613357480754366 -1.4320247566382436 -0.9420226306087971
Ni 6.367139304432561 2.399949855027967 6.8941414498528895 -0.006419016152466365 0.00717440626125216 -0.5091936113562328
Ni 3.8163949944665503 4.813262744024329 0.30209298612332636 -0.29277845895416027 -1.0505242124563263 0.434386079327039
Ni 5.840803487650084 5.958290625998415 5.275711226238122 -0.34111828371012864 0.8225349820634092 -1.31762403569746
Ni 5.643274875034028 3.4788097536619533 9.266734457987303 0.7185300025346529 -0.4242878145507725 0.14679970609677942
P 0.13938209577813132 5.86567914910967 12.83218789976644 -0.590612478054357 1.2324855540559032 -1.274170078278883
P 4.247384743507268 6.711715982518031 12.662435437974734 0.21911121117699683 -0.44163453335933617 -0.4199025409988833
P 2.379467769538891 8.791107982452836 1.2205335815469438 1.5339224600160097 -2.0464675043429787 0.9239320916556732
P 6.331671661068968 8.213553278993404 6.164393092468955 -0.5646929299751178 0.4946051720190966 -2.297300472103289
P 4.742965528496178 1.300945137110109 12.77185917942781 1.4509167084467398 -0.23024691607884218 0.09700103740709747
P 4.090464805058472 6.2972431622295195 8.315909926152008 1.2585853364667485 0.568350324222047 0.887917107013645
P 4.630409768986117 1.3393023314750545 3.7392485403818836 1.1130516415665863 -0.5788908187420546 0.8728676688796903
P 9.304718836465954 5.972328192377221 3.5678817584566147 0.4789486964287623 0.9313867481615057 2.50313219256256
Ni 0.9782634164544394 7.88759916461696 2.7270679935775104 -1.185361861095223 -0.7217140566895894 -0.13992200514033967
Ni 1.9978647313036093 6.43527619318683 5.00321745150782 -0.3443923264757101 0.9491957513184685 -1.195174990530903
Ni 6.422450962086193 6.2232542490498 9.255141615831093 -0.6116878106674175 0.5363835415074634 0.7571402587076832
Ni 8.886754855188427 2.6991049790448716 10.302436132248735 -0.25193571390618547 0.6329045539543487 0.12931363349687405
Ni 2.5943154575573693 5.538813504448888 7.044576761858903 -0.8090567450713162 -0.016386154667507265 0.8184839519224871
Ni 0.6870814478346394 0.319284447285942 9.145823611890998 1.230595793232358 0.12388989137814148 -0.36721292391465143
Ni 1.6674532338367527 1.3417543479399237 11.321194281584892 -0.3861465275943608 0.5202159306086653 0.10168995824233457
Ni 4.270856648328972 7.097849326266473 1.5141156094054058 -0.1176444246890619 1.1990614700695026 0.37287140775200944
Ni 5.452828852727279 8.548312775916553 8.09255219139895 0.3084359629857591 0.34671197574782225 1.7641817173900263
Ni 7.106563555784745 1.1595759053121208 4.8171485976264625 -0.8128617206397033 -0.6710224438719927 -0.7874322248230051
Ni 0.8060106270927936 7.67709036075193 7.136483625837856 0.020381134759513288 -0.26085229966952495 -0.11426136714944192
Ni 5.815827557859221 4.968824502349461 7.451749136100152 -1.1817762006264938 -0.13528682036117348 -1.325592141504601
Ni 1.0225911341817988 7.395992651667763 11.349824536285666 -0.509534025414787 1.3278631969269648 0.9942463638002039
Ni 4.9139139180209375 0.641349061939115 10.690891143631386 -0.550595057121155 0.6154974142214948 -1.6916105308905192
Ni 8.252493852740324 7.437266742942589 5.060465199485387 0.5936926596415775 0.555345684432263 -1.1926457963511459
Ni 7.578927664431566 6.840907169717263 7.135749843958965 -0.2931353280729468 -1.3381157278929083 1.3923210102907182
Ni 2.5410365124378105 5.692069091154644 2.3116243935361784 -0.6047288628510811 -0.07187287488090202 1.5556714216573273
Ni 3.6379264800960036 4.3051757635343 9.42054516663622 -1.6200886115911324 1.6113869700520764 -0.44104677917666624
Ni 1.1125318273374343 3.9039292476715337 3.8068622107529433 0.025137932718208317 -0.31520053540310233 -0.26911916766400745
Ni 1.6920554362110365 1.2585316329798597 2.3745272753977784 -1.215377690731023 1.4574840772516124 1.560288094493732
Ni 1.1217382832092486 3.764310154019474 8.482101039122805 0.5886805511389668 0.16108912613625806 -0.0054324838694809665
Ni 5.488469686844897 3.2744355486105188 4.56302580424671 0.16303879366346113 -0.7460706311570828 0.019657369219611306
Ni 4.183121858461435 7.530005834071143 6.334946789380594 -0.24465177865026255 -1.5692866984479168 -1.0154715917275672
Ni 8.17557892734788 7.435297837528419 0.8287068196425267 1.641599746190031 0.6047250061963391 -1.082243397936478
P 0.0753024283194507 5.722104014023583 8.421184381750777 0.4178780543696867 1.2161104551319895 -0.5396956365998318
P 8.714831128259426 1.891589415452636 8.146103684073525 0.6858335407428963 0.9558883328472956 -0.604650958425294
P 1.8888274786910917 3.44463648330212 10.733489688409355 0.31523961617115387 0.7625506310899771 -0.8245214163658187
P 3.93937866042944 6.243781911053093 3.8669502870965076 1.2690828935639629 0.7678848988186968 0.6206625033622021
P 7.116563043003932 4.543540932888701 10.514480864642874 1.034613968983973 -0.6127584180237771 -0.0783422846553296
P 6.705955111121015 8.461252518459425 10.267602002432758 -0.8584733478312312 -0.42329099785514196 -0.30535423873664186
P 2.3563787074366083 8.708277225515037 5.796630730071062 -0.00971002819891231 -0.24332688919125195 -0.28960648898408187
P 6.913638171104595 4.161627974356744 1.532446483423444 1.440473658736545 0.9935881613909147 1.0756143226557346
Ni 2.8736721437984514 1.910585706578241 0.33627354872543463 -0.9234104148242483 1.1112842652535184 -0.6915447321950606
Ni 1.6167539194218703 1.6128069932906866 7.082718835076745 -0.1282049738137276 0.0458481686823662 -0.31255769846361653
Ni 6.879164095750931 1.4296167520472685 9.159325198462613 -0.1433909375255466 -1.391218778365475 -0.02179986948391084
Ni 2.8443208686427663 1.9837815884105863 9.301675236846549 0.28182813059024364 -1.0794082424805282 -0.7823165008629946
Ni 6.508362691385055 2.1843182509649575 2.5450281035529265 -0.6026809791831169 -0.4807042456672882 0.07122752798741926
Ni 4.360441844673716 7.268606294431519 10.428950155002866 0.23668495839470202 -0.13340734395027348 -0.30412370876365047
Ni 7.435069954957334 6.538898955910381 11.542350670701275 0.5660617852981864 -0.414347415508609 0.5404320005452241
Ni 7.860845750771638 3.9438907353369137 8.013012058787611 0.04117236047325168 0.3350833903699584 0.8089148201768134
Ni 3.1424915399525863 8.938493314127454 12.338285242030995 0.9506461106117499 -1.7997904677325713 0.5168066478168003
Ni 0.5066057437779801 5.145989528413405 10.611377445398293 -1.1915638761408769 -0.21568907286932532 0.12053485886297952
Ni 8.833977251725255 2.712203669230809 5.875983998974111 -0.0780139547816334 -0.08217759924101976 -0.3737694940862466
Ni 3.7946732277907747 2.782892842781225 11.438903833322604 1.1940185083289565 0.8501175196673681 0.5796536650500081
Ni 1.1032433337400296 3.7730973059604933 12.90557793754935 1.126493111783473 0.5204966950738779 -0.3713346593925088
Ni 2.8519594924255194 8.872288869575982 7.91069825355237 0.7656043303146364 -0.25423710834585245 1.3549711088873504
Ni 5.48834207260509 8.158733847693313 3.744905497326486 0.2475141877997221 0.29212154209645175 0.8822498814255386
Ni 3.0649932351781652 8.486866519449325 3.4844995256967914 0.4885013731142039 0.1203764789082443 1.3862097551866577
Ni 3.8913136685362946 3.3414968316292692 7.024671675039814 0.5121812332296469 -0.16552093665536655 0.12189780064877714
Ni 5.342761570893459 4.8050498561624435 11.71483863487628 -0.23496154794569213 0.32570220626537455 -0.023483427833920847
Ni 8.07969505673836 9.284118252039914 2.4021575813766334 -0.065862407020764 -0.15479892225217212 0.301727440617332
Ni 4.324810125858941 0.6030912243751627 1.703400342129908 1.3416409674373473 -0.9678904995144946 -0.731343095138921
Ni 6.277946066110082 6.115866866251934 0.7035865266931486 -0.545336379825377 -0.8144522050552748 -1.4628810798974676
Ni 8.463923302192535 0.4111393540386874 11.098623197467218 -0.903596979642747 -0.6904026481708174 0.7376584958339877
Ni -0.04621823153707652 5.14379274042815 6.112763105633763 1.0214620049830472 0.44106349134721456 -0.38226493315176746
Ni 7.2185632818213605 6.414867030120502 3.141751377361704 -0.6674447538230635 0.4590157049502611 -1.137114853163377
P 8.698058971027608 1.9583863546889284 3.4242510200231835 0.5498743769050466 -0.2799717941077952 2.2781478104342376
P 2.006578960821881 3.7703718304103226 1.6181631452414569 -0.6428380110179768 -1.2467037545378143 -0.6016746494057895
P 4.693278012696911 1.6898951094371555 8.159244304652542 0.7330274248198796 -0.955786774272425 0.6961626905830463
P 8.943087426760519 1.9894877679905427 12.599558078961095 -1.1609726336175812 0.015375454014805775 -0.6445218264783029
P 6.330486671699329 8.130904828112472 1.6856564936149836 -0.34098947144174824 0.2610201927059569 -0.19692516199826085
P 1.8894655498901283 3.6359393440761463 6.350008915798996 -0.9493075943059844 -0.17926888236907834 -2.087215375684302
P 7.106991975018383 4.244814228105434 5.557409633779669 -0.3581466999473251 -0.4438719073302872 3.229437211056941
P 2.749758716945537 8.830950971181252 10.156029784099495 -1.0201653976588108 0.20541365908524623 -0.05921353424567868
