# total energy = -340894.9217641019 ev
CRYSTAL
PRIMVEC
9.05702300786785 0.00000000000000 0.00000000000000
0.00000000000000 9.05702300786785 0.00000000000000
0.00000000000000 0.00000000000000 13.25586866993533
PRIMCOORD
 96 1
Ni 6.4410558544298295 1.9336834610951055 11.635908821912649 -0.6174010590021108 -0.26403661093477754 -0.5169159197011549
Ni 4.339292161059451 0.30754661188176247 6.118432016410086 0.4741638734456091 0.1384004262894907 -0.5561452975154229
Ni 2.502256192076073 1.5595197281628899 4.857758723864079 1.0858552836574524 -0.21055020898086318 -0.35349840254203635
Ni 3.10462067575771 4.272886068644196 4.874805852498012 0.6635251070536831 -0.6604048162571464 0.049299360455760256
Ni 5.2068100492076725 4.406006192255682 2.684552327604889 0.49861326473722506 -0.06555413175172581 -0.0848811142151119
Ni 7.385404468431653 6.1341586310950085 2.6731386672582302 -0.03123556097551395 -1.3714889040367155 -0.675189687875805
Ni 5.02531636591399 4.55426060124986 11.687460490954983 0.7219117745226922 0.5288340112949795 -0.29500092052677584
Ni 5.839488388769542 7.873568949485911 12.437226212067035 -0.40517937585609576 0.4423528995825995 0.11769199009754569
Ni 1.9322615084888324 6.561731628480683 0.38224259742136024 -0.23131495233204033 -0.27059061000321144 -0.42736593925546396
Ni 2.782081973753884 1.438309589756813 0.4533664931016323 -0.2042864874593385 -0.14724322139210125 -0.2119380904673253
Ni 0.4341520188710045 9.227476142186292 4.675874682880393 0.34659139100955794 -1.3017531301034742 1.0353292498834428
Ni 8.798182310436337 2.577701193415281 1.243967613678039 -0.5654598900481295 -1.5562213806235263 0.8831816492111887
Ni 6.606654462411351 0.8432785775738979 4.946705935046803 1.3246894271846734 -0.7875983180872242 -0.06068806190867612
Ni 0.749906104968084 7.306952535466441 2.5940409685552646 0.22516204535676707 -0.10858617114153557 -0.17189881515725236
Ni 7.498028549062271 3.797673130436885 3.8027106466127396 1.224577097842104 0.22313087385935118 0.25536093753765055
Ni 7.547063271421272 3.834345016441982 12.456884480423186 1.2198542384451379 0.15025861117965736 1.6300084418080054
Ni 7.802534718333041 9.028493347537745 7.001034376314665 -0.40579001285690114 -0.12462239866879182 0.03853595129166912
Ni 7.1700284622076 0.5563194846049989 0.3965662792482459 -1.1103866931399133 -0.3220898063237679 1.1879622748325478
Ni 1.942686141927179 6.344517046593741 9.216367703513718 0.3061361112079889 0.0942602414371667 0.27591125088517643
Ni 0.24182341899843762 4.879960204270177 1.2912036112752183 -0.2768571597382135 0.8129895044668191 0.15254200789719535
Ni 6.319872887092663 2.061505226269204 7.119382495462255 0.28181347530222434 0.18915323136232584 -0.8270758073565563
Ni 3.5555155072908584 4.6626550521535375 0.5531359410310815 -0.26011465017255203 -0.6652521170471187 -0.4387204450363347
Ni 6.250070411063698 5.712717238259952 4.789504093060669 -1.2618616932251752 0.48937374841682807 -0.3849059703190403
Ni 5.455035877743528 2.8535962271241586 9.149902740449159 -0.5975950800197772 0.4710890911750274 0.9947796105958545
P 0.4009145559760915 5.615001017437777 12.367261615326907 -0.18341632887854864 -1.0441298788942082 -0.006827307334478564
P 4.2131640591807225 6.3807723095422215 12.612163516432812 -0.840525505103559 -0.7192511969713936 -0.3083806842677915
P 2.3266224026439093 8.37694017210662 1.5005114121094436 0.4072858806761373 1.6054574919415188 0.12840809096346917
P 6.3364925242424155 7.711176527635731 5.851087718087084 0.017913132834994957 0.6717096997470045 0.3046494993601334
P 4.790648900764064 1.0818613937537078 12.597688582322329 -0.728301737209436 -0.7193902936524191 1.2462381277553052
P 4.085242666753955 6.107630610816192 8.014008053359367 0.10193112771886317 1.0394270741019003 1.1698568234810887
P 4.834611690259924 1.1255253014915616 3.790992670294292 -1.078557978665091 -0.8295512654802423 -0.20347401886037217
P 0.19095917799951906 5.407223853485464 3.6461853642424567 0.8601715614692605 0.18887426666932633 0.42241450878745956
Ni 1.361451692834302 1.1894407125900957 2.6325097679175875 0.6214865419253942 -1.0995880598625127 -1.2068981925051023
Ni 2.000442777406186 6.439144822583182 4.722389741449169 -2.0222991346268917 0.4075787293262078 -0.7150109336378009
Ni 6.042809497420668 5.708949516704475 9.051266326093243 -0.8298795953539386 -0.355909068866058 0.8946325713606077
Ni 8.419879518006882 2.2791907733505803 10.39716077057216 1.2457383053007516 0.9599303641271534 -0.5755866940694861
Ni 2.4078004995230593 5.356060730728538 6.974005502665613 -0.946441842722415 -0.7673825052609816 0.13442190125771689
Ni 0.569668630760324 0.09063362885971832 9.085692070401807 -1.4312773369492577 -1.0386436589686563 1.5160802896282664
Ni 1.5027774792565107 1.047671132042362 11.351742914827666 -0.17401766127246807 0.5444154106730044 0.4486089077946403
Ni 4.056069995767929 6.940342359691115 1.5650671547319492 0.5656558081090194 0.23429100424122873 0.6926148253307878
Ni 5.481346529471066 7.981084869161509 8.022106843299046 -0.03383134672714819 0.1379139735713754 -0.07403774374270475
Ni 5.3694288966321 2.8903133982441043 4.877921468399655 -0.9561259027793985 1.0667139348423114 -0.10590862430937244
Ni 0.5549337600906054 7.599476263348041 6.871616763693272 0.1505442607408762 -1.4228150651145173 0.1255773063828934
Ni 5.029355798158561 4.651985879095004 6.742995263390931 -0.16490978543392887 -0.1507401788017662 0.10037252498249165
Ni 8.104033955977805 7.159042293345119 9.197664045378593 0.9404871678008772 0.4578764491394953 -0.6716793607297012
Ni 4.565572822939255 0.45885323761679336 10.402953642463704 -0.07910744495612827 -0.0024978267211892466 0.015082348254419186
Ni 8.264578745142128 7.167374754477421 4.685644493558017 0.11036177498471961 -0.21799818061847617 1.0284147821517966
Ni 7.325274892934535 6.04519149446175 7.016477506180629 -0.19822074088123282 0.6910456810714549 -0.15510694041089418
Ni 2.399975231677072 5.135404480113037 2.5732424210072025 -0.029806798948787377 0.41985960357608987 0.4904880645269294
Ni 2.619771065110433 5.265581071259309 11.353836898538304 -0.8314052879698456 0.01562459391113438 0.8961672628375792
Ni 1.1110431217627028 3.311573650619763 3.63371203220832 -0.9280887941365243 0.5310027368115242 0.560920350306563
Ni 3.6788721601408 2.567104476540506 2.6018490280576088 -0.7207167257733266 0.350526464397906 0.2875022981568855
Ni 1.1376345412023083 3.4145067166725958 8.36059586845515 0.0532575737725599 -0.11219008644271002 -0.466009619769591
Ni 3.5755043569854124 2.8533154594120917 7.284338054812915 -0.5617749849973743 -0.5898673723582164 -0.7296888473649498
Ni 3.890951410003812 6.93143930611171 5.815004538575031 2.268496917608035 0.10002131229066 0.3547145343373246
Ni 0.672765628928912 7.362544542455644 11.202958669989751 0.8703906680941074 -0.3466150451586418 -0.09372005266298053
P 0.2193629077354002 5.612247682454929 8.001759335494883 0.4578623080721082 0.2185741077266042 0.5468764706189871
P 8.444876901403786 1.8301526315262597 8.02231877763654 -0.6449717695315279 -0.29639728665367016 1.074097371790576
P 1.87496678118129 3.289882080606869 10.53914500256428 0.23354487010382358 -0.8209110733067412 -1.5294320283448242
P 4.185358998663151 5.933889739184736 3.740687247612616 -0.6435196104660337 1.2000423459255334 0.5208885311956578
P 6.739050024185246 3.9945275246875074 10.51859824025478 0.5773846665101734 0.10674577549868713 -1.648810147895541
P 6.358292778530948 7.773189963910587 10.221626608392665 -0.1254253541860614 0.5460069235298404 0.021980360925833112
P 2.233869430409236 8.538680488302965 5.816794206313881 0.5445107986002881 -0.41437004121642834 -1.1970020164373127
P 7.1383107677670345 3.9746926443834423 1.464535105468435 -1.2114894114202104 0.5519649408854881 0.27564796992146073
Ni 5.173815314528354 2.9905836995437887 0.6334699233694376 0.6879618999398087 -0.9808522018814849 -0.8669330485628101
Ni 1.262829769715138 0.9634770465142376 7.175123037628164 0.4999312122177003 1.4179605652356935 -1.8859561050870617
Ni 6.7956383037011365 0.8240360265720633 9.348621975729284 0.3623900486047114 -1.2149480593927722 -0.5638948595538547
Ni 2.566370857679945 1.410404901986573 9.172053501526625 1.0197573635871147 0.6402615085400523 0.2073874949821654
Ni 6.587227148140931 2.058380553344591 2.4969949674328618 -0.6572153627855714 -0.8769305260951542 -0.3315740916651193
Ni 4.293182857119726 7.0538630855957525 10.435417635596988 -0.4955942754052432 -0.6516026445844842 -0.6385144439419584
Ni 8.167641428295363 6.893517550936769 0.3277419617000297 0.1375121101472664 1.0969344242897496 0.1536362694026386
Ni 7.620479499615223 3.9514794945116063 8.33750408269111 0.5717493226012669 -0.576044350432195 -0.07086603088294247
Ni 3.1671684763877908 8.315696582784202 12.33001279695863 0.16379058422782114 0.6089799248179513 0.5324507821119604
Ni 0.3082132087723466 4.891498851533821 10.160344979573775 -0.6629103562878197 -0.5338157807802871 0.8473422709150762
Ni 8.568034299748389 2.2569286108905833 5.735642374801344 -0.26569882912854886 0.7010459868172765 -0.047759526772466136
Ni 3.652181113448526 2.7402838127478284 11.656163948082519 -0.38866877979558223 -0.43007793886998835 -0.2706086077253404
Ni 1.0244579821705266 3.312868804904458 12.575392003175047 0.4603845602733297 0.6327664857145876 -0.5753108147002802
Ni 2.7798630031262603 8.04868648860879 7.903135600971126 1.323011011040986 0.9465811965137568 0.08700973052234047
Ni 5.691587203671191 7.9618477523734565 3.7226981885898147 -1.2173468986422518 -0.5637624477410484 -0.2209652336666001
Ni 3.2038584764388265 8.500704390990204 3.5759028659960874 -0.3001305284438573 -0.18876242368181037 0.43874821295047667
Ni 3.640470382748454 4.335714636986343 9.249017365617886 -0.527073319850131 0.2637090523920297 0.48126860281119055
Ni 7.450470121447363 5.997252671882107 11.316150625960582 -0.5567662189288733 0.5270818044905632 0.19988630150911382
Ni 0.6412100551995081 -0.16311064377169232 0.14699276569447092 0.17489209345762138 -0.2502346720546787 0.6370412018305416
Ni 4.705358915456583 0.38664883909621317 1.6773579369172753 0.46454897606366446 -0.4306245554020777 -0.6482198441551804
Ni 6.017549460357636 5.648856169299236 0.5344232258729859 -5.3478945754746604e-05 -0.3282108316198412 -0.36469067171342995
Ni 8.036115340726578 8.78016789174922 11.480881571141587 -1.0038232088553616 0.5638372668430418 -0.7189079546993619
Ni 9.230827240685153 4.86366661994734 5.959348125050808 -0.07307975070480961 -0.9644902155836939 -1.0366981052065114
Ni 7.799337589224669 8.573242087956078 2.747226020854251 0.18325486360001988 1.0032812203089627 -0.5010041335669049
P 8.403142139558518 1.466232391572993 3.468053647875197 -0.08586584672588438 1.6915058869918547 -0.14342487608727558
P 1.846545843101766 3.300170858700668 1.4113124156881562 1.0900166141239938 -0.7420874781396187 0.5909806600270532
P 4.570726269009125 1.0737915862875331 8.132462139675706 0.12774706034070257 -0.3198508896909201 0.8740488336719849
P 8.644493687660225 1.579553862972293 12.539256292929768 0.05081553998997055 0.2473954028336707 -0.9008443565982744
P 6.304331035676325 7.612989341619122 1.470778111401582 -0.24533492076021618 1.0729684003924553 -0.3160888515453266
P 1.634095255296988 2.995347693625952 6.122912525673292 0.231472303845511 1.411917958586039 0.11230501475401948
P 6.9488378472368755 4.064493027129931 5.987370554119657 1.0249509919729123 -1.0699977477999056 0.45092444330169434
P 2.3265227753912407 8.347577303638225 10.243936773074402 0.8370524589532938 0.5148595513927584 -0.6962285108239751
