# total energy = -381177.27818770614 ev
CRYSTAL
PRIMVEC
9.18832223045800 0.00000000000000 0.00000000000000

0.00000000000000 9.18832223045800 0.00000000000000

0.00000000000000 0.00000000000000 13.44803835411962

PRIMCOORD
 96 1
Ni 6.751110708912622 6.334071130966785 2.2739829998109435 -0.22006097668477587 -0.22039367743384625 -1.0644511069500637
Ni 1.7960505715310386 5.117656690905191 2.979197771443017 -0.031444591662526486 0.04390338625116955 -0.050493123653545295
Ni 2.8329619448183765 9.114135903619959 11.354031146089287 -1.0063608876755508 0.559972641681313 -0.4909616617292384
Ni 1.624881313190662 2.3053776598516005 2.483045818638815 0.1970971687997509 -0.34444323431830354 1.0780614986446466
Ni 2.818756798358866 4.617490360036203 12.376942272507053 0.27996896589431786 -0.6929580676028195 0.6328713867235681
Ni 7.529288111208137 2.094303517246247 11.275870681433513 0.1431464256149083 0.2666141418539666 -0.5777939861334501
Ni 7.054132393963203 1.9173088624923327 0.16340972005767485 -0.40573679102146254 0.8926931882460497 0.7879659858392881
Ni 4.141976298216934 8.401425298558605 4.928195320293409 0.5660242471920317 -0.7539826869153079 0.41761451629565494
Ni 0.37654296571708784 0.6644094317700514 11.556854175162531 -0.34208964648446244 -0.6441528731746583 -0.09888257070052649
Ni 8.390895481066625 2.4400417132219667 2.735129281863889 -0.543435049037606 -0.043750148502756915 -1.8027793751575665
Ni 4.1032015776094735 1.6838427781522918 9.399533467438983 -0.5533476801656277 -1.9291534664101422 0.4803594607333598
Ni 0.2590812895792542 3.178305042930087 4.502094218778122 0.9552807811702839 0.798786987714192 0.8058606067315218
Ni 2.2382018346475374 5.965692908551068 0.7286348866454283 0.6113052305170181 -0.61599980777921 -0.5583960412228125
Ni 7.181620367524464 4.470449636367674 11.038002471822612 0.9776095265744713 0.979378445549436 -1.5063172967042318
Ni 4.89314922092351 2.7064846867231873 1.2486535069325402 -0.9150036788177919 0.11639846809710275 -0.34879199820530254
Ni 0.5316749261076391 7.7126502733983004 0.7950094901345695 -0.13111057749629676 -0.09969632485107346 -1.0948508022878436
Ni 1.2511922404168627 8.065491042603774 9.893184358880779 -0.044984535130490264 -0.030336703310328398 -0.5481792485908108
Ni 0.8148976140101262 3.842097019433593 9.558757906634881 -0.713811514013061 -0.3535881340423652 0.7901714781310392
Ni 6.184062579156973 3.9431042477837863 7.180096024835179 0.665340562995867 -0.1612217950593804 0.8080177622838407
Ni 6.2507973648849315 3.0297666227072875 3.8028628827051905 1.5825754451370229 0.5331912598224107 -0.2887204868347028
Ni 4.322903554966108 0.5933000857384874 7.151922790634564 0.034725576406643414 -0.34597715446432675 -0.7488379094895748
Ni 4.8282337230344785 5.421165357043971 11.456545259316167 -0.08360121906142376 1.4177782740215583 -2.503176929757566
Ni 4.889207430605832 3.97495097328745 5.342031849044043 -1.2513433101923546 -0.1683488930224649 0.12936736955294495
Ni 6.9535110751546005 8.13996239580839 3.8174144289198906 -1.0011464333541467 0.14768647957710695 -1.8870699069765307
P 5.740928165541659 1.817808519018827 5.931768703348508 -0.43061427098943256 0.8320488350911155 -0.07807463281623973
Ni 1.958270403835475 7.61648529096283 2.3921779040778 2.594747797288028 -1.3811171711550987 1.9350351220018998
P 8.478882856549337 1.1133857807792567 9.387846840154474 0.059682503462297205 -0.13543491590326354 0.3291865652695492
Ni 5.08862159206169 6.1640871662184376 6.450593760553414 -0.2010949771052343 0.10564354357344385 1.4132850141368951
P 3.1776251070710932 8.813916656907121 8.848002576584253 -0.11281974960690891 0.446494946775431 1.6911559598516037
P 3.7727159968490103 3.0109121851038494 11.198625373690655 0.04206041950515982 -0.5621850759515995 0.0582856231147706
P 5.683446020489461 7.610081030236906 12.925770877738406 -1.320227791868894 0.49349882632879527 -0.01978618148799173
Ni 6.560241687306275 5.5197101149859185 8.962700405338504 0.08999709528543855 1.3054606608620487 -0.3827346736993344
Ni 7.212695273944945 -0.06625423646545452 12.431353680206879 -0.7447889362311818 1.0087314447902564 -1.8429016970997485
Ni 7.570644750415289 4.978196333232197 5.319290751057439 0.856955368524808 -0.7648669379279794 0.595699148548645
Ni 6.661634825198059 4.173262536053048 1.1717490859514204 1.199250189041541 0.2333672068753787 0.48890143676609993
Ni 0.3670541851551626 5.140048632639879 11.92234542667425 0.6347698892978617 -0.3796431792582042 0.12742515822490957
Ni 6.2396059881787975 8.290816273280734 6.146479583967233 0.702186785289939 0.3911519512287522 -0.2926776717102379
Ni 2.9383244379950955 3.953220590766918 8.942932648486634 0.5856741602124752 -1.5860446346325459 1.223386934188745
Ni 3.951539127764272 2.8693477015969417 7.293920044127399 0.16135600664439953 0.006145707886421674 -1.140437746889023
Ni 4.847033030703404 1.021704699684175 11.98073629681367 1.5402049505906121 0.44675642796693377 -0.3639293680673732
Ni 0.563690716743809 7.327549304180315 7.45215030683758 0.7658938365305971 -0.6122377696336165 -0.3917325063225705
Ni 7.450920909297939 8.121475491101704 0.9374560525936846 -0.6134320470520339 -0.46066043964253567 1.6677108414547859
Ni 6.322990014129675 0.29466582464289737 10.128067282537804 0.6117803703812238 -0.022768404044767238 -0.4602210381122719
Ni 9.048632353096123 5.511459001453808 1.0840787075921579 -1.0939398604378 -0.5275651718848849 0.29525288863658183
Ni 5.792171439671472 5.95217688627297 4.378735477311883 0.36137420574568735 2.0653620272546367 -1.1392604387514702
Ni -0.2480203870514671 6.501914216591545 3.359212085369939 0.2198761143674794 0.08472324848100891 0.006059061709886339
Ni 1.6344647334735014 0.43573597640367184 7.158444661887449 0.5625265184514183 -0.2874017680232792 0.09264764553440819
Ni 3.057359154931033 0.4856506191117217 3.2618213807237963 -0.6842777662200021 -0.7999537543287835 -1.4470698238968238
Ni 0.23987402039493277 -0.19502122450741616 2.96546766125256 -1.6125161985605134 1.2600809471756687 1.5330462280586437
Ni 4.749177396942868 5.101770081443035 2.6505948779461725 -2.123999120171555 -1.296294163871432 -0.911652760067688
Ni 5.270724954080473 0.9229486103265945 3.600698656349376 1.1580639446112186 -0.8497758200572333 0.2992620097959749
Ni 0.9700387627230962 3.44668675246168 0.5447655290577457 -0.23349447648186236 0.2542283665951041 -0.8630861640128942
Ni 8.896923961638826 5.969552003966976 9.640616671064233 0.13159960131757337 -0.2166259828612979 0.7575824884514243
Ni 4.501055938344794 7.621125393784339 2.604791090688307 0.15555482658159017 -0.14762374465997155 0.13613862683850744
Ni 1.6665871086497295 1.5165050502605673 9.533784965132744 -0.8872067112101817 -0.39543360932324156 -0.5127561318965105
Ni 4.774739309912053 5.707142704007622 0.26233119921879416 -0.1423817795347419 0.5402072861289278 1.0438802247772474
P 0.33358572074457576 1.0574380855710033 5.464839291165152 1.7326782474651061 0.2328388451757345 0.057047636942611425
Ni 2.479275849950369 5.923031527560443 10.489120574321229 -0.9252898912351485 0.7713047231335233 0.2102930986647346
P 3.574211479312616 6.055692526643504 4.58986934401296 -0.613428447507608 -0.024706758718060676 -0.14630296896601902
Ni 2.8359849028941717 1.5053136735544328 5.257187798660812 -0.5449352877322163 -0.013837934324356814 0.7706213239132534
P 2.9612125491404 3.75403613737153 1.5970489657517855 0.515324663954635 0.9902855793802429 -0.6580296311567506
P 1.7917596249614454 0.3323204887475029 1.4256270285448913 1.8425671965784653 0.672456605215358 -0.5514422356127986
P 7.186444236794349 0.7781351360123889 2.160682714896598 -0.743383571243223 -0.8399233527431857 0.4765166899485019
Ni 5.594613319344217 3.6101929499047527 12.435777857451546 -0.49402333137369764 -1.7961377014713324 0.8155706349304341
Ni 3.4186348041169934 8.172865778390218 0.13071858772372105 0.08457952381429304 -0.5176168024229214 0.18617049458491808
Ni 2.5054625688440337 3.795539789737383 4.770665207751544 -0.6925328071399428 0.8524597946472997 1.5750469979704618
Ni 8.679629324755926 7.387273399902707 12.229390678112036 1.7399169313053904 1.221902122113102 -1.6320673812195636
Ni 3.1287891734150137 7.6577592352682124 7.089267620060565 -0.17398989335832615 -0.9933896722268633 -0.33315840543310365
Ni 0.7963978456520546 5.6221507216334485 5.470258563727778 0.17791545366497746 -0.4931980072589248 -0.5248122917300961
Ni 5.403551342967074 7.745893623909626 8.217195758732103 0.2293642563635727 0.591838122931342 1.720439025086437
Ni 7.873234584312185 3.4489654564215497 8.972639413698952 -0.960371822539946 -1.7910026942376123 0.17588916726356804
Ni 2.9452248681316364 5.181304200300424 6.708016557936069 -0.40639782164422905 -0.3732413894969185 -0.3509290991529634
Ni 7.448936231655472 0.9131915307500394 4.962715847620952 -0.6963357258258007 -1.2141340481319092 -2.157190262211543
Ni 1.5103764392072079 2.765804496259151 11.67526408617399 0.18523898390958418 -0.09226403694274433 -0.6770390823797179
Ni 3.956151665618524 2.868520752579247 3.4311189777874573 -0.4557702014297699 -0.823352335758382 -1.1740934872702553
Ni 8.070232216971892 2.5854285388551075 6.2405358464075835 -0.711357910266246 1.9788927426167982 2.177114511939296
Ni 6.766041732843219 7.126113711792313 10.884586890059897 0.39844257135289446 -0.2094582614682651 -1.4898162137254147
Ni 1.9023686502393158 7.5794563516149465 4.7582527029959465 -0.13121830671875465 0.37670749366864803 0.24062877353379847
Ni 4.127072839253592 5.796214301535757 8.73915403388183 0.8201266297322327 1.063022087813021 0.43433131482970355
Ni 4.6686325626194085 7.900680103377229 10.701761325898994 -1.1310642760939231 -0.425880355848873 -0.28239017374130077
Ni 8.625877638605774 7.8125273380909785 5.307577477637916 0.6556706440062707 0.059417936947000906 0.8230137214720407
Ni 1.1433397118646411 2.829975740032257 7.033996185382337 0.8245257872411929 0.4143936953655121 -0.0372488570491294
Ni 5.129638263339346 0.3719460480109474 1.1806001969374789 0.6851467990885167 -0.3345056634896174 -0.5504816714717423
Ni 8.838440289442977 4.856689957565594 7.357246881070213 -0.4669457584306151 -0.04625954518817194 0.4213017353392551
Ni 2.9886764448502814 1.4710504192546172 13.169663870359335 -1.1726904362751418 0.5336720561135712 1.7510503222143907
Ni 8.379795987584679 0.22755615536024984 7.182315004699327 0.3847781864919244 0.6112676924108633 0.11837178977338969
Ni 5.415964766554913 3.476897956574792 9.600743027095481 0.5447990192646682 1.0683206172077988 0.2785507453905525
Ni 6.558909380555544 1.465509860836063 8.010754368290323 -0.653973458809506 0.5373569611643262 0.2066886691429279
P 7.257929385212844 6.455118090512445 6.983566077786591 0.21660155738126566 0.7509369581104487 0.43179183623730155
Ni 7.148643478363284 5.9894171570364865 12.827061648825163 -1.0193498437360509 -1.8859432495712551 2.2898879816893016
P 8.085291877416353 3.842951533418544 12.881768920506873 0.25705478030030565 -0.861710109600974 0.9250867740854068
Ni 8.037916887024869 7.966946284661828 8.901713834115764 -1.5149508040095137 0.6267076811150174 0.8801040387271294
P 1.4991391208889793 5.524506419288548 8.361022407218528 0.6470618192913372 0.7414650140642713 0.1415186602034982
P 1.6196347810895106 7.514228450763676 12.283613725202276 0.6649682672581129 -0.6185122897884187 -0.9877671838337633
P 7.7558353887667995 4.635324893851151 3.219514668978537 0.48102383379023606 -0.43622133276356484 -1.1678775882675305
Ni 9.107575441412914 0.7777253368325092 0.6492542127724338 -0.5821329798284361 1.2953793653666466 -0.5945961452924533
