# total energy = -340859.2145974789 ev
CRYSTAL
PRIMVEC
9.40838010940656 0.00000000000000 0.00000000000000

0.00000000000000 9.40838010940656 0.00000000000000

0.00000000000000 0.00000000000000 13.77011530375369

PRIMCOORD
 96 1
Ni 3.3134339416361445 3.3152121254999445 10.079751895865352 1.7890144601629898 -1.3490190050689734 1.6292024009669424
Ni 7.26437031939518 7.319578694595067 12.766287586737807 1.676400398808984 -0.7628779325224088 -0.8409219692110291
Ni 1.174372837287024 6.5040885212480015 0.9318539608913253 0.9922799841024523 -0.3500117295450166 0.030758878449411546
Ni 2.1446590905870093 1.080778270741613 12.073541023570149 1.2927766376364767 -0.9066568495149933 0.45226913025504695
Ni 7.698331857584473 8.308615849696922 9.736848424910992 -0.2660580122401805 0.7152387333778908 -0.17108968899239566
Ni 2.0561356409865095 4.4801107238936 13.617762932795255 -0.6832686082291974 1.307439381854974 -0.37399960781918173
Ni 3.899820647959958 6.493061899616394 13.169545816878818 0.5508287703985159 0.05533939600225308 -0.5938407551836675
Ni 0.9704085622429981 6.2514735120256155 5.49526742419483 -0.7489312405343295 -0.5556251633458946 0.5104886760185725
Ni 2.6810026224581653 9.023069427735264 2.8082914211275285 0.09393525399758015 -0.0605016569294829 1.4394940684320952
Ni 4.960925995636989 4.079332542781676 3.4348453251747366 0.8082532753334144 0.06877572401281704 -1.2557046724848437
Ni 2.840625201469971 4.966072379623755 1.9781185295908006 1.0101987733644022 -0.24387556260587032 0.5749179501372357
Ni 0.5930017384647543 0.061040630105546154 10.321940538114916 -0.0853840219934594 -0.10614722268273978 1.8397271560265092
Ni 0.28839602008173937 5.09234225071402 10.959690414637903 0.2579389826774719 -0.056867402611005285 0.4524059129432273
Ni 7.983669213252872 1.5309880815911319 6.159262918212294 0.07739457603007961 0.7495573041541027 0.3300108609430575
Ni 8.133271867317868 5.463295866491309 4.487763500374102 1.9826756066979987 -2.176565581414361 -2.0879458260924233
Ni 2.1427962313011237 5.067475901761515 9.657133100883451 -0.05260399934896101 1.7002031576555363 -1.518035356472108
Ni 8.388709390609778 6.765359240283593 0.9074627351405233 -1.2594057754855148 0.846216384840749 1.2176441181676965
Ni 5.655800734413069 7.745063282195556 7.643681399332329 1.1823138182975188 -1.2018179497687171 3.943112199492138
Ni 2.1376780724550537 8.893638340887133 8.717309301097814 0.051251856196440765 -0.4956359272764561 -0.7720595990216769
Ni 1.7773371095791743 4.250273403212272 7.094473789170307 -0.1127565004691413 1.3001397628697673 -0.9619504798809756
Ni 4.14821129445829 8.203270216242059 9.821506911912289 -2.3773563970156153 0.7419861766750641 -2.8954005167839423
Ni 6.076835158163942 8.218050781586133 3.5531575882649915 0.6584872875194595 0.6880282344013698 -0.18508651749211996
Ni 6.975335470295705 3.3002998428326267 8.554560317335 1.879412647541589 0.4943503756958131 1.291693174764311
Ni 1.3574034663154144 1.7518874410523009 2.6298577266803695 0.3128991409634353 1.0372904873748716 -0.14090159544478958
P 4.305500595172622 -0.02917726877469131 4.623123748444281 -0.7301290202261619 0.120005982942703 0.32703840857829486
P 3.7202711196173137 8.635858130917518 11.869619086237167 -0.024893935028202287 0.635142442145932 0.6671488198491994
P 3.241309298779578 7.079570914883221 1.4035054702889942 0.19268489866466815 -1.1928849089451454 2.0702730914030085
P 6.343656821536264 5.474209587560136 8.89731231336763 -2.2122524932930094 -1.007035545145072 -0.8715126975136926
P 5.8181141101711535 6.279924453846416 2.7391097196074523 -0.4521860836229374 -1.0995116980986226 -0.6431730257598923
P 0.9773143133330998 5.614290960830604 3.1114811782856657 -1.9383611010513393 1.385452308195343 -1.1200316724288453
P 2.233530650256084 1.5428896825842908 9.503954321492367 -0.5501661971138525 -0.9861833842864113 0.8329273810413268
P 7.341283827789704 3.6678382165857917 3.345711271697196 -1.586826764214209 -0.9562806831897079 -0.6363110085327364
Ni 5.5724424855597965 7.702386869464355 1.118192576409198 0.10779170026469823 -0.32356279132486854 0.49935785621273354
Ni 5.577184309196597 7.5632463342170615 11.1139699745161 2.6475047772750853 -1.737773916820459 2.0147755725563363
Ni 5.840647180826186 8.966101685432042 12.965982338832665 -0.8710743244246932 2.121631905490959 -1.3933293969505745
Ni 8.656631834469213 4.487750328641778 1.707039574163613 -0.007817182051573635 0.5967265613718948 1.0053561005601201
Ni 4.641229235362254 4.084516560289368 8.064027129650238 0.08236631821305815 0.6285830437608594 1.3893398161752073
Ni 9.29131175652258 1.717998455457551 12.0801645232533 -1.0780100765814207 -1.039824566650635 0.7187763142175041
Ni 8.482661475603996 0.7415515947818183 0.27799505573554395 -0.8979053285746085 -0.21228107562904086 1.214869640746353
Ni 7.453158877125398 5.664080109017005 10.568646143713742 0.3279436940013836 1.0163876757839334 1.8002334688072608
Ni 8.973336729830255 2.805701294049729 4.381168434024464 0.7968725443002985 -0.5374801170057518 0.461079015237193
Ni 4.33426201354107 3.260276593326778 5.5715129375929004 0.12668802294856893 -0.07751644631992456 0.30945694805110574
Ni 0.8109289906107147 8.594771734445482 13.395347883278752 0.11447579715309317 -0.623463720256423 -0.7775877279287576
Ni 5.8405625054041 2.0481197010290617 7.14531291259057 -1.6204930461184028 -0.8543667818620254 -0.21436392629999854
Ni 0.817008685916469 1.9200246041738374 6.905244919245241 0.5484330164728297 0.5018978490257678 -0.23876138130775654
Ni 5.720154055198212 5.685474765663996 4.799973071660414 -1.0129331415764296 1.585105153537412 0.2939619377393002
Ni 2.7172248863503876 6.588688676291863 3.970777710829765 1.4984162966896 0.6088382570337644 -0.36568388886463477
Ni 0.5522709787654787 7.000728688541187 9.987919518937346 -1.2890364538677543 1.7925841797921191 -3.0872168968007285
Ni 8.456167476871398 8.750433385379724 4.577833687684701 -1.1500816977366903 0.2642440989598933 -0.2906572988460995
Ni 6.0478008967687735 8.93559971672072 5.850729201082525 2.0839451895734626 1.6683708436362878 -1.155781576334945
Ni 2.19320633258282 7.019818292031401 11.447000291255266 0.5673090274417263 0.7802544761276433 0.7677321752909164
Ni 4.684347841964346 1.2761903281549811 2.8603837407946613 -0.10564842866945032 -0.922076012283541 0.1460260611555485
Ni 3.178630669675685 2.778520483560214 0.6898638354646509 0.3502904371276999 -2.1690638737206775 1.0864952312342966
Ni 8.625555954563756 4.187096129956097 12.637344794823703 -1.1337179116666862 -0.47417724318204785 1.9640937299307528
Ni 1.4866087520379851 8.447050756426835 6.267909011452453 0.6038953112061923 1.7453779544199617 -1.2001487895964105
Ni 3.0759476078264067 2.5638400634322296 7.8460744748776525 -0.49396753843509766 -1.696381212806285 -0.9899585350581273
P 3.269901366303855 2.9059664021794482 3.0933879222619947 -0.7395927367422229 -0.239898066015361 -0.653529686403868
P 0.8623401435490686 0.4982123076299113 4.3182527137387305 0.41516116965915595 0.23489187105002127 1.0547073972997383
P 7.809999922555069 0.1271608446982121 11.661580041714771 -0.34275967596829354 -1.0209665534038674 0.34956821424969475
P 5.231576869763632 0.8856550506013589 0.6457940416211286 0.3811840413827629 1.6564391251957085 1.380345840206713
P 6.123811200661052 5.45720864448137 12.684754563649495 0.38523481441336876 -0.05674141855610228 -3.0226284713963816
P 7.361737646413521 6.850533306521591 5.630669069138028 -0.7436833618718289 3.3324628573915636 2.745483348104104
P 8.579445483047968 3.7166206680873963 6.98745252319617 0.4614780504478246 -0.8865323108509764 -0.8552229592147336
P 8.06561620507138 8.637401105275524 2.131558861952326 -0.5129654196938391 0.3493429856127661 0.4599996661300852
Ni 3.904553063216526 0.3629292082776328 7.221310044750523 -0.2640965176384355 -1.2466726441895626 -2.2962080103700586
Ni 6.183432106189627 1.8605824578696646 4.812394015242366 -0.36292303829004596 0.34418406711964594 -1.483692360215864
Ni 6.573738760103618 1.4368101954713524 10.241909092511591 1.4930588890324286 -1.747614042839332 -0.9185898535071535
Ni 6.396776536324704 4.799017180228868 6.799366771469263 1.531685086045059 -0.10424074968864629 -0.8646180272763883
Ni 3.408439765216318 8.950784842414759 0.6445286144799588 0.5149400269217067 1.8093637132433036 -2.697108813455458
Ni 8.467325815826248 8.838213572941914 6.886269157155833 0.5776698018507599 -1.807655986523577 1.413365232555527
Ni 2.7216374166790764 1.6410190884014035 5.469200565924754 -0.6189252089561212 -1.1317695296910637 -1.3483353487383876
Ni 6.0633529492918505 3.6153300465124167 10.836364425722149 -0.813982721618024 1.9492376387545267 -1.318851737456974
Ni 3.269637931657366 6.448729611964406 8.03552350090014 -0.6157740649216492 0.5808499993509545 -0.9282073219922595
Ni 6.847532033227664 2.4584191629355137 12.523424363625626 0.9529025107460943 -2.091535600326211 1.6362197128250402
Ni 9.005964992473949 1.2653330573675463 8.761800590375719 -1.5381920339256414 0.6795572208158812 -0.19733499584216982
Ni 4.653488354804219 1.483983813953328 11.504765864202142 -0.8461677909910008 -0.5517523106540497 0.9022836601479621
Ni 5.565837802637111 5.100471091234249 0.7827207849998933 -0.4376045862643367 0.4926742735449708 2.590896284752422
Ni 1.3991766745443674 3.2892544044405567 11.84644436405033 1.3082886172291468 0.16852527069932913 -1.3113536293077157
Ni 4.768138876308279 3.5010746769780905 12.785317917432561 -0.9294779611745669 1.2156224597519776 0.4019942932598948
Ni 7.28177582282391 1.384292617017745 2.628068252760291 0.49514484657265045 -0.4208759606557462 -0.03288029566778853
Ni 0.16607484617473753 4.06098620132977 8.894502971030429 -1.0750209120461098 -1.0865397113189867 -0.1196362583081101
Ni 1.8062678787917938 4.097951727260301 4.112638208802057 0.44996542182253474 -1.6151322960271217 2.061224093826863
Ni 0.6559400388630436 7.804251402233472 3.234421423611917 -0.3917541035891253 -0.6025513955837881 -0.8301670446873703
Ni 4.5679097282162555 0.9872589712380556 9.181018255903844 -0.37225022922824275 1.0409334834440978 0.7672927737606527
Ni 7.995834248892519 6.242704901649628 8.115073237435602 2.636806417020975 1.4131960539675144 -1.3118904756477923
Ni 4.591891689426976 5.809561892540497 9.88544155977712 -0.9872642760554157 -0.7377281727296585 1.2784139411569013
Ni 5.7135870057964535 2.920210689850312 1.5028015152548435 0.5089305875028332 -0.7901326544733037 -0.9957617720034657
Ni 4.2525690479888185 7.566050031526121 5.996224156338341 -2.666456121566608 -1.1986166692226001 -1.8005165472653186
P 9.40041133368991 6.464196989065397 12.657751571546358 0.3779220828020394 0.11417883473796464 0.2572586687809957
P 6.784655828138905 0.27767328913161826 7.911950071584293 -0.13488932781243865 0.08260414525547709 1.3587568011820277
P 9.247280537038009 2.829655030119755 0.6004512939322509 -0.1973501653508214 -0.9237737117009381 -1.2380589343786226
P 2.916315620434369 4.974361162607923 11.673629354277567 0.789681168758182 -0.8135302074616377 0.26636397351637353
P 8.263643792189175 2.795088641148319 10.57364481613087 0.35928981241283287 1.7522068044163372 -1.0025651680785443
P 1.0675877216567047 7.112679004918736 7.801321632629306 -0.6689640186810671 -0.9629357266123804 0.4778690902113383
P 3.9208577861581424 5.142423058687606 6.328291054941777 -0.5279454380424391 1.823701212911898 -0.22140103565243804
P 1.6266807169282225 0.9275543311254174 0.6310059495728699 0.22528365853629587 0.017521810933847245 -0.45269619049013654
