# total energy = -340890.26228401135 ev
CRYSTAL
PRIMVEC
9.06067687537681 0.00000000000000 0.00000000000000
0.00000000000000 9.06067687537681 0.00000000000000
0.00000000000000 0.00000000000000 13.26121647436576
PRIMCOORD
 96 1
Ni 6.3402811731424915 2.042276581941639 11.60286187345778 0.5424526305196787 -0.6259204093270317 -0.4520166479246086
Ni 4.898337863116145 0.07083093589915959 5.726670385241496 -0.8706462357483392 1.136668766764894 1.0498104742187533
Ni 2.638405699757461 1.769405235261274 4.3128523224999995 0.8678553032667633 0.17264777750813493 0.8960626189389148
Ni 3.3285484014873314 4.140457540593926 4.844840002200369 -0.1253217387286616 1.3068161464486783 -0.0767512860191259
Ni 5.1966062872551735 4.065725077205041 3.1064005364441694 0.24932270176337062 1.0868263893214702 -0.08701641539055982
Ni 7.098578286803884 5.897540255218817 2.668090289543429 -0.1747262573037184 -0.2096536653085228 -1.2847879630040453
Ni 5.236183324122615 4.488668416018057 11.558450059375948 -0.30157188887607417 -0.5330678468706691 -1.0979358689710703
Ni 5.577055051226547 7.656290134400396 12.294394483030018 -0.9679846018901973 0.6419473808829074 0.2363016069133543
Ni 1.8585351143054614 6.550697273685662 0.24779411111763325 0.5347927999815758 0.9405614726822382 1.8140603473880241
Ni 2.5579559492203727 1.398171179736372 0.2021835694768346 0.82757100182542 1.2162019864045313 1.1352816566093804
Ni 0.6847805931176559 0.25217857268818145 4.865394147835394 -0.6339767039726049 -1.0214283235316344 -0.24924479733758365
Ni 8.433215999847377 2.4766273130202476 1.617815579741422 1.5237342066290986 -0.026257133924316074 -0.7013534907553662
Ni 7.0435709171101495 0.5200022162460994 4.769157979868328 0.26972851911323226 0.7307044331136577 -0.1594690740343318
Ni 0.6103951536555163 7.561805395285544 2.357738546639196 1.6719873573429527 -1.0691014612378815 0.7139045879474996
Ni 7.778518666300984 4.087035789364432 4.066950080727128 -1.4598057834062537 -1.3452060590807866 -0.7427629069400885
Ni 7.865510225587682 3.658801015219322 12.63418617744288 -1.1455241602729949 2.038189837715219 0.10758704045305988
Ni 7.9554193228485826 8.968430186605552 7.074541216953693 0.5187349751877647 -0.24666803774934293 -0.47186427877815507
Ni 6.822707856056868 0.2109198741809523 0.31088541677591197 -0.1455493786294461 1.9547765662948848 0.030990020623611142
Ni 1.8386016250407249 6.562956369583476 9.15545071322578 0.7122482832909991 0.7354015814790109 0.9915551901212859
Ni 0.15167029554460462 4.9671084010794875 1.3032488099253907 -0.015518407350573273 -0.8760722918599171 0.4996473624286943
Ni 6.428305649600181 1.9844513417200265 7.1390695459744204 0.6805049294411313 0.40108437985111567 -0.043800542124718116
Ni 3.525473154069051 4.2003667365113975 0.08349595012381808 -0.9327455761822453 -0.18096555334521092 1.597371629609591
Ni 5.938231755349695 5.90070243147036 4.809313087924445 -0.016519594921578 -1.1341927944205756 0.5076830882489772
Ni 5.2272223146304215 2.6646454201714054 9.52871436038491 -0.26684991201385655 -0.50652069250976 -0.9669358489107088
P 0.10601716872219492 5.604264264072913 12.398959225238968 0.8362379334717985 -0.34157594007283754 -0.2287777877324834
P 3.9794221293656706 6.123413870619097 12.457679660342109 1.5508598592012968 1.3290988691062786 1.7332791142738986
P 2.372728530566278 8.430035702241957 1.3648840647996499 0.32636452243972175 0.4504331054875726 0.2452351619575583
P 6.590111218368209 7.68002004730237 5.8187033051767845 -0.33427452131541785 0.7023816749095645 0.485924356415647
P 4.712059405937183 1.1743543380011352 12.647089487471021 0.28658647121083547 -2.3902533075829413 1.1540936471095606
P 3.8697245136710507 6.451664074747677 8.217087142494472 -0.3561931757653801 -1.469495499890192 -0.36770529017003767
P 4.742276763527137 1.1356108834120382 3.761769266151707 -0.6634428317525219 -0.0666260246596659 0.01685460966349355
P 0.13248521819498957 5.7164626266025635 3.4994228018031217 1.4174234617853008 -0.6691203417532735 0.30378638002888975
Ni 1.2954049818997169 1.1362270094438576 2.4234873488435418 0.6728170738785703 -0.4921050313050622 0.04883321945261912
Ni 1.8244941510474544 6.322594731758508 4.903706314202217 0.6456731664739267 0.9823580970030502 -1.0555589466667563
Ni 5.918316387438836 5.733415153154528 9.323258074397883 1.001440824666114 -0.996796126805251 -0.5452469054353642
Ni 8.363340059297537 2.1837862343673917 10.392072741351482 -0.0069823448551041035 0.4984070622636901 -0.9362381627165359
Ni 2.484437616541249 5.144598001628089 7.08660822650041 -1.3086976797421075 -0.29968675603821937 -0.12070326612004374
Ni 0.4176981129333086 0.0734567200759417 9.204424578146156 0.6658007904617372 -1.696778962465336 0.7464804650009917
Ni 1.283607980525768 1.2716388262899878 11.256319974725724 0.2683771472916604 -0.2911776901259437 0.1878334841096378
Ni 4.212435558193501 7.08785044530868 1.5521329204787273 -0.4475436997549196 -1.3642890438541666 -0.6762160722577902
Ni 5.477124845271647 7.844090785305029 7.8693519526096125 1.1606041945345689 0.48904001922649326 0.28623834384279734
Ni 5.072185071535464 2.687387719287082 5.34133972853565 0.43001288996000786 -0.21251658867861464 -0.5063276026623473
Ni 0.6503898877298224 7.26138053003515 7.0482969662012795 0.47608500172772206 0.40574347588968185 -0.2424539996679953
Ni 4.9548221231508585 4.787018386249532 7.163337663086543 1.3807924408258285 0.24745813775080608 -0.6212127194387173
Ni 8.37767405021427 6.9473555887000416 9.606558260234479 0.35980943236172874 -0.1486321313198279 -1.5025344326230317
Ni 4.829531082445051 0.32710674669893824 10.552865326437784 -0.5842047747558003 -0.2576625890876336 -0.41699462332346887
Ni 8.08228692134169 7.349069761446113 4.248562289282756 0.254220139064988 1.1917451389137474 0.9750129694918884
Ni 7.426438881824106 6.206509338822233 7.217005864728765 -0.38338824812293326 0.014998016070729007 -0.3019572972399509
Ni 2.4937610531109824 5.06463752764568 2.5829797267891674 0.17988029070083214 0.44202251282637417 -0.7610763605372958
Ni 2.2853383014942854 5.3253222638437405 11.705834654728633 -1.913955161403149 -0.24507961021630048 -3.5094964226722203
Ni 1.0089426198115763 3.625820151163122 3.7463334969192497 0.20069517056365435 -0.917655257508026 0.07379297472175034
Ni 3.7601809294843846 2.5172916311203104 2.145266578498676 -0.6463532232600869 0.3120972138874303 0.2622422380385161
Ni 1.2150367774550745 3.211266999195173 8.396166891845784 -0.5187524586892615 1.6856645977197289 -0.8083090682720145
Ni 3.6480822344010573 2.9505732023201734 7.480625354187211 -0.3792032635073082 -0.299428103060194 -0.5056069224462388
Ni 4.007202164859162 6.91701138163295 6.044661184872592 -0.3229508687724825 -0.24393804041268957 -0.5864503762568675
Ni 0.8293971516656254 7.582826165782903 11.361520776455759 0.5312135672707495 -0.10944543381803733 0.12360449892723874
P 0.4004402415685161 5.33314162804168 8.221596641406771 -0.7225653489462911 0.9547063967240527 -1.418141570898248
P 8.740028642339427 1.7274271190051262 8.258037777985791 -2.1372215323991 0.2267111350114418 -1.792993756525712
P 2.086927597894649 3.6462157349517232 10.385455728983283 -1.4635909614802987 -1.7340661289515682 0.21735206239404503
P 4.0764710400541215 6.161033801267818 3.6088939005742797 -0.6273877379011775 -0.5186331595025778 0.7669266486704857
P 6.853260458693547 3.8663176991421677 10.254129371368732 0.32698441541190787 0.590996343756337 -0.009764021365299313
P 6.394246564988296 7.67519070649414 10.07937337705248 -0.5743124553427529 0.9436249420989103 0.4783995087935116
P 2.3201403616151275 8.395605129875594 5.860463059118714 0.2887881068478446 -0.7174128582110743 0.43592771278254605
P 6.939717438040873 3.9351335404902015 1.6110390994591055 -1.1612122604322128 0.8827880133171959 0.22426395902252988
Ni 5.454128847201693 2.9997998601271343 0.29787881503067143 0.4901062557074784 -0.1962044817821524 1.2059409707981554
Ni 1.5709129855691908 1.0687340269288472 7.127916758730801 -0.7138408245890997 0.30774356490442484 -0.7322895182125905
Ni 6.836643177188307 0.5331030490315006 9.065685680728201 -0.1267924097369171 0.2650534822350661 1.045205114236258
Ni 2.6757356887441497 1.6765604786722943 9.2529608123704 1.271458335774675 -0.9218978348344639 0.9258689036670699
Ni 6.374104680153974 1.927967081685314 2.6986048373369655 0.2696696408508388 0.0928348218445498 -0.21266391288975633
Ni 4.088775439336628 6.853740674571288 10.331482182528234 -0.37451691377523244 1.327275956964927 0.8720222901602595
Ni 8.448863788920196 7.194249974597681 0.410060868341833 -1.1681629807184333 0.30866839071153934 -0.32170748328368465
Ni 7.746996571231885 3.94674932832538 8.026244822341578 -0.008227015895482604 -0.9061737392309878 0.46790992211609744
Ni 3.1326475053996643 8.436423479483611 12.283135685866217 0.4150675815040852 -0.5893433815339464 0.6594169984225805
Ni 9.009094504705615 4.5849471691667345 10.293674695866885 0.3154216502749729 0.31940917416781117 0.6648350841143582
Ni 8.7041483616629 2.402991191540923 5.81810711263423 0.08106739689597652 0.33327333374441315 0.8373229390058612
Ni 3.5206347525838835 2.485008439188375 11.562441287567365 -0.04146546623363827 1.0271117470696567 -1.00114489069225
Ni 1.1441007377034282 3.3117408457663835 12.491694347636994 0.3035102435493676 0.4517500245267833 0.6604760358147141
Ni 3.1336532405398394 8.583650419057568 8.056401473396043 -0.3815895043512977 -0.8867446839720986 0.09562241189201597
Ni 5.437140077941973 7.956769363712421 3.620789663326858 1.2481122048495665 0.0027613647952210506 -1.1085614670057167
Ni 3.1244657141241836 8.503363760705373 3.805730764589695 -0.651046257860382 -0.5647420380454984 -0.612952279202138
Ni 3.691573483705937 4.507704898265881 9.464344593210605 0.38049807105933175 0.7446619237350144 -0.586061625458881
Ni 7.258308960552992 6.236926031304834 11.584760453070011 0.49461802753490297 -1.4880148988506179 -0.4057969548354366
Ni 0.6452017441148278 0.22205816434147072 0.046929776203046676 -0.9941692307053652 -1.9072265844300635 1.014211494068221
Ni 4.523053684999727 0.3400698571948739 1.4583358867435097 0.32428270021002864 0.3017971175130028 0.09111012584395922
Ni 5.964879206225872 5.531180843886838 0.2575225599465185 0.2296956715610625 0.2231200752260738 1.6341990828505855
Ni 7.780013677995839 8.729137708659328 11.497156392022271 0.28710711960099583 0.6152755280186759 -0.962229187463659
Ni 0.15546309491106763 4.95584597964491 5.778455778215894 -0.25098517706745804 -0.3860966481930318 1.373827579472221
Ni 8.121628380608731 0.1068570934743954 2.30799543024674 -1.179948917609768 -0.02441956649494504 0.44306843759238534
P 8.615054725326468 1.7099218911599123 3.7508556807792637 -0.7985918409842504 0.7411433690587946 -0.6236452401396098
P 1.6637033780965391 3.1196726160237085 1.5878582635796044 0.7899400788465234 0.7049602342700181 -0.8721230774041819
P 4.59938988820673 1.0849616993257305 7.8652275324672 1.086662095829464 -0.10522779619226395 0.6192949335907141
P 8.424254990355184 1.6689676313978172 12.5649499206849 -0.31329020575426686 -0.8905537733055436 -0.15229261089055063
P 6.467538380743957 7.480331788254404 1.3627756452760569 -0.7568522951536192 0.4912146582803089 0.3350635928756165
P 1.9762423684137305 2.940724246488006 6.077536039008613 -0.6519906240515223 1.0555532902398015 -0.6928922473618906
P 6.770962330061002 4.200248947711197 5.974867696482893 0.24367013146328353 -0.8293790015684361 0.8816405299763138
P 2.4350841092571494 8.795054133387037 10.280705242897094 0.1299558950665633 -1.0722549192651984 -0.6413074333060632
