# total energy = -340896.25918824447 ev
CRYSTAL
PRIMVEC
9.02367767363396 0.00000000000000 0.00000000000000

0.00000000000000 9.02367767363396 0.00000000000000

0.00000000000000 0.00000000000000 13.20706440268681

PRIMCOORD
 96 1
Ni 6.074929121078087 2.02965063858449 11.39374716805055 0.8767772883467416 0.6700544235317686 0.19687708236914478
Ni 4.618985844058229 0.21752476733896947 6.130402177877902 0.21594309786166035 0.858113393388651 -1.0531683349473926
Ni 2.7065617985418777 1.539240843074203 4.804835698997246 0.7039400205356199 -0.08670274080488294 0.6616001221168284
Ni 3.4460702086042367 4.369273619443141 4.880762725353488 -1.5536680180740532 0.2249285891897223 0.402860497914932
Ni 4.993883545205861 4.57303727875125 2.4278808623782835 0.04778678046597576 -0.1353588112496895 -0.14151737465191758
Ni 7.359765427290615 5.9571250126565225 2.490349976264213 -0.9337822449768757 -0.15621251477024709 -0.07089534145898115
Ni 4.98531105167844 4.725230621733871 11.362856413216422 0.40817162571520027 -0.3407884111745357 0.0389630115267587
Ni 5.762818167260769 7.8014383411781605 12.347165460286526 -1.4578370897156572 0.02824279689577717 0.159885335636144
Ni 1.905538979662222 6.485650821492944 0.3827257412897777 0.16468275702478735 -0.6568070716035591 0.3801496865809776
Ni 2.7855009284133336 1.6059980084593226 0.40254354158969663 -0.6708437522022834 -0.347681281639627 0.7356653766633588
Ni 0.5109864870793175 9.009681673642527 4.771579838317289 -0.24592396049446674 0.18370326399134812 -0.26292975102384397
Ni 8.568920151172106 2.187673277165757 1.3223179550176323 0.29663999879209557 0.6915943544860734 0.5037349022345066
Ni 6.699575141550397 0.8160066351978487 4.670017446843098 -0.01721996342271228 -0.8455985487510922 1.038960418878127
Ni 0.7150226614448243 7.407266065109926 2.4224395849077207 1.4950278398333412 -0.6977986835245724 0.8930495431442038
Ni 7.566353497624074 3.8299464687621687 3.9493477680830535 0.5260219957674812 0.3645677729823205 -0.3323461939444534
Ni 7.667788655246961 3.7747847288325613 12.617619509767016 -0.27924700012662873 -0.7326934385192284 -0.5400802736327602
Ni 7.78209157683838 9.082782484237939 6.787229339052151 -0.16623390356199114 -0.40283273000079006 -0.005324754647023087
Ni 6.746723855951215 0.7892008991214718 0.34584777650255044 0.12438200052321159 -0.34793813484543945 0.1531133070196331
Ni 1.8611515105449734 6.610430232542611 8.97998475132806 0.5840435665875876 0.6941700856330496 1.6489780409319732
Ni 0.14830413802439077 4.723191270642085 1.2660300601488437 -0.1945713170541036 -0.2086177678448407 0.1728804623442313
Ni 6.156575354168728 2.044142664484531 6.942834534458685 0.9237408015804737 -0.016596213795784322 0.24021482592483145
Ni 3.4173027250616896 4.106152210215687 0.231063892905857 -0.6453661767564692 1.3540514252865583 1.0062439024817122
Ni 5.7562399064381475 5.476190078413385 4.6477244518331045 1.2181076880676762 0.23575679015347786 1.0443602497374596
Ni 5.293758392472459 3.043911978039404 9.113481937111244 0.4850213849854033 -0.9629082158085546 0.5476357173825149
P 0.1902822852765639 5.4839865356846405 12.25422699730092 0.5685056188529886 0.21145318041110683 0.7232711167640641
P 3.983854310450274 6.195106456655139 12.738437526439272 0.2728117860242463 -0.5211865220520507 -0.5708026424172815
P 2.547636792220882 8.562549434929622 1.529879680142259 -0.4839690324614891 -0.374526169746613 -0.20979790419587094
P 6.313641482945884 7.781107996002077 5.758240455717126 -0.33100047854983644 -0.6169467450735115 -0.26638659922419283
P 4.603420000547911 0.8929840176031342 12.690403589285781 1.3116125393960574 0.9767075835854921 -0.786932145258135
P 4.121339059275319 6.290703295001983 8.031017839152165 -0.979868754922293 -0.0861386407712968 1.1100565634940043
P 4.701841249920106 1.1501398737032427 3.664550583379579 -0.14496239577772455 -0.7304414092602582 2.3151688677432776
P 0.17557459348672794 5.642415239748786 3.5961781797403454 0.4361794237820359 -1.3257952586543424 -0.7888244771848414
Ni 1.4080004790080796 1.1110402795408039 2.6921807638738238 0.210017990626477 -0.019351665053734413 -0.7223257221316592
Ni 1.8664754802093722 6.415193948374937 4.750541134465518 0.6525894339777857 1.4286658674683397 -0.25188249207074687
Ni 6.047894183595819 5.6817855442331435 9.206221879194107 -0.5750043392034548 0.005359721650016576 -1.0422586300134244
Ni 8.619145939565398 2.2269623685535396 10.315866195841553 -0.3162791131792618 0.5998409386311604 0.048897754141967405
Ni 2.264943026718715 5.430981454652985 6.955381055511871 0.5267012812226929 -0.880003508593523 -0.18358756434909027
Ni 0.47529784297305244 9.061937789450209 9.070109631701191 0.5886782371461217 0.10995476935428806 0.7337560754557879
Ni 1.5549781364550692 1.1420727061100695 11.479315993705791 -0.0788971287175351 -0.483260950650871 -0.3360709510942083
Ni 4.282917026751117 6.931925810853106 1.6495354471657468 -0.4305214541653102 -0.009089621006094024 -1.1313792362311805
Ni 5.692487625626325 7.84671915435774 8.025867124093793 -0.11890580789998875 0.43459382446247086 -0.13848038759780668
Ni 5.124013996952119 2.959414262891221 4.848286510400657 1.2214807183049674 -0.9090862848920924 0.11439712139635783
Ni 0.5362545885271969 7.594119352975522 6.897244209144378 0.947800927853471 -0.7636837162531558 -0.424464706448269
Ni 4.936908046119399 4.510232484066141 7.166588346305001 0.7026608967128802 -0.013104398592441948 -1.4309070980940324
Ni 8.327130715311835 7.108077017325521 9.096616684055716 -0.9457640999291003 -0.21443231764408877 0.6639696507902694
Ni 4.4628130593434046 0.3087171487481992 10.602353515321537 0.05509951207730511 0.034013895051599484 -1.1206214834940442
Ni 8.01633721839452 7.214926381386781 4.4729421372218585 -0.526867374486912 0.3270517783147335 1.0536311335164241
Ni 7.289326601527401 6.014578766645041 6.973197404165072 -0.3545247869240217 -0.036089803744021716 -0.49832658673474184
Ni 2.217992833220637 5.200155786830416 2.579881098664603 0.11271999080425103 -0.3736499377892468 -0.3522131080717095
Ni 2.528975827363295 5.214521481246894 11.311877147760455 -1.2769319572947364 0.06942749866420302 0.16993629211424283
Ni 1.114992650240815 3.190664043551462 3.9361542493604817 0.035188374975674876 1.0587106049218604 -0.3211035311510986
Ni 3.5762818734470696 2.7095576594377766 2.729477427292285 -0.4672866867098016 0.46051234410044556 -0.1889449720062617
Ni 1.2767240202323669 3.2222920328289484 8.182344006736907 -1.1504388239657928 0.9313769779694928 0.8601535637471316
Ni 3.589239874189572 2.5054691477433653 7.3055926824037485 0.2652308883531948 0.46354984537518873 -1.221568135812451
Ni 4.105565671184864 6.849584754602874 5.924266193782047 0.22014993685415635 0.27856128691351384 -0.48203067778819564
Ni 0.885142441944893 7.514413210525297 11.565611225391514 0.48500775813864855 -0.8004476632460666 -0.8514881747626497
P 0.27412217434248526 5.605057215324023 7.883983332537571 -0.3307091725616627 -0.8361731416721342 0.26770248982213896
P 8.397822204042171 1.6215909230018324 8.065197724397603 0.2679721985437578 0.6531471062534687 0.2584082090044066
P 1.972431500208301 3.164179550390428 10.310675776602633 -0.8803814607582321 0.4245991751436042 0.25847017259059357
P 3.95736981728924 6.046089448116362 3.6373306605106666 -0.6174090294219109 1.2982327756550416 0.4790487123417363
P 6.909492948843455 3.9440508694508467 10.263605568195171 0.32428912796793186 -0.8685448731346204 1.0032372544449046
P 6.463533788192197 7.7055707925093975 10.184759382200907 -0.7466858961435786 -0.1490324520820401 -0.006867673654110752
P 2.4049002631506164 8.504310621007539 5.716559187451324 -0.3658101300298539 -0.3338695725675153 -0.1934785982105571
P 6.823903368730199 3.8926520029959066 1.5014587058117677 1.5039698795179777 0.5391827015191553 0.09645210688216291
Ni 5.2066257635242685 2.7008949291363824 0.6786608510047217 -0.07758792298780831 0.009023800765165103 -0.6331878895227224
Ni 1.2682417634789183 1.0695855055776733 6.932704554212492 0.23621496073681902 0.18827751362559186 -0.16054842314143963
Ni 6.726077682066224 0.7665045457318187 9.361827074600642 0.16926420574788267 -0.33947174924564116 -0.24377297558973504
Ni 2.586420557674416 1.418756702465644 9.113388993234052 0.6775196215605622 -0.5696603012827222 1.2974231352695527
Ni 6.424578572868114 2.0827188853579273 2.7278134611802254 0.25695913526270586 0.2555715108865598 -1.1651861574782967
Ni 4.113380175810913 6.869256371328958 10.40758916948174 0.1443522729975514 0.22547237750833427 -0.5356865154404387
Ni 8.394871461533258 7.016261099808139 0.4788576837062816 -1.1540913331167157 -0.49466893537749645 -1.0701119047802667
Ni 7.767301769584229 3.713613219756361 8.182978371257935 0.10791588454738835 0.4196901678777611 -0.014520047993045961
Ni 3.082352843751842 8.28708363502268 12.514234335458571 0.8110838028036742 0.13784249690349165 -0.022542404076890208
Ni 0.21354352087128703 4.793792522598448 10.159732212939536 0.06768017695579312 -0.4148585508170726 -0.4476935950692225
Ni 8.688393639912169 2.602636105957338 5.8288056129639 -0.48615626992079497 -1.0470935895082223 0.7508945349082874
Ni 3.674423388819949 2.79395611413459 11.51930712719508 0.06156660785888751 -1.2016444003053304 -0.4469721435221657
Ni 1.1195225362942525 3.356889204886862 12.447090054313108 -0.04145415337972861 0.1261527192703892 0.29475872260898267
Ni 2.9914302702967905 8.491262383491065 7.754554020525083 0.4995961974757847 -0.9640230461392881 1.1438570569832172
Ni 5.627760787655594 7.75872025237941 3.47804109762282 0.5485723702641714 0.2468274461453427 0.7115512572239746
Ni 3.1711999714055166 8.334782793744733 3.6201883805590427 0.38798409502373177 -0.24060049139902437 0.22720478681840872
Ni 3.4752437576296615 4.44597487732007 9.143620117250439 -0.7040138111963488 0.5221856527405265 0.2515647037200119
Ni 7.15130043205852 5.854697250519933 11.268557179679306 1.4962411434151521 0.9444716063699218 0.9449477746753919
Ni 0.6893593229269437 -0.13014579199783272 0.4913942787143307 0.12989521703195694 1.1939974252830339 -0.6317776394387571
Ni 4.680076140037853 0.40410734488264627 1.7131803462165427 -0.19164591587719254 -0.7466303603152947 -0.8555813709954168
Ni 6.132247519905646 5.642288908265225 0.28031963597894105 -0.5708936594691909 -0.008987805320907103 0.4820152511692279
Ni 7.889148485479779 8.564597809698805 11.615480578527613 -0.01391712430172442 0.8160974539681817 -0.6832588380371846
Ni 0.22093210792418458 4.9812413731722645 5.656598655881839 -0.7821735475272272 -0.5900869445681902 0.656550732618379
Ni 7.986577130338271 8.802958248148107 2.5469825756095785 -0.8021656743784378 1.0428875218466749 -0.022759662294018868
P 8.482960600285562 1.6572073776889191 3.662464309165326 -0.19042592742716236 0.36963233198942147 0.19951169177851447
P 1.7492218161090416 3.1909347538733805 1.6348494122016644 -0.29054982673395763 0.020228411231732902 -0.6373636181669667
P 4.782594138948416 0.9750354138089135 8.293758449193453 -0.5040696598661061 -0.32244281878781245 0.5072220894521587
P 8.592670470081762 1.4139290350580962 12.48256393489732 0.062324569070834605 0.9087908651388606 -0.6914876537048801
P 6.466186749346999 7.817527557977521 1.3055618884586127 -0.2979162944013579 -0.8079072048479053 0.46743889601694977
P 1.9015234432204298 3.253667359139311 6.176455417842689 -0.20588417096376155 0.07250202382446869 -2.246159687563415
P 6.881041294009812 3.930145382581629 6.1015976972580255 -0.5708499507154492 1.09470424940765 -0.9910517681223062
P 2.4039618007012984 8.458344008345767 10.258666007187898 -0.26541729333238806 -0.17301570237051492 -0.4900021260294465
