# total energy = -381164.97726298997 ev
CRYSTAL
PRIMVEC
9.27490627311034 0.00000000000000 0.00000000000000
0.00000000000000 9.27490627311034 0.00000000000000
0.00000000000000 0.00000000000000 13.57476285259543
PRIMCOORD
 96 1
Ni 7.773456721935469 1.9467564774973485 1.4874139558793995 0.9341460560741975 -1.7963552167987773 -0.3561970324201221
Ni 7.994533390734758 6.466418363128059 10.405517483047596 -0.27907576465608713 -0.7360872946921259 -0.38165506748191047
Ni 1.8822587784358342 0.8833578522730852 10.217819347377812 -0.01866518050967108 -0.7214258360252093 -0.6751948300821274
Ni 3.540881013907729 5.828110030209957 11.182673019660074 1.519548450682525 -1.2445843942019663 -0.2950189182489048
Ni 0.5778257408344032 8.195984357605063 0.476098567508736 0.573812889998515 -0.3377262273094441 -0.3467549131706157
Ni -0.08903724639786106 5.525460559678424 6.4067176456533454 -0.15656886966840133 0.1293077199596031 -0.6498892614378033
Ni 5.75144365395996 6.30131575441451 11.685210635334577 -0.980988213238717 0.19758233596628552 -3.168944038767891
Ni 8.861931911576272 6.032399118436721 12.6496840364547 -2.3957438983838673 -1.5427058626355947 0.18884367054170703
Ni 1.3149034794292342 5.652517502365178 10.859457371691239 -0.6985350474699646 -0.2719877474610542 0.47250602612721204
Ni 5.118162320307222 0.8828625722716638 1.0682085916800155 0.5606768668371892 -0.16210933987065632 1.747531253317539
Ni 5.2016643025693465 8.133239615851949 13.137967975983427 -0.6395647395833436 0.2992406696397363 -0.3161073634880878
Ni 6.72234085524833 0.0105010490189023 9.256019901770983 -0.380720471482783 1.3200874096362878 1.398135045869334
Ni 2.6560549439525274 2.040998801363332 5.098423464520233 -0.7852046210440671 -0.8773496159104439 -1.9108551823215865
Ni 2.4747305239564663 4.995418209093521 6.9763017046663425 -1.287840119566808 -1.12823066329987 -0.17092513839007337
Ni 7.47074232705918 2.1958155388863108 4.034365393451381 -1.7479588277732605 1.8677768630748737 1.0019411613413003
Ni 2.92231895670173 0.217394530961006 2.239265692868692 -0.9279126735699762 0.8824650827601382 -1.9502182575002416
Ni 7.367800140995944 4.892299799808804 7.722452156695451 -0.02799108589628728 0.7619775321953265 0.02715342048634033
Ni 8.277065589298441 4.186766945349452 3.277219539892587 -1.0821883763288265 1.246949552000033 1.6861934736400055
Ni 3.0254559157992333 2.9797862767168497 11.150324001140264 -0.7080496718286193 1.2049634373762343 0.22360087151723426
Ni 8.615710971543768 2.688415092360008 12.91616971946671 -1.1021745896427664 0.8331829486955588 0.10252350988722345
Ni 9.427849600091854 3.6659995011582076 10.728203533861354 -0.5512432322281151 -0.20082269728045413 0.9998899352392262
Ni 7.973813249851321 6.758141993927858 1.9169061187599918 -0.40037012739291045 -0.13170913031224413 -2.49032784170904
Ni 6.093186854940771 0.6089133720846741 5.654336311508975 -1.5598972868132166 0.4323019431045007 -1.4013409544011415
Ni 5.696100287508989 8.406209385923768 7.549753399645495 -1.3424662915521202 -1.0068162300454144 -3.4754025663123054
P 8.538673599038026 0.4824843405607712 12.769670717997565 0.38899968077243974 -0.19950526402061125 -0.49788230010847156
Ni 5.527111493016497 4.80363169468541 4.854878334982303 1.0942144542554253 0.2089756654048917 0.5615438428231748
P 6.161023520304003 3.0531507862907032 2.2721981030006617 -1.1434564791106887 0.28158053335581185 1.183923843097116
Ni 0.8845199980442108 2.8133573563890075 8.695069853119845 0.23106786931824075 0.33741666648882535 -0.3182166965216068
P 2.5136109315586905 2.2785569788241555 2.822098028174393 0.2551421366586251 0.8589927106698111 -0.27259761313091113
P 6.0722812159294595 5.203510008941684 9.395690717153116 0.9311550917666738 1.5866632420531515 2.341503391872748
P 2.8426196860610062 4.418676704816536 9.45016595236564 -0.27573770142178966 -0.501612199464549 -0.37479433580633514
Ni 5.264585267543938 3.178649544703322 10.488811707406503 0.8552851799112366 -0.5651935237606202 2.0061214964257643
Ni 8.030176856005594 9.372107412665956 4.567106741796841 1.2521925455665275 -2.2466435691783695 0.5415362893529965
Ni 0.7336172710193563 5.614610959934288 0.9164321684728781 -0.10644289954628763 -0.10051727809047205 0.9087394430756349
Ni 3.192932900549559 0.19683020850498215 13.440413398574297 -1.0976355641218323 0.01618303751776568 -0.7696034241717005
Ni 7.343407137180617 7.270664046335139 6.01857487045697 -2.437245874282396 -1.1223564639072798 1.09254452275217
Ni 1.065696019537973 1.3201438015416522 1.0291176437026552 0.019178886921296 -0.20749676686652008 -0.4134380163204621
Ni 4.783366024215263 5.490067516880217 0.34445703859159593 1.412839184848728 -0.4609180641792965 1.771245823325659
Ni 4.081487482875012 4.182296440467707 2.4849551807648376 1.2166629852013497 -2.112340967107336 -0.6795063129732877
Ni 7.518359696484234 2.6514082158493033 6.6564120381302745 -2.9625315061044852 0.9868235889735714 1.702797400745274
Ni 7.369042978452695 8.74605123109388 0.7331266284711316 -0.7558431371628144 0.20220852188438723 -0.6617199355241442
Ni 2.7271934759919025 6.547536694447013 8.881356348036515 0.4538243905573088 -2.4299958775882025 -3.64900730841707
Ni 1.641352359766899 9.147478454717895 4.2598151806152815 -2.612655273696068 -1.0744565549022076 0.6353620143559058
Ni 4.3870121743885795 6.468570141411388 3.594434323424724 -1.5710155082135655 0.5327803975372373 -0.3235954443350169
Ni 7.7159244775755935 0.2074861484606586 7.139280359815742 1.461216290600535 1.1388207801108903 0.46549539913733373
Ni -0.20135914529700652 1.6642335538400594 5.74007540119325 3.950154965271533 -0.11423848433130647 -0.5383967152827501
Ni 3.763951787581655 0.05425449244035584 4.142868813388256 3.6530485683659792 -1.2559697532207725 2.5084132384558413
Ni 2.492529069325901 7.714802213901961 6.670692611504593 0.8311677180377428 0.6706979706530385 0.5022971413467157
Ni 3.156519618048048 2.872939355061882 0.18057315257817422 -0.2749473443100104 0.028842378152989036 0.36304465146957476
Ni 4.5933417420219484 2.9523696534171893 6.118756844377453 0.39138952116085496 0.9036810547161211 2.654701809244157
Ni 5.136795607252086 7.302003955039318 9.283699004921584 -0.11849443139418303 -1.8970113344599588 2.720403265207024
Ni 8.956823478889811 9.083203353409827 2.4677288971198923 -0.09165622815541634 -1.083244842617799 0.14711646600624986
Ni 0.46762130306493044 7.7454465046266145 11.650621726920699 0.3829383050697082 2.5244965171709493 -0.9517619693837479
Ni 3.3136179825438683 2.1618322818599394 8.872085151605413 0.5155720040787508 0.4161353606469672 -0.6808484288234791
Ni 6.434076764533365 0.5600707875250192 2.939017498172876 -0.9893504691604831 -1.298892006505595 -0.004012206483186639
Ni 4.786157771039754 2.1664511852439823 4.141470157504092 1.058109738113068 0.1429484506714893 -3.091761835858933
P 4.898866433535516 7.040841140806628 5.538829409754246 0.7591580604686602 1.7165013805949279 -0.9299847256076564
Ni 5.058719445230253 3.740412075154545 8.410108556571663 -0.6584448643172982 -0.6340404673310049 -2.572877222467182
P 5.596478517934683 1.3630216937995443 7.783225980839911 0.03603221103320891 0.9654795760801567 -0.03299856641320768
Ni 4.194938137882266 0.8796080076181283 11.012485907261519 0.7129964743109334 -0.7815945350953055 -0.3148824899420512
P 7.542817624644316 4.440379985777701 5.490095341599397 0.680182513104706 0.06111666480566248 -0.5978439628057898
P 6.556347855520991 6.391866665535817 -0.10067168897806865 3.4019898577481085 0.8335601295293192 2.6573683003327266
P 4.819148613082004 1.7201426895810439 12.85164883313921 -0.43756036328996256 0.7207066984709974 -2.5688354482976403
Ni 1.2890357654973152 1.8064085939484793 12.196041872306294 0.2890734992987473 -0.9318981405802853 0.6788331981656632
Ni 3.560237743551298 9.010840533726489 8.676988423105405 -0.39370891332265096 -0.18805665586403741 0.5991505974323553
Ni 2.2350576678378884 5.295108984485475 2.672043027593919 -1.1249221677519272 1.289063707561264 0.7376934628369811
Ni 7.659403198012627 3.033089163761216 9.204042398850271 -0.40639705031328077 -0.30221286489418275 0.28530940427062473
Ni 2.790986282167499 5.37988162892353 13.31058418636648 -1.79188612528383 0.29409152133862904 -0.03996085666365376
Ni 0.29849616744845126 1.7579286582288167 3.3612474093472327 1.1353665030137028 -1.1668380912594227 2.002967009957183
Ni 1.0244783355245461 4.090493416983256 4.578835788422263 -0.5356466633414387 -0.981284147212581 0.4493293309004326
Ni 0.05300238007721169 7.976697745739749 6.280553876452301 2.7606425723430457 0.9957648573272592 -0.5561702372160874
Ni 3.2998632963620698 4.5768509584540205 4.71311695569904 -0.550423050319665 -0.1885333383901398 0.8317583004338901
Ni 7.108733455608222 1.4212124565133697 11.158441399215997 0.18603371189673767 1.4371196546626477 0.5847863582908831
Ni 6.8323968945155045 8.463593231781346 11.424330705746895 0.9647882064400869 -0.6644645881488169 0.4784532448495824
Ni 8.252477812448847 7.6113035334551045 8.384045142114838 0.4822667050584017 -0.9530886586149714 0.3466207015855966
Ni 7.056543557331095 4.475865777639846 11.544005750434936 1.1594896213141515 -1.404691616040929 -0.26741272649586206
Ni 3.1628172794893437 7.312428949825792 1.5315866250698464 -1.8010230545880919 -0.9338699195946756 -0.8956113903341092
Ni 2.675884693822173 7.7716202904695235 10.47840062497962 -0.22796557624383318 3.9880825935552418 4.466587517578366
Ni 3.8495869983143214 0.6905427507459186 6.650860079163029 -0.4748567857475757 0.026757470599502307 -0.6364148811004524
Ni 6.052822462315561 3.32700167246992 13.631776977250857 -2.4761808607846967 -1.3968559220465941 -1.5158067242519058
Ni 6.207704124183296 5.35669436293938 2.654260249565354 0.13060586994573636 -0.3027034313773561 -0.9492250618945071
Ni 1.1698624932451729 0.7946285327674937 7.437924925766492 1.2663469826900384 -0.9300862841825273 -0.179118215723827
Ni 1.5153342065962352 6.433529545056139 5.061907230557753 0.8009312877507045 0.289748670988901 -1.9425288592757837
Ni 8.501954244625525 6.523310638946771 4.021604977234984 1.8375802848868354 -1.3130991512439127 2.6327798123600856
Ni 9.870633631325202 5.2770321919242305 8.571064354636606 -0.4549793300973584 0.10024911203074993 0.9271657681016225
Ni 9.010729234849766 0.7138032884905796 9.302825716886591 -0.6088534265424159 -0.34291805592302876 0.42849259666073947
Ni 7.71411587082883 4.178530828471881 1.0435243558039278 2.365423650133771 3.39647818390126 -0.2597955762702364
Ni 5.289840837653876 7.775274603588626 1.8908427043031668 1.642539484395481 0.34939286501409506 0.2105599791728761
P 1.077846146913668 8.065950169965943 8.970420491662917 -0.33450797748246264 0.8871167225995368 -0.3280287975160222
Ni 6.648837222078572 7.586567358103212 3.9012649217585182 -2.861772801427168 0.851998795850481 -0.7934236665197497
P 2.4578409194136106 7.49881746871279 12.860608392715488 -0.21678204882318794 0.15289707724376894 -0.6583759587525758
Ni 4.49490716046603 5.956001714472141 7.1638505143431885 1.0838282259250946 -0.43737858629645965 1.4467052414685537
P 1.6729890654756747 2.927243931996763 6.614140724750527 -1.2880671479759493 0.7076989733574198 1.1437022765729077
P 0.793220601976936 7.147187217516338 2.728690445883839 1.3515898511199431 0.32268244560244425 -0.4443038526613832
P 1.2132783300738974 4.035836393605416 12.905242024753699 -0.7450604447250135 -1.1428782380097156 -0.7073950689637558
Ni 0.6552879040529761 3.3864630973596768 2.09639132481819 1.9100008047410912 2.4252059123987264 -2.8564027953645064
