# total energy = -381174.1453433947 ev
CRYSTAL
PRIMVEC
9.14028025504233 0.00000000000000 0.00000000000000
0.00000000000000 9.14028025504233 0.00000000000000
0.00000000000000 0.00000000000000 13.37772406694100
PRIMCOORD
 96 1
Ni 8.301366827955894 3.253510089550509 5.659539814990979 -0.1678336439489432 -0.2958540125556905 1.0217018889079952
Ni 9.016913648352018 4.2360627695290765 0.8913573642585925 0.8330387098082105 0.03718457947009725 -1.4771697286059977
Ni 3.154941309948391 3.3008567399899533 4.105596240756385 -1.800487493799596 -0.2678688401966741 0.5187488591448356
Ni 1.501528638530928 6.571879606035053 10.99627510303703 -0.0482367235192008 -0.3084254214627979 0.7101032119235384
Ni 2.270454694171523 4.829851919943764 0.05409034902906283 -1.103217429084984 2.3479815433979243 1.8802138032866458
Ni 2.38033000014306 7.066972012927516 8.916105500148033 0.7958741849427713 -0.4669935809494151 0.49840449116052865
Ni 1.4322818771932384 8.230602780136941 3.1501993326804407 1.7929042821356993 -0.649356785973101 -0.32060679402033815
Ni 3.531264918421907 0.9761819048132602 3.0098539892755185 -1.1483883691946672 0.33110615088976525 -0.387404568371178
Ni 4.501734148230408 2.7833249456787965 8.410855500083109 -0.00814396926337307 0.2933114486394949 0.4860207727841952
Ni 3.797713220923886 7.491611141521283 3.644292706968071 0.9532478099006552 1.0221279207018203 -0.7385090167597411
Ni 8.256652578158642 1.0554464130392955 10.142882805818067 0.6722653151401584 0.15314724558136206 -0.5246443986936642
Ni 4.6644311323659515 3.863175906338423 10.607049989332765 0.4314416519867344 0.1089651517475091 -1.5973652018516877
Ni 2.049982000107846 7.55745771869614 13.250194116646776 0.6709504529834767 -0.4827415878122912 -0.06889630875108135
Ni 5.787177427101315 2.0424138482615413 2.015888755679443 -0.456128356100137 1.2844822588381686 0.5613618087193557
Ni 8.543328320317473 7.320304013618568 10.936422721491166 -0.8551995621759659 1.3778169031372722 -0.004170329327605722
Ni 6.839964018658395 8.921132654152222 11.59050024480808 0.4560252548633694 0.5099831971370636 0.9758377793860291
Ni 5.587407467254886 3.9117199334588655 6.286232145377079 -0.639707435808795 -0.8506466526979608 1.4338111591147047
Ni 6.847431627424616 4.844311842915811 4.680972297095733 1.0153859739922966 -1.3595219614828262 -1.100726287232014
Ni 6.664388379992122 8.372313681375 7.645931059029849 -1.6553140104523296 3.4980239032562466 -0.6786617055848053
Ni 8.770765907746952 0.7918014344156522 7.172492889503426 -0.21945753877282204 0.3654211221215513 0.11498256158618261
Ni 6.8241513342452205 4.37009583556074 1.1903432355316785 -1.7598715200504467 -0.6630594802711742 0.5433679432450965
Ni 4.012811430343085 8.319555985171048 1.3161244567724673 0.09068872203582447 0.34146666818848287 -0.21562479529029316
Ni 4.690206721987425 6.170932083221022 9.030391905251246 0.32531474101896873 0.4229037897190523 0.6932686568647028
Ni 3.683971576509128 3.848862227846499 1.7933375619420349 0.934758749957532 -0.018729972309335482 0.7103538944817638
P 2.907980084422647 6.776530475405548 5.728033417256041 -1.2954387578496722 1.282845494565694 -0.27204713994407986
Ni 5.019384766181664 1.8316298510059366 11.518942820684465 -0.20054887479377717 -1.5130648998407104 -0.42599194172607274
P 6.023380543058097 4.707920584642183 12.225513886113111 0.30729799272657393 -1.4370312087138994 -0.5720951359764599
Ni 5.582526557730819 0.8735758635317787 0.12087106282069804 -0.854176006007458 -2.337180853237994 0.18241796952102132
P 2.626514301868157 4.2371230420099595 9.299577721615506 0.04529486728205748 -0.22009362969492416 -0.2022517164174968
P 1.2030802157222897 1.3499553751646518 3.223804179525761 -0.14779369457893257 -0.0757027901499535 0.7544560270073006
P 8.977811530479443 2.8793710079988126 11.970989078881066 -0.6517258004259098 -0.9062531863186714 -0.45975566844007915
Ni 8.342891120030488 8.849646524212668 2.7230758759806024 0.09791249347777331 -0.5315658084038458 -1.402525975848178
Ni 3.4805363643796454 0.5806408576237336 9.27157830186818 0.9266302073131267 -0.8760206126863753 1.2101236414209353
Ni 2.865441221267208 0.6680265046365349 12.712837054999103 1.665849876986647 -1.6865966226156952 -0.14010018258941678
Ni 7.304262822205203 6.875976721888398 8.920667413899835 1.2755852134588548 -1.700627132566832 0.7717618652755999
Ni 1.4270719175888977 2.017360340760669 5.512598845532563 0.18913523364019685 -1.163313623045932 -1.2991375468574982
Ni 5.6456127703433765 9.025734018559366 3.1756979718176837 0.18552463347080306 -0.1250510015657782 -0.4232097509952454
Ni 6.377100239072782 4.524100413409042 8.77258939360847 -0.3892233667474716 0.9480582952799157 0.011936603536585894
Ni 2.559616592492424 2.0431085095421198 11.00094395806492 -0.28359859222710515 0.46374704898765934 -1.5326399937591604
Ni 2.840707623566602 8.899771819774426 5.120016506981502 -0.17371375687880405 0.7699934605212675 0.5820723017938298
Ni 5.364512598989192 8.466559108533515 5.627807504888543 0.5248156341642057 0.4833275422227482 -0.6021626447858017
Ni 3.487062524305082 5.545956297420353 7.3105778416624645 -0.6903201157593402 -1.5498866966547502 -0.3523069533370965
Ni 0.5287853070565326 0.3162180411714422 12.184738182971142 -0.5422705964158596 1.1200848942642838 0.7553481998042668
Ni 6.836847183175798 2.347589517155784 4.105503009900307 -0.27810105944764363 -1.385738471977194 1.81100433417052
Ni 0.3482035370300894 5.876112351575407 8.80342504224216 0.12129179163366209 -0.173181795634734 0.4535104588613158
Ni 8.309976971723067 2.3958501955959903 2.5076678110691453 1.4070058659964026 0.37117782209967043 -0.9223819735597341
Ni 1.5655654402642771 4.118070894910778 11.366008569625057 0.8169533742105737 0.9137338109664329 0.34173894801326304
Ni 4.861157378969844 5.464315316392338 0.4251692648342098 -1.060779057415115 1.1768615369336959 -0.35721158972756545
Ni 6.301437001169746 6.169204570299582 6.706935469399568 -0.06738629986445815 -0.13531561671657985 0.6302282926737662
Ni 3.1981656941044014 3.215559646958892 6.605746171519267 -0.5487739447520161 1.2267152272310293 -0.7712178198466718
Ni 3.7586750850113635 3.4166549474064256 12.741091488558641 1.0673461691096715 -0.9920753242908141 -0.11923953709032369
Ni 1.4870412947188585 2.3885288313098907 0.07748580973655365 -0.7488901028837489 1.2237836554065311 -0.3410915442372513
Ni 6.177732451546688 1.6791882610389366 6.717517171564384 0.9319261656047434 -1.2817723161061731 1.0647609248809986
Ni 6.946804751667403 2.9839449515659333 10.597658351624942 0.679432779422875 0.5434016246965094 0.8248176074499988
Ni 0.8004097501268237 6.336032960998568 1.716415707481951 0.893985424694912 -0.06364225944099362 0.11283440489492826
Ni 0.2533374848590562 3.4967877822331843 9.647224615593133 -0.29805102020700924 -0.5395709380965095 -0.6250020112778204
P 8.18365830201783 4.884638758309407 7.413480028016192 -0.6140419127218909 -0.2646403059570475 -0.6583703023256209
Ni 2.4059045036043663 5.662348623037319 3.699341871369933 0.9300461749732111 0.9676508726998626 -1.159075159484552
P 3.2613798706370654 7.939667667494561 10.760773046556833 0.5418427648498216 0.25505703314398653 0.357198734211759
Ni 8.61450368073677 7.920427378078532 0.21868942543419082 0.49396753843509766 -0.6107856105681223 0.5076334659579644
P 0.40943975696910545 6.005712381803376 12.858801842552706 -0.4883355369603009 -0.051195291926892476 -0.17022271300641006
P 3.643370452715303 1.848530228740016 0.9477410095415659 0.456640262739549 -0.36516606868795176 0.3277315779905775
P 8.483925640547984 4.612212712682449 3.1443267027755484 0.7354591741898238 -1.2913807857302146 0.04992902361995917
Ni 7.694077483969959 2.8029948282551835 8.181468290928006 0.36602250315097606 -0.9980135441521198 -0.59020650086519
Ni 6.121821358740108 6.371524668268136 10.777789505847009 -0.5570153588252019 -0.8401827770521594 -0.15281634460450455
Ni 4.749298632236655 7.948515458541932 12.418393902889802 -0.5760759750010788 -0.32562944404591015 -0.9060004468779171
Ni 3.6687712908564643 5.7138266800402056 11.366035076437079 -0.043275265748867406 1.348097778806285 0.548727664895113
Ni 1.0617075048445117 4.413557866996948 4.690577817355734 -2.1809909641755665 -2.4347681021658647 0.8828692601770924
Ni 5.1540393712538455 5.679989363452016 2.7786332399508877 0.34027804719702043 -0.6534828923263326 -0.5350583949381366
Ni 7.553463416332813 6.304014560131893 2.2278189440480025 -0.3283807815388022 1.3466157949441195 -1.789720227980763
Ni 1.713254084627317 1.8113567099490466 8.502279322803274 -0.12100408518991419 -0.30618779038153077 0.5768416495225097
Ni 4.578960374014746 5.747837661948541 4.97419887793602 0.4604709493395489 -0.9724616638249446 1.1065698904969845
Ni 6.890272119820306 6.692878632775857 12.77462900396258 0.09454666232933394 -0.1766738679483925 2.6281423135880737
Ni 8.261158736202397 7.557960434096559 6.266607050172729 -0.24278952863054315 0.010452819902207804 -0.24857013986806223
Ni 8.175697118131197 4.998864837564569 11.235709307976503 0.41061571638031863 -0.15017710720944458 0.5404759664092821
Ni 4.6155306343252125 1.668055399989662 5.143815054037328 -0.6208949310879822 -0.5191365815015575 -1.006863281233266
Ni 8.153797007232953 0.970322985328379 0.6443742020608301 -0.13885062645303184 -0.18728892446007744 0.13441598772044594
Ni 1.2432608866357644 9.107173913427214 10.131365138980472 1.9267032050974364 -0.5068140553804625 -0.25209923606724327
Ni 5.4956116351384106 8.409715707166159 9.824720627089004 -1.5079486616600675 -2.084037749287269 -0.15335756181995525
Ni 0.8728144782071444 3.3708073028882297 7.207369455928481 -0.607379927320683 2.2711950332654887 0.5775726141512634
Ni 1.342524327518461 0.32353574934553864 1.1872364543570901 -0.006312315371273 0.09287775926734326 0.4290438411785192
Ni 0.7814299586910116 5.994497258234034 6.283288975214627 1.1562364044841764 0.062252321072002466 1.292367060902884
Ni 1.4726910551069032 3.4301551409776723 2.468724734068702 -0.7628707334335572 -0.2689211927205885 -0.07537523160720568
Ni 6.774940066684223 6.9426916256639775 4.244055944395735 -0.9260355111519213 2.6284410757754153 0.5362524152462378
Ni 9.147409426020735 6.54069297064907 4.06206565722012 -0.010414767575420772 0.1255683075218289 0.4225070685012659
Ni 5.92242615037399 1.272738289660322 9.417543089421784 0.7694249896123071 1.5275047294151243 -1.4092085300746764
Ni 0.39429248494048624 8.99429145533317 5.044217992934354 -0.46939473419173994 0.839542058144367 -0.19787569883698825
Ni 4.099095673614969 8.034077619693214 7.510347801508893 0.6473145587320916 -0.9761329420289446 0.12726549271859372
P 5.119946126825442 3.5216584841339045 4.080112226067154 1.1143194525354163 1.5878472350589234 -0.9436807350375103
Ni 1.7357391734460497 8.476128981701489 7.305614669618329 -1.2442262395315988 0.3602994846242698 -1.0337989292818452
P 7.327707640424736 9.197041146462084 4.436307109907901 -0.43617556712729394 0.5192070297281768 3.4376037502969763
Ni 3.4091050761201354 1.0149732531655773 7.0335789139476965 0.4225541196891174 0.41754792472377766 -0.3208356222016926
P 3.1627653896349095 6.365784572423355 1.7582206061527788 -0.22812087087477487 -0.2601655580151455 -0.6784513893462122
P 6.521233314512859 8.22504548989231 1.3313366247891407 0.34851843282894174 -0.03362797246709047 -1.21723942653011
P 9.092192994494734 8.396398319195065 8.70295874051046 -1.482588071408092 -0.9891278116267158 -0.7989998750559465
Ni 6.971053914527606 2.5582089893712516 13.120991688599139 0.3630546787719038 2.3450720830606127 -1.9063611511059748
