# total energy = -381170.95534265984 ev
CRYSTAL
PRIMVEC
9.21479235682593 0.00000000000000 0.00000000000000

0.00000000000000 9.21479235682593 0.00000000000000

0.00000000000000 0.00000000000000 13.48678005970083

PRIMCOORD
 96 1
Ni 0.6495249142911719 5.565209361582716 9.06477465034815 0.5275569443547689 -0.28241691321417817 -0.4849334532572875
Ni 4.313785265999023 2.69814650112277 1.9359596920889106 1.2218442722919731 1.3401749244147823 -0.34535031951360523
Ni 4.303354121011314 8.738249403417981 13.263627496759106 -0.11564410642958149 0.828842926559308 -2.5509084315055746
Ni 0.7646416297270794 3.404451123174774 10.921473305677544 1.3152676196501414 -0.8892921329843008 -1.4869658887608133
Ni 7.969459274156039 0.5322491729978263 8.886304394258982 1.9191292494049206 -1.9162241599429837 0.21051087110249553
Ni 0.9825088092088723 6.635406135193562 6.990993915848762 0.04551135416823775 -0.31008404011214336 -0.8564941126176733
Ni 0.6549754639910214 1.7527917348383149 12.721782960443523 -0.9755796406286359 0.7655328536467526 1.318503867199252
Ni 6.785699399106571 8.48117512526684 4.854930399572056 -0.12286839209216258 -0.842773163487155 -0.6100788143090848
Ni 4.65303706270174 8.995471118247394 6.202044585270908 -0.8226627658905252 0.607156241345651 -0.7786025423465172
Ni 7.43581221715235 1.4752698323693951 5.072580109953398 -0.07775401625202738 -0.0742855980874527 -2.396059115631441
Ni 4.460383398162852 6.739385852544536 10.059087608611136 0.10253250874828794 -1.7083237298801417 1.3777050601497562
Ni 5.44530648297842 3.033564944190428 12.217876645884914 -1.030996941056676 1.725813144914157 0.3992856360794801
Ni 7.842755878766469 6.712524732721947 5.941829905872583 -0.08399562628636502 -0.3674173266159737 -0.4268676594628068
Ni 1.633146870420994 5.445214335054501 2.7911292852331684 -0.6966388588885164 1.906273219377859 1.6819079588907744
Ni 8.065818358198854 2.6090578882772166 9.513143411160364 0.5073272475714553 2.0066578285452086 0.33452057588795286
Ni 8.356839931522007 3.058675253458542 0.890506479008979 0.04455207557876198 -0.45658678379379436 -2.010925859792943
Ni 2.423048089052938 8.05634555161991 2.2080015575223264 0.5199765609043497 -1.2619326556724266 -0.5402322258295922
Ni 1.9561529881366708 3.477192694316974 1.7317562067659287 -0.6065355770425167 -1.003202030331595 -0.7517031468525119
Ni 6.317108776390182 5.629132376405803 8.713620106312728 0.39558247619628 -0.08605996501456147 -1.1564217810221051
Ni 4.617615400747013 6.857252262030206 0.9660327604120323 0.38618046615608975 -0.8846808594645345 1.0345949428205794
Ni 6.668699180105745 8.253284094621064 2.4734622182293986 -0.3991146577192546 0.9965711552786386 0.7690773764649014
Ni 0.3639308536868879 8.142531504861994 10.161465795044386 0.12364306547465803 0.07188830149986973 -0.0529140743902121
Ni 1.1399066780560885 8.50826661489923 0.13778602619938948 -0.2911527504252792 -0.8599352770887384 1.5933805061723267
Ni 4.063843237159266 5.212356531309453 2.7664483852905195 -0.10745385730930526 -0.0039906092166318375 -0.40006082368260776
P 4.502439710639797 7.663417589233975 3.543139277549337 0.13393596276023384 -0.04610785010165608 -0.6211199026145948
Ni 8.40702369088867 8.742386845201976 12.349372654797545 -0.2873763141019825 -0.0338647710682449 -0.47008481828022913
P 6.595054559309132 8.880028199160812 13.54544717839964 -0.06450666432381794 0.4064867818136096 1.7068324900465959
Ni 2.2421524996062017 0.24496604094809432 12.033417696220203 0.4452394771017751 -1.2766208538122208 -2.68154824001304
P 2.0425508816037685 5.752675098004927 5.088521700791504 0.6671207948247414 1.7523533572965306 -0.0879669522292872
P -0.07238956607282723 1.0509655018888073 10.869886133429587 -0.39213874062205367 0.20012464277216502 -0.7944919598832639
P 4.051956154973626 1.463640764370731 12.29491323176101 0.2658865196593227 0.10326810136273183 0.38420663025917057
Ni 0.522849163278779 2.0103451821938383 5.114550724861098 0.32238394052541897 0.31518125212939263 -0.666166144220956
Ni 6.472543894457909 8.018629406359583 9.675551362631094 0.4797287691278964 -0.11357539682601085 0.32795757795845454
Ni 5.43884691351165 6.8581276673074445 6.784363254209735 0.503717675843326 -0.6252853468461942 0.03022743142597375
Ni 8.938330190624797 5.449462354347198 11.13947317816978 -1.4181251158380155 0.9743226282930831 -0.16184631601725674
Ni 8.256850219276757 7.266379829441223 8.112811034960176 -0.16446344192512966 0.1329157490258356 1.3464975241987005
Ni 6.68028217414245 2.301615554911575 2.474864709631456 0.05333984907372104 -0.9112758363442435 1.5843001411376134
Ni 2.66163749366579 9.32343479426995 4.128465654724902 1.1885613418691272 -1.5511264825991222 0.5378943217250349
Ni 4.178475254515355 5.64920219423551 5.081239250364131 -1.6260738826402898 1.504018987588358 0.8347106981939947
Ni 8.801389160887751 8.958317075322977 6.375025589532183 -0.6742162682189421 -0.09672901469263341 -0.3143955230033037
Ni 2.3679712749261412 5.875886087077938 0.5469559816554082 -0.023442033073024143 -0.3290094162617366 -0.1960342747528753
Ni 8.308434627086998 4.779169140963008 7.147130279617517 -1.7613254788881536 0.7549717903014546 0.9220104491529282
Ni 8.817081952331273 5.062017193434485 1.6415839343350804 1.2475912993490899 0.9960803316851491 -0.27495454339886194
Ni 6.1472617230214155 1.1287199200922386 10.492216024286272 0.5564977957588352 0.5340482085060673 1.9116391116754625
Ni 2.55758405797568 1.286182292486199 0.57414606956639 1.6183510600747355 0.3816478683930588 0.9212745994281684
Ni 5.479705302977639 1.8991410676075609 6.3613766390411985 0.2935641880802493 1.270463061740941 -0.4264308290357043
Ni 6.115028379234309 7.206981277682592 12.459411098146239 -0.034769542270701406 -0.7989661936045337 -1.8459399697054402
Ni 5.735240710799322 3.718878269173528 10.163475541265074 1.5951576526774076 0.1792719676928719 -0.8430295024723352
Ni 0.9929123098194049 3.6438422147257272 7.003927798450129 0.8322249556576634 -0.4092918553625725 0.8016414264438517
Ni 3.0786897825338984 1.8754037624058497 10.499863380492366 -0.7770411113966683 0.5466260451710779 -1.5704043569921278
Ni 0.12250882189274467 6.394070722447903 13.301660630877718 -0.1723086490011613 0.48463957616595243 -0.2697123211633161
Ni 7.381150068683192 4.26397009832804 4.7557755475175165 0.26878826668715 -2.389813648942362 0.8306555542880146
Ni 3.4792475930203834 4.143799990744378 10.255711927191722 0.04650277154722959 0.3061515378269566 -0.39445890411479806
Ni 8.911782373743534 3.278908791626593 3.1250355808693047 0.5123768941802208 -0.5392703761369552 0.8995485206049864
Ni 5.744907028018496 1.6920846825600255 0.43737643496783474 0.8549061993052631 -1.716650247467966 0.09390722897312213
Ni 7.724576166339472 3.0290312663335794 11.77327120628558 0.6042046149164949 -1.0845193384548482 0.2520015341471144
P 2.925235844830445 1.7961196886653514 3.0783571285285483 -1.422908139048956 0.44733081241316514 -0.2993147174107813
Ni 3.0103805265322348 7.504831012168195 6.174922686823627 -0.5498566362932337 -0.6988674911087189 -0.2826889359286422
P 5.979672293788681 4.6019594684730585 6.276342534848113 -0.2395273129395036 0.4016081135650696 0.872596931716807
Ni 0.012898866390277703 7.658211231532513 2.1414845786409007 -0.022723666849760862 0.20863370868444067 -0.32523452260033664
P 2.5395046353026376 3.335911497363311 8.534933302602347 0.36764229814258614 -0.2402176541383089 -0.3671229353040064
P 1.1269967539149406 8.914104501426312 7.937765917203101 -1.533504398641985 -2.2228901755125134 2.877775861723644
P 4.665661328278738 8.16063857191221 8.44713476069167 -0.09956571281048014 0.7754987066102128 -1.0339907335776775
Ni 2.7795499771134207 3.5310900150175986 12.634442393714727 0.2185378551720301 -0.5007760767164988 0.24115713523344276
Ni 1.6986179703659312 0.37103638010033485 6.213440519022056 2.232622315198613 0.5455682933305248 -1.6107917596702388
Ni 2.4299407537621303 3.629457923801864 4.187402545384694 -0.813013158615903 0.47710187302801055 -1.283245815327906
Ni 7.128802979029131 4.977729487425148 12.799655327989573 -0.7548992851923064 0.1360866905546495 0.8928327991477075
Ni 8.13488322717666 2.4134647049652904 6.855397324321704 -0.13107972425836134 0.3220728370429034 2.0877054279468434
Ni 3.6310060089237144 1.224369465120873 7.836075154282292 -0.5909924871015951 0.2641232571113129 1.2841125342035755
Ni 7.283657565176164 6.668220010901363 1.0667559701316847 -0.514145041824237 -0.3270214392974304 -0.8329212103937397
Ni 4.817622469614692 3.82116246472438 7.956754839885231 0.20414481967515163 -0.7636073544892655 0.31490074477449637
Ni 8.262001288223866 6.208466374088871 3.700030332814995 0.9049064424827898 0.10128166706032235 -1.057898136322894
Ni 6.0988932777559715 5.990158727530742 4.261620326268089 -0.10290480448604213 2.4426616459813286 -1.1065943159770169
Ni 2.517038971451018 7.682630431371231 8.925348391102991 -0.3152966946613344 0.43422615671040704 0.4419754616385227
Ni 3.1617979951170634 1.9744351362423365 5.560086858492021 0.8776028695718305 -0.9253361710920515 -0.1831201377943685
Ni 6.710303967755483 9.012518484172535 7.15333459933503 -1.0169535755897323 -0.10291200357489373 0.6435368368572142
Ni 4.291236669015876 5.478055855139477 12.29299747642272 0.9689140556830023 -0.6139390685954395 0.3926406199591367
Ni 6.178039129610591 1.9060613766939292 8.470547705201183 -0.7443227952280407 0.5314038289046848 -0.992229333370175
Ni 8.046992537342062 0.7883586623855282 1.2989162140926602 -1.5965470768257666 -0.8185477152808871 -1.446580285854915
Ni 3.369960155251635 5.712590751099862 8.198519661956356 -0.31704967279669916 -0.5585672766933543 -0.41742194066887467
Ni 5.331964536557206 1.0494082019745645 4.139753775405064 -1.4291626045991002 -0.1187793096244535 -0.795861586537281
Ni 4.814093204128568 3.4985157239119893 4.597293097605766 1.4797603721513095 -0.4496054673799547 -0.9227061896683721
Ni 2.2042336289132507 5.844979673395276 11.011470497052946 -1.0701782392418278 0.4547379035105136 -0.16189336720510827
Ni 9.58495060235402 4.638505335099606 5.090045827453135 -0.8062825247602888 -0.2898530577772492 -0.6893243275049741
Ni 4.501232572836449 0.07540188170576179 1.875147591177353 0.10470997601558096 0.5300897380789515 2.4505227938969605
Ni 6.72765542182956 4.5076276387564755 2.519573039358809 -1.0204898708777652 0.9677164358304754 -1.3360141081688732
Ni 0.8331932347686517 0.8202621166050021 2.0876185882344087 2.611560240859676 0.8951447351103358 1.0480448976778982
Ni 4.243273674615679 9.030883565409729 10.514496470810814 -0.20503107893484687 -0.24202719654322188 0.14387353358891997
P 5.0325851465345375 4.606520790707083 0.9108416828595755 0.5225900872677968 0.14603608845787752 -0.8675161747597898
Ni 0.7864134197115836 7.8317073426884996 4.459363320645061 -0.2032732157034757 -0.2296365361883529 0.4273602828285092
P 8.570733692524383 0.33759129111368474 3.4872091736470443 -1.110899371110274 -0.7514262390420414 1.1163200279052128
Ni 3.1744775494484125 4.115667229571698 6.353082404409188 -0.639457267471202 -0.027134908543579073 0.9971036307433409
P 6.67766517310313 5.6506765610182255 10.750811664661327 -0.08381333507222985 0.5795791030583308 1.1994394222342117
P 0.7455605591210298 4.326510894292332 12.831983584138316 -0.4565618440931299 -0.23485767537797617 1.423744261797006
P 2.9457940466569266 7.2439418099667785 12.382118341041645 -0.08010529009302333 1.0950423494733594 0.6079239727496111
Ni 0.8684204646039086 1.7600437764507941 8.344284776887951 0.5045530272604278 0.13788954809134318 0.9112143869786888
