# total energy = -381161.75690346654 ev
CRYSTAL
PRIMVEC
9.30911442536393 0.00000000000000 0.00000000000000
0.00000000000000 9.30911442536393 0.00000000000000
0.00000000000000 0.00000000000000 13.62482994123460
PRIMCOORD
 96 1
Ni 0.7283358113306446 3.120526898193587 1.9773992854985802 -0.27194995224458324 -0.8395934802075928 -0.4112412657794595
Ni 4.289854082808083 0.9941761948244165 7.730033631919335 0.34523436276103125 -1.9261676443089408 -1.3703676459480785
Ni 1.3157967925526908 9.264319066022336 4.87789316004214 0.8871072095178401 0.3815092859326656 -0.4728811500784436
Ni 2.959227870816881 2.414802926044452 13.013116241693178 -0.31948553593170137 -1.0182275572061497 -0.7925155528831835
Ni 5.397666638640605 1.7830305596828482 1.7459542183522114 2.0790521231472194 0.037744308628309194 0.26538849697698164
Ni 1.911691831534493 4.710477113510979 4.38342092381149 1.1671612789267962 -0.23191427647893606 0.5714225353894674
Ni 0.08937308490984021 7.325807675540982 5.27586152963671 -0.7571672552908767 -1.4293898901185575 0.23782061466104198
Ni 1.8373678611659572 3.163795662506332 7.21016426944126 1.6252997234784266 0.09341743382089718 -0.9405380756434705
Ni 6.3428024181467055 7.758672191844406 4.4535893054560125 -0.4199133396321607 -0.011082740176722849 0.30591885299086025
Ni 6.802849548863472 0.06590946174928229 2.546984905009496 -1.6061141516889113 -0.043387108736383344 -1.1498263871927745
Ni 7.316163432892959 3.1036494735595497 4.356253203981387 -0.04974776084708851 2.3021284896195513 0.8113468266570736
Ni 2.905532898236005 7.96353787519866 2.185449616931877 -2.2789355964428557 0.7459377051236444 2.0868806180527026
Ni 0.9309766163133959 5.409247177109852 8.132156659326466 0.8472785075566762 0.691907514851118 3.002769270578609
Ni 7.2915222067449745 5.7732707915000345 10.511093428928545 -0.1032146224169771 -0.6881560182284857 -0.4929972041020284
Ni 3.065724140984222 7.413155097130155 4.659201579795181 0.5247811813818446 0.24433990383679854 -1.252412117776501
Ni 3.6460729587090785 6.512675140001043 0.8347194412122314 0.5994231343674515 -1.054796100358803 -2.761550685979612
Ni 5.758366899145322 1.4148085346418373 4.191747186650779 0.09720466877747129 -0.08234934893219366 0.9077644807568753
Ni 5.453660962509185 7.089300311915854 2.2191309241952037 0.9143683592266382 -0.6867303415255528 0.8398048248874505
Ni 6.7967334606204695 0.2332901336452471 13.136624918655171 1.807935465437209 -1.4693404623695663 1.4835866878759352
Ni 6.394263203241553 8.364565219826183 6.756212746915541 0.3775451590785949 0.6892487370720324 -0.021047307588602463
Ni 4.373170657807883 7.073744781544383 6.745285708285958 1.0672158141793942 2.3011794954427205 -2.766998082247428
Ni 4.6507498347178275 8.780161328685516 1.0167898958288313 1.8649172821388915 1.0193567857145864 -1.2921094363661232
Ni 7.9244861397657935 4.596086714226339 8.022027041759971 1.5567538560882286 0.3858845321822257 1.7425618251274055
Ni 0.8059272808974965 1.518046614725387 13.20668438365975 0.10457627865119408 -0.7729324885449332 -0.2603655898410935
P 8.528349780781095 7.334614097881742 10.061446440959239 0.8388735713224327 1.074909840389542 0.3611862581045973
Ni 6.145979809742152 1.8530444100262546 9.92710567833582 0.31312565515194457 -0.5654339219062003 -0.7547822999984678
P 6.09254549236798 0.1848957708749728 8.540806306927156 0.5714117367561901 -0.48966942528037605 0.8892360829353848
Ni 8.800883417618428 9.19787060654205 7.0708235814064 0.7997256974783775 2.53605491143251 -0.6829425923483464
P 1.2761213464466412 7.6854653152188845 7.632316787660632 -0.26092789010246675 -0.5621974172467737 -0.3641530540424051
P 8.361679394323398 4.3429718902884025 12.986615985374527 -1.527750269767027 -0.3348141958689717 0.4967769828594347
P 7.170522336147501 7.893058569128997 0.938495588115333 0.21515068386735203 -0.3016438797645902 -0.40901340489020527
Ni 2.1571731815618334 4.881848602803862 1.3928390243625608 0.38108119725631145 -0.15997455291584062 1.1224109712942991
Ni 3.7058654013039063 7.996101157807519 11.592237233469513 -2.6614036467443647 0.29006954466342943 0.6135351482888015
Ni 2.66404515833994 2.7278777566386685 3.437067512125505 1.8508145241889222 0.6194152612186622 -0.6656958894527567
Ni 6.17313449681192 5.260022071272223 7.111343364199878 -2.1710539075675124 0.46750394492693037 -0.189341436113732
Ni 9.009649619958704 2.669146553099704 8.067793441499806 -0.2790827066346226 -1.092836857181608 -0.1594212515155319
Ni 4.888337055627869 0.6582176989045568 12.436077745093455 -2.752079770374699 1.544764030716204 -0.860112168986235
Ni 5.841841729092048 8.11851601381281 11.018332184818941 1.3227924672722766 1.935939893204356 -1.204796058560435
Ni 7.221843484524472 3.809987847267342 1.8815749842228338 -1.8289835443567597 -0.08657187165397348 -0.5477390757295986
Ni 5.6222397174445335 7.08472953668402 8.769009009484424 2.2823623627362175 0.6039914704644244 -0.5530193502919314
Ni 0.33427168436790844 4.566846785502946 6.256249064026523 -2.310200467994408 -0.4744916890986732 -2.1048068635138204
Ni 4.8808246002060995 6.073471116706013 10.676921340521721 -0.9530822308570682 -1.771845404582871 0.5747708830364101
Ni 2.4717933251672193 5.933741307684005 10.423880989499985 0.25448881934534234 -0.8021757016807668 -2.2252090534536775
Ni 8.055418835561566 1.9736626069281982 2.6917081230627784 0.47411270849269954 -1.7726416752319216 -0.8617358206325869
Ni 3.958794042951341 0.7641554222003907 10.035777488567682 -0.7753241287055614 -0.5503245770685877 0.6194669403922041
Ni 5.0838656971134295 3.3594918680533454 13.454560968854404 0.42337378737693543 -0.2517140848136826 0.6167456848062991
Ni 9.111891624788067 4.740722426603085 3.994378133223601 -1.8352017573523296 -0.21270299365780787 -1.0085375836118953
Ni 1.6984851815657338 1.1268124585782864 8.34926848283851 0.098481735717682 -0.4934170652482663 0.08115584284472475
Ni 8.201236805483003 1.4161304289044039 11.618723526116376 0.5406248332823206 -0.6653930135003573 1.4520518504924476
Ni 6.264047309264213 5.378824990841769 -0.037532487942367534 1.168116443751214 -1.0043374294876186 1.2913825855024277
Ni 2.8222349414652568 8.770386758434142 6.703307187246394 -0.45439363279721745 0.7578190299422626 0.4245559806104946
Ni 4.161509320850293 3.9255605040966723 6.369240303398038 -0.31173623100358566 -0.6245222434279245 -1.0452665636018128
Ni 0.4495203840117644 7.32049217114714 0.7258521395753434 0.6639596234879404 -1.652676829939799 -0.631091669115326
Ni 4.133246849152037 2.9552063333420304 8.44604603744163 -1.5875412737827304 2.019910322679741 1.9667921026985224
Ni 7.422399047853597 1.5945023723201746 6.02108500562737 0.40803175770322636 -0.8331785778201845 -0.051722625185272215
Ni 2.0891235543832267 6.111377831052292 6.2492327844089415 0.8043796513106212 0.22155247362863778 0.5162086092214851
P 4.982638385767306 6.745831222397129 12.766165913393774 -0.08578562830725225 0.6066607897664713 -0.8053520425262194
Ni 0.6241351688051977 2.0789486922072737 4.060336002368414 -1.2809511057564584 0.49713359486790515 1.3032058033896006
P 6.355406959213713 2.5434455796670465 11.975994308830037 0.6818035936478968 -0.7743401675257374 0.050309803998145615
Ni 0.7812506801143159 8.093232458762593 12.076885561141806 -0.537042515247701 0.30522465513731306 -0.2473702060226901
P 0.31789881374113227 1.6507852787390331 6.164636206161939 0.8186906686166546 0.511629474491235 0.36943589970789925
P 3.9840217433144085 3.3864789910616606 1.7209117693681937 -0.9857856346273604 1.6106387790321421 0.08055343337403546
P 1.6625054539261557 0.6891816756380017 2.6402603707282655 -1.4475688750204296 -0.3344460138962756 0.30820559214250787
Ni 3.528256805279195 5.570574131830133 3.0197799371569585 1.1968989152005451 0.9022864883614395 0.8000609693306092
Ni 8.278865511507956 9.298818644452421 4.351130398258215 -0.07776095823056285 1.602226386598731 1.4796657555549741
Ni 5.132719930141246 5.550112698103925 5.037167455009633 -0.0772361960753444 0.8863816442057251 -0.99553037271895
Ni 2.579918690376456 9.044437780939068 13.626464939498122 -1.1931826426912224 -0.8713121514671123 -1.5001808447891904
Ni 3.2662797043133467 1.3162436300498963 1.393084784986024 -1.528353964789297 1.2498772671697895 -1.0311401515027596
Ni 6.321289054479159 2.741022226348134 7.543223907097998 -0.2132912620611101 0.5089401005845299 0.5970536056940104
Ni 5.862582436254009 4.317688335238184 9.443437600423021 -0.1464441225295736 -0.3450003923733542 -0.5401759186703601
Ni 8.412758505722715 7.277968135996404 7.75807361578044 -0.8018473718070707 -3.819605402485028 1.4951543381088768
Ni 3.3663713036874072 1.5902108705240956 5.487986460497651 -0.14452453690935754 0.662815225470852 0.7242501928478816
Ni 4.400632545656978 2.9833477865514597 11.082313728950071 -0.5294590464734881 0.733176291692918 -0.3788440803956766
Ni 3.7604540488791933 0.5224759145451079 3.4205000810051533 0.12183686550385471 -1.2966325210474572 0.29667933667046326
Ni 0.9602444723803644 6.517860316791534 2.9040238907714837 0.9056957711533047 -0.07203588282132754 0.6256201044777935
Ni 8.490182411228115 0.821454883925392 9.584945450319328 0.4223456032227372 -1.2313252151992147 -1.9757860786670165
Ni 7.903950233123385 2.1411335772350566 0.16690032158646875 -0.24320501890140694 1.6755984717329786 1.0539455794330495
Ni 7.314878775088494 7.11205178781524 12.412179386284572 1.4467746612539083 0.7116602719980132 1.1199565962165356
Ni 3.2473542744837838 4.644242763664771 12.640041375250224 1.079829903398979 1.1601570796948213 -0.4540565611727729
Ni 3.504658199958023 7.73593933417407 9.170396616844071 -0.3641918777001405 0.5230341167837508 -0.8450496182261575
Ni 1.1173078526481417 3.0362235570541256 10.959813229091152 0.32395257056411947 -0.9133129213789304 0.6468574165900149
Ni 8.179174204058475 7.669984257763614 2.9004398816793135 1.3810408093912085 -2.8544747251038585 -0.9726118162495636
Ni 0.2385805034298712 5.389502545202078 11.560368410804225 -1.625516210364607 0.14170480807237532 -1.6119929790671916
Ni 8.923233109822043 5.067211691227996 1.3363857611478924 0.48556080242864114 1.777060116014591 0.2794051229710478
Ni 6.970739429323961 5.615760573735051 3.3235866133299683 -0.09652126955720151 -0.2945772027257959 1.050671536667468
Ni 3.9172195374821674 5.5777049135563725 7.994341735162273 -1.8286032781992057 -3.271673751128649 3.530935052161971
Ni 5.131602836398231 3.8459396475633447 3.487139377333205 0.24341816335347757 -0.8811944435778308 -0.09426332676096023
Ni 1.290317746097445 8.435686854798078 9.66984178205404 -0.9631766389785927 -0.755010356848874 0.39400407596556664
P 4.59650562437997 9.043041413760301 5.237030420218089 0.5931475857713849 -0.553806364969601 0.8145357659080165
Ni 8.121857985927328 3.2823193086401243 10.346982118053802 -0.6064972676054136 1.5317138824004652 -0.6067798318428389
P 1.9181430479003994 6.2647454928535975 12.330239629323039 0.5754990194516862 1.556148618404062 3.188599608215289
Ni 1.1458495977821512 3.976323105602136 13.363246933566076 -1.2286155295775356 -1.1615076801854447 -1.4707103461338995
P 2.0789673104363238 3.830151389328746 9.282323824425365 0.8685703270559171 0.41596875316211585 -0.7009691108327541
P 1.384600458007832 0.7322596031029815 11.134905571459722 0.1422830491733485 1.2499531147130474 0.13187393802488256
P 7.503779327032172 5.963837674943709 5.661444122355611 0.833407920222171 0.34792836465342664 -1.310316960513085
Ni 9.036180596355289 -0.009544635122602667 1.2854714210756688 0.12333273332309082 2.254383103914472 0.22284856673224201
