# total energy = -340861.7609878958 ev
CRYSTAL
PRIMVEC
9.26295743061562 0.00000000000000 0.00000000000000
0.00000000000000 9.26295743061562 0.00000000000000
0.00000000000000 0.00000000000000 13.55727451379497
PRIMCOORD
 96 1
Ni 3.249528882979507 7.014930399075311 5.919689411276146 0.8585882761425407 -0.6065024098117361 0.35258386114756696
Ni 3.4573803879442524 3.5567719226949857 11.289806623492225 0.3429432527340094 0.37244537595818433 0.06952931434938993
Ni 0.5934035879964117 4.201640502963073 6.533928169739922 1.1488676228239312 0.02356827423824328 0.0019676652493320953
Ni 3.8249530703280934 0.954881244297682 -0.0768380856537079 -2.190969415544517 -1.827712648064136 -2.793771236576214
Ni 5.3099070617004 4.988111915638846 0.6489229767974809 -1.0588288756672797 1.2830028460791647 0.5583641595436126
Ni 6.808042241698085 0.7308853305801829 13.165673171443288 -1.1647696387661683 0.1820721561458284 -1.6625771197726464
Ni 2.502434302943564 4.982878344610498 13.089535365382046 -0.656162753151341 0.41729081440764904 0.6134230481909694
Ni 6.066672169441821 7.261834533164855 0.8173772706157374 -0.9819480060488252 1.0922555307568416 1.2484364209582048
Ni 5.275467385446605 6.0323529116364645 11.200193066754808 -1.0989221441437396 0.49056699739398096 -1.1007738526404975
Ni 6.406956178817678 2.803072853909996 0.6973524978727149 0.7536607847995149 0.9344980400969777 -0.6871324620599779
Ni 4.962073741903122 1.3910553904619452 4.883696152700899 -0.11303237983834727 -1.6224475987416123 0.5998861900467991
Ni 5.854235500478789 7.06758104991624 7.079445972270594 -1.4276461679545736 -1.8971730568488037 2.815650553147809
Ni 3.9888611045698665 5.280413804790211 4.562877322367463 -2.7137415369161326 -0.03029093767405751 -1.240025056966058
Ni 0.0012986666516358672 8.494873130401006 3.7990195680129366 -0.8044382724626984 1.7724714682026441 -0.6116656991802304
Ni 4.253763165222381 1.0551990748056452 8.51413081919381 -0.7218549531428278 1.2303391971368616 2.2894328964297537
Ni 1.0825711144317791 7.573412637024168 5.802187868175816 -1.9300636369292372 1.2913499324922795 1.0573988280889726
Ni 3.272612173249668 1.5089172626118366 2.292385624442671 -0.2872729557548988 -0.13913087669761198 0.03947337550427396
Ni 6.212878691762937 5.3840940888969175 4.487675075021023 2.789156363512022 0.17222405970715501 3.8997088928058385
Ni 5.396904759219402 7.904174326015705 5.102646533428768 -0.9704752295225351 0.06673118277896249 0.20948165850703276
Ni 2.943119509445536 2.8424033717619634 4.496297035929316 2.3132690796174034 0.012657026642378203 0.0534815168579079
Ni 7.426900437103165 3.291879125000044 6.1040676554569355 1.3646322861261981 -1.7520918761050277 -3.494671441844246
Ni 3.8997236638516646 3.239747199783163 0.17004474363341962 -0.1288739748562942 -0.6889402046926781 0.07865801612353551
Ni 2.1492099418392097 8.423687301457912 2.056597965735639 0.9710143898554567 0.1477607844584681 1.0416564776530512
Ni 3.961998527610209 8.248052362929613 7.683979003790119 -0.6914683704311704 -0.29601367806200635 0.188509684241056
P 5.154613578000862 0.8836305746515829 1.2836152718766438 4.22120605985093 0.20232293597506446 2.329450831583588
P 8.3211463611326 3.888589588849765 1.5187943542711757 -0.5755980069233957 -0.2526774771682165 -1.447047969519953
P 4.068902320952074 8.8178261461591 3.645754672021731 -1.3399232134152925 -0.44701842337906883 -0.232559880482735
P 3.053987848628344 7.264863520290995 9.722558664456129 0.4320111513369592 1.1116015393836212 -0.8505672056102771
P 5.782845886469106 9.613745775558613 7.0946844637727775 -1.1534614128422007 -2.2639373232618105 -1.3397625194677119
P 1.4552940012258164 1.146642991959349 0.7637882821727345 0.4849442518905648 -0.5363740284257665 -0.9141744980482772
P 8.940115712028547 4.9509952446466565 10.231010742261258 1.5792222123940738 0.6538027375595966 0.3200424368764359
P 5.041725914067293 5.321800699223227 9.037387882086739 2.080638493797733 1.3510126384602346 -1.0058901186867193
Ni 7.528440978010671 3.894981029574649 11.549740959998719 0.2712351855657458 -1.2542501994265043 -0.4158916200672773
Ni 9.313162802337615 5.147268052646032 13.176409865565335 -0.5592298499780175 -1.2115261781954167 0.511435613312874
Ni 5.395385634177546 2.519394778258438 7.160599669857234 0.8210956785137213 0.6316899648209573 -0.07529527029888969
Ni 9.491752624331477 0.4541202001648291 12.595738212752044 -2.7013814726888827 0.3760269226618556 -0.7783644581937822
Ni 1.0971880614808618 3.68537882562874 11.360115250353221 -1.026360213615613 0.979263003017494 -1.39650753756824
Ni 5.1346241155598475 6.665263013678718 2.9382814667055253 -1.1020051539444375 1.830443416731738 -0.5276772719827171
Ni 1.079495812517777 1.9743716176621269 5.601472545724769 -1.6645987781883655 -0.14138521994942746 0.8734217416109473
Ni -0.32931388872298756 6.110587851292075 7.940008077384131 0.8853182359382173 -1.5704622068132565 1.82082671957758
Ni 8.49174225074157 3.8632368739743916 8.461420885424417 -1.4585564843801848 0.532937749050708 1.1147316003721703
Ni 7.918670854616348 8.16254600157975 10.92075094160106 0.29688451070273386 0.44685207300453367 -0.0988512032419588
Ni 2.032589306004006 1.9770578753580925 12.403686534518366 0.8281453862716512 -0.7183788216687692 -0.17111668557558918
Ni 2.2773814857670662 0.5420877293416504 4.29080943773702 0.3756361149813402 -1.3494216398240308 0.9960096263482136
Ni 3.0356286667200534 2.661868328677919 7.182495448966627 -1.3588449900204598 -0.913154284313879 -1.7046151706803028
Ni 4.364668556235478 -0.285990109861603 11.228907308933168 0.8896870544298743 -0.8856005430653263 0.27853326188905575
Ni 2.860605083391525 5.831476413723658 2.0785604381395526 0.3629261236138395 -0.27446526246726927 0.7726519811900371
Ni 3.1545650419483313 6.767461224573856 11.766277413983248 -0.4299290719969499 0.21979461039726664 1.1730599037994185
Ni 6.687077278761475 4.713770901220162 7.400794643777164 -1.8058762689153351 3.1040329399168023 1.3270664120572824
Ni 6.084920195859243 9.000806610042229 3.2827717851149623 2.066892862076866 -0.17945220202447804 -1.9825262256043275
Ni 0.8184137955680773 7.116267154916226 10.106866732285836 -1.3696742194254798 0.3470102237145314 0.3052421386388098
Ni 3.58277304460042 3.958200715005568 9.007751975629937 0.9159686138342226 -3.449467848724414 -1.2195701315458156
Ni 0.9377447727889349 2.483195140065906 8.472781902886839 2.4850128572540298 0.0009590214791596385 -0.43440407704916795
Ni 6.872558741189125 5.761309510113518 12.838983478600532 1.8989771999370781 0.314500166901968 -0.8466537294884838
Ni 7.752224769999765 7.997730197495892 8.542519931561381 0.3864290918317861 1.409284120507618 -0.8557464358183714
Ni 0.6197011245441595 1.2540932997979801 2.6480479959800536 1.381045951597531 1.2921629153118777 0.8295263257795777
P 8.293616851227736 1.5082040148787699 4.049246324983662 -0.24754272704481237 0.3936626334657478 -0.667186100845038
P 0.1951204960773815 7.034465976595282 12.443382012898681 1.4261587847757697 1.3931956995861878 -1.6040302725766893
P 3.953356188195257 7.188444120319556 0.7820594659840879 -1.7629468165416606 -0.06776553758074781 -0.6134317899417178
P 6.129484284739558 7.894438957607222 12.030372671031214 -0.6440235466856457 0.16553147817832783 0.8365891461636302
P 5.24506635869433 3.4332040686805603 5.145961975628337 0.15907389547844217 0.9183854508058313 -0.6581023933762149
P 3.208845973321984 3.672623733051689 2.3281369354887036 -0.16792054723579466 -0.021914283574588064 0.2970290067003981
P 0.4689890996598783 7.968218414670558 7.941146494869766 1.6380901903748755 2.417413412937501 0.04508866480852235
P 8.353131353629736 5.702517518402157 6.059532281745095 -1.4520194545926155 -1.474122971359874 -2.479835941038781
Ni 6.636010593665408 1.1073587888952425 8.844548852459415 1.9343632927458558 0.21539159623356452 0.13747637181332453
Ni 5.194036725428552 4.307914415190022 2.8181909269637395 -0.42034451363230835 -2.1734617456780567 -0.32120328995375647
Ni 6.210442533921422 2.02038072792372 2.8913460606867027 -0.35818295250189924 1.0819464355213495 1.1385459291829487
Ni 7.51649176274241 0.6318244834147801 5.810959888996781 0.1225500895207954 1.1375303434342408 0.2498469496979568
Ni 2.1480613351002447 8.896987381571938 11.129017427065044 -0.8953725348504258 1.1746647863926931 -0.24457567399668845
Ni 7.533165086372542 7.67171114278137 5.9206925895812255 2.543515481475613 -0.472913803088592 -1.0668003239085306
Ni 6.1297436475515825 3.3185286539355388 9.455114848245776 -0.06809361034412789 0.9114447578219399 0.16878932299399316
Ni 7.814721944740045 0.8066248294658164 1.7253666447951863 0.18700558889170377 -1.308816207597843 -0.3401266092208207
Ni 1.7776912395295708 8.354706056417026 13.269521115082053 1.8437337060827408 -1.9450521399182696 1.1849607690020623
Ni 5.721895625643399 8.200255501856567 9.356119768079138 -1.4461033462184965 -0.8099373479040568 1.363800534253522
Ni 0.7946839508593699 6.574152562997617 1.367834082123957 -1.611034214698348 0.4514008687174807 -0.05903355702438866
Ni 7.054362809460574 5.860034111919047 9.645337092358927 0.5941837403453831 0.18251618566178243 -0.25879850246428976
Ni -0.09902935310965687 2.8120486597975507 13.0852373530685 -1.3521742628685036 -0.8424162943683686 2.042379193206218
Ni 7.978565138278813 3.718308639798252 3.614043863068733 0.33986924179437594 -0.7431534575102878 0.8212684566461598
Ni 9.12153073608196 6.307472014491221 4.090772163780264 -1.390329433781986 -2.08942703862364 -0.42001618375861216
Ni 2.0848231237541817 0.05992577771821027 8.825718186010695 -0.7489435818295036 -1.2956513880811105 -0.6713392037814632
Ni 7.189527886355514 5.5415921564986625 2.4809266417564504 1.136518871450591 1.4760291872436515 -2.3984810948093727
Ni 4.32835776255208 4.667437587443539 6.689186454200686 -0.27086700359304966 1.1579410458801092 1.7862980896730913
Ni 2.1242740600545895 5.215387842632695 9.813799722838999 -1.7185569775723757 1.671914080902856 0.7632872521456855
Ni 0.1886753301985781 0.9404866082303343 10.02290635855479 -1.4940868160763106 -0.5074162077408357 0.9147134012708827
Ni 1.1518673000301238 4.012037024415751 4.0334251934501815 -0.9905668580660876 1.3682914801453403 -0.35070772717077664
Ni 5.130863354785495 1.8510075487142919 11.210822310569018 0.6030391338534841 0.6139280128518458 0.3412185567334188
Ni 1.1894749077736446 3.915257643700405 1.5286908981414165 0.34164973073356647 -0.21114181981827507 -0.407921200267291
Ni 7.887241639573548 7.973563141189773 -0.1278427089340401 2.1845100330724185 0.36777779527918597 0.2953004540450656
P 2.331152954474243 5.290973576422627 7.6054550598582535 -0.5217598780570175 -0.6051348400402482 -1.0892457973962404
P 8.380577496916448 1.9924621738008206 7.51054031250221 -0.2207099231226844 -1.8457839037435502 -0.26849644647834403
P 5.438226812949414 4.118977869587906 12.12843311877881 -0.3688214060523519 -1.31760809485786 1.046993316484932
P 2.359655074924197 1.808925932463352 10.04538477769548 0.5079340279175187 0.960407817984204 1.3424971447900556
P 2.398364974618821 0.4303810924985495 6.7311735882843875 0.19326905330291233 0.2336310020597267 -1.345994616420353
P 1.9479258737932226 6.392932061053222 4.219660660624217 1.1899155419041765 -0.9511832140621425 -1.335016005921662
P 8.019692669899806 7.638836906357293 2.083630981114627 0.28631470560668754 0.25991950344261044 0.4632060888825248
P 7.220614371968138 1.2942019060860208 10.879062074751186 1.1992044234052701 0.14492022968587945 1.479251293725375
