# total energy = -340873.09916704794 ev
CRYSTAL
PRIMVEC
9.15508973840999 0.00000000000000 0.00000000000000
0.00000000000000 9.15508973840999 0.00000000000000
0.00000000000000 0.00000000000000 13.39939924281538
PRIMCOORD
 96 1
Ni 2.414499235182715 4.570641842954919 2.9340935966885726 -0.10744048757286657 0.6100559314909494 -1.1092816330011928
Ni 8.449790616280382 5.594428043289263 9.411215093052279 -0.839582167353683 1.7424427830510378 0.8928106876605204
Ni 2.657347140876946 4.393344378517217 5.302731326224576 -0.9544778256530142 0.8058783473433346 0.12305711106420097
Ni 8.652328662637672 3.0766136224110263 3.7442210633759183 -1.6695846614387313 0.88573578309161 -0.233163832615321
Ni 1.6181437697219325 2.363340594716027 4.1045443317896195 1.0046048242163925 0.23958259165747126 -0.5765739976834199
Ni 6.45374305966082 0.6845498497064192 2.8671232010411374 0.8728054481831873 -0.4659440566389782 -0.060787306490701756
Ni 8.20165106881991 3.909095071279387 0.7266092466584613 -0.6211098753122659 -1.1320150700429665 -0.4533939878881095
Ni 3.9316623670471733 8.756266394423339 2.099578802428721 1.5658131380770195 -0.6772324293374465 -0.11854945300183452
Ni 6.575304338851351 6.10684756110619 11.058470216560178 0.6133752256721694 1.8422481226761498 0.7589343744936284
Ni 2.217545793457615 7.8682043968303415 8.42566237774245 -0.7599129363568139 0.43886622658557967 -0.6165387110018156
Ni 1.5616294018620787 1.0343145533294564 5.970785535560043 1.5212741751243801 -2.432065615633037 0.11183553131676868
Ni 3.993541617389754 4.1704820333345785 9.251575049850818 0.08038425478602285 0.2121484067059185 -0.7001980369946844
Ni 0.24290375174055315 2.215577449202007 9.802357139455067 2.199536588388238 1.889763137537978 1.2705605065507537
Ni 4.598482470309822 4.254534910593824 3.482034862002055 -0.04437569790189777 1.1571288343914587 -0.31172363259809543
Ni 5.122181058465862 2.5496741325504044 12.256041988976635 0.7677630285288519 -0.09987141697635704 1.2600225831339074
Ni 4.150285905763083 6.552636337098393 4.829465379933039 -0.0971452762944456 -1.0239282071353528 -0.01597246416885636
Ni 5.934887513882532 2.726687789211716 4.34357639615484 1.688621623465524 -0.5958649847025479 0.5512455462209603
Ni 3.4753360829702955 5.889524045107938 7.156083079402112 -1.567771547354971 0.5073822691791069 0.8495171670792079
Ni 1.4880041716127759 7.961485604367042 2.472403345637924 0.5632718812578751 -3.35181709354846 -0.1032094802106545
Ni 5.212450241537004 2.2820800197728768 7.7458713435898225 0.40073830936560656 0.406675500785648 0.1488761290098339
Ni 2.000515240325313 0.8650003269889185 2.290976020299269 0.10721808714941536 3.69422967058998 -1.084190751470836
Ni 6.974283141918327 8.13637528025021 5.2326390450368505 -1.0666828244940598 0.02185309131934946 0.469552599925843
Ni 4.343018851200577 4.9211536018861315 11.504027368786488 -0.7378677836313163 -1.0383132722124313 -0.1928299088829647
Ni 5.438727435125884 4.557156396031614 6.8890199618191215 0.7743247409067697 1.1298278325836606 0.14466929001733794
P 3.2664718697263764 2.8207746446297817 1.8148683342080083 -1.1921786269067403 -1.2074486656919334 1.1452503377863177
P 7.004156199155764 2.10255786857186 6.527463502841558 0.18082105734754667 0.4226399945347044 0.2500109860796469
P 0.7675343280138995 5.272525939236075 13.093075348374711 -0.7507279274234361 0.4161425597358188 0.2515477344391474
P 0.4691653816771791 1.056973399992852 0.6900218467370097 0.5209754344825093 0.33573747901418954 -1.1535367461648263
P 3.1929107251040003 8.093767493433466 6.39405919979496 0.10314391708004172 -0.3518055882206457 -0.10593947754730787
P 4.774406671313379 0.9120410081710831 4.045519638372149 -0.1655564178789923 -0.36651872606110425 -0.21545381693006765
P 3.6514067654068274 6.430864490847961 2.4742261239695127 0.2346015935031121 0.4740512591271449 1.5584957784799998
P 2.014348580651935 0.867408115543453 9.656745439987876 -0.8944981026652724 -0.19464613615609705 0.12487385255796558
Ni 5.302289135398781 7.248734416777018 6.8742399852318945 0.6422991077953712 0.4540586180553019 0.9045297758696615
Ni 6.889351376061228 7.727261793039243 9.301018942042734 0.41091190746449874 -0.4684208003142449 0.08033823203943583
Ni 2.5154981832193113 6.314118788766501 0.6445549254503753 0.7357247691463845 -1.1219754264187773 -0.1683301239693875
Ni 4.919011310928865 2.090317513828846 10.100735240881349 -0.6165469385319317 -1.0241544642135456 -0.8165173151144196
Ni 1.2085267525851124 9.111154286164693 11.67229699940812 -0.31217923207827525 -0.10669872431083559 0.0003193310126317081
Ni 2.540592283705924 4.012877166542518 0.15023227316861293 -0.8136595339506503 -0.8093457370666448 -1.1847769351260307
Ni 1.9192638204717238 6.639582222658905 4.785836800630247 -2.0727030410007403 0.8809064800237667 -0.3602575756427408
Ni 8.33815345417394 4.517432462426574 11.777414822238198 -1.1844748305045794 0.6272776946858746 0.3464561509832743
Ni 0.3648834185240195 6.797937806794965 11.251301121455974 0.42289479085798776 -0.17721148561941738 0.261770183498104
Ni 0.7367503393651453 3.12536447432318 1.8981988749008931 1.9809079732746142 -0.9549910178440069 -1.117111927678889
Ni 0.4837604254552739 0.7282379370913574 8.058009544626238 -0.3883607616368602 -0.8304660639850279 -1.9429212096181956
Ni 0.9703479425669748 5.6250060424228945 6.890547030757891 -0.4736087722730876 0.5920664368920642 -0.31059337564839407
Ni 5.775982624372815 8.828243708551668 11.099982139156474 1.3003019994792444 0.8677612008910605 -0.014191203898717496
Ni 8.452875881462427 6.784800253274976 3.8168987418556615 0.6035204443652767 0.10729290625140878 0.9773609008987749
Ni 8.027420559385133 1.3327704730170062 4.876322959323984 0.38234926533545766 -2.3308101738249603 0.4664554490577579
Ni 4.746593509227158 4.097625830608397 0.9210798280946266 1.2974575880519137 0.7019841823608297 0.4583341055022042
Ni 1.8459864836257378 2.6157555690014695 8.092365849221682 1.0143778444427562 1.4610589390870643 0.17577835271731662
Ni 5.4001661978950874 6.678244165874872 1.181560436283282 -1.0001385609149227 -0.8725069431061618 0.7355139386871591
Ni 2.6822581395723395 1.4616466687667495 12.828718475265942 0.5642141905664863 0.9208722217834269 0.7751266679827747
Ni 7.157430708585486 1.7466354517101155 0.2082590618239389 1.6811312286257498 -0.408934986243786 -0.8713692299572927
Ni 7.5768986020899085 4.233276792633256 5.70917610482852 0.3818592130729166 0.6451016102411729 -2.2889040205094773
Ni 7.662141640992079 6.425289041305332 7.156351323526248 -0.7262409980256653 -0.7790887379543162 -0.476424901565644
Ni 5.121512736927912 1.621970597158417 1.1660388974416172 -1.4631908978284025 0.4399059807040036 0.5698968427735606
Ni 0.5098194723816126 2.9027584716482484 6.136656532716701 -1.6348709121066294 2.2688776979862215 0.3626728699524528
P 6.177671333949837 5.870737801328831 5.299247814646627 0.9865392249639332 0.9795720496174808 -1.4855695226339187
P 0.49770545787454 4.317622632758453 8.475923819432163 1.0712115656023486 -2.4460058798632134 -0.555647789053714
P 7.843009590358558 8.212765347546924 11.66080003793746 0.466801519543267 -0.9401745216564646 0.38354174298166205
P 5.274146390088365 0.1313773662177998 8.879352911534726 -0.16603258618446243 0.48135961986310005 0.6617165930900346
P 7.433529899565153 2.638991186307206 11.289596861089503 0.20198355035777474 -1.414858272161286 2.010656922402273
P 0.671389408462528 8.89959847658985 4.121735758967206 0.13577095908644357 1.4567004050080525 -0.9376322148505852
P 7.018154331094483 2.709348049583243 2.2391197620080354 -0.1790138289354788 0.6071233312251866 -0.052406281515858126
P 3.1222975193202553 3.0915272633058426 11.522250574557596 -0.5795585342330406 0.9811609913711554 -1.3210497735495572
Ni 0.5172625601946794 5.885852854193988 1.958938316593134 -0.3312840712285262 -1.7777129191072414 0.048221554010549214
Ni 7.434363012715201 3.838610036749497 7.893599699763509 1.248488871462695 -0.47769116987257726 0.9995618624758463
Ni 2.964445465110049 9.0173787037917 4.268150359788895 -0.3878216013039385 -0.684731051707337 1.5002350950658938
Ni 2.0583754063506294 5.766150058184335 9.388824490513022 0.7649291586244826 0.9456987939088036 -0.7372316927092142
Ni 0.293891192032451 7.545560730522715 0.22375130437900856 -0.17730893042923013 1.4522279710589958 -0.7718806502416513
Ni 9.082334064226766 8.309012804101378 5.87463146091911 0.1618116061245794 -0.7205246643671784 2.1311686413368007
Ni 1.1917454734198585 4.387347794854783 10.815874075828873 1.2162441524963763 -2.1581690811850445 1.0253677677953568
Ni 4.3897647384988785 7.231522848402399 9.590967952510233 0.34020657052913666 -1.1982230333286072 -0.587209365910079
Ni 8.703871816865918 9.099298445183239 9.959866793315694 -0.2538732972485305 -0.6159270455597458 0.1247093019556433
Ni 8.494879432368148 8.968426439909205 2.0135951167810675 0.3650773656288874 0.3340937727631795 0.6186567857860829
Ni 5.055275663954308 0.4727166409178785 6.203010790836684 0.0713347429892449 -0.8984766276970462 -1.0637232276451034
Ni 3.481259425916241 8.998656545639522 10.897396486333468 -0.28103623081656764 1.1642176229174401 0.24704059059741326
Ni 7.121652618581224 4.848572051846778 2.869293872776043 -0.5000541109488097 0.20688381587286953 0.28529089232786353
Ni 7.759011643636679 6.05159659560575 0.37339307427093904 -0.8700682517576822 0.8422530293176269 -0.25258028946871985
Ni 7.34260155004562 1.9014846365443243 9.336111315838881 -2.674608832580729 -1.4471652118241076 -1.2277673226446275
Ni 6.541064303893331 4.099246281460688 10.084655241576465 -1.658805054324724 -0.7271108022251285 -0.6396701548129563
Ni 6.646466850008753 8.402229926011152 0.05214830564822855 0.35540436131549763 0.47270682928410845 0.3985814109236039
Ni 2.408063207221354 8.460437985439786 0.3326309535096862 1.0279260154408363 1.7553006128503126 -1.1281440171233343
Ni 3.3260623476787154 0.8040603888352926 7.885747379447068 0.36442919052192724 -0.6767148662710797 -0.23920181127928478
Ni 5.64973393932707 7.617007049456507 3.5335285787466746 -0.0907141759571212 -0.06463187704777255 -1.1689196563787998
Ni 0.2526136397289156 2.1582665885503487 12.228278264374046 -0.37182316899315315 0.49054514301710994 0.7455078166750774
Ni 7.060698032284301 9.131542670616968 7.5085009279799175 0.8870838124790723 1.5429138648813427 -0.6711815951576763
Ni 4.706347735517144 6.957803980708584 12.358708078822286 -1.4898002728858148 2.294778219902067 0.09394322441738014
Ni 3.680043885553535 2.3424944557857033 5.343894439908599 0.2966222581802827 -0.816136534736233 0.5065901122951146
P 0.5996318164836626 4.832806987622792 4.093061102953298 -0.0012387575031075442 1.041502211463374 0.8325039203506629
P 7.225306542590502 7.270670011365096 2.097394398059474 0.5238794955031816 -0.16061270072047176 0.16907754365837332
P 2.7159763344253838 7.027117163774672 11.199833954471082 -0.485786545286202 -0.6476678283064523 0.06114006184443019
P 4.708865385146411 0.27291230430349334 12.89023518406191 -0.9144912579577475 -0.17248348401612876 0.5268478341028862
P 5.976552326474496 5.260093327612281 12.98381667853621 -0.20993031600867718 -0.8811196244758374 -0.7245898355754875
P 9.05417300873723 7.770913260065937 8.02061191927864 0.5103223256440372 -0.09678455052091718 1.1449554322537183
P 6.0237834335195295 5.858927735795183 8.806138744806711 -0.4557815142836796 -1.2413736005741522 -0.7337730447366524
P 3.5497761161905244 3.7044879746813186 7.134536576120374 -1.37937242054985 -1.1622216755333339 0.3597916917499158
