# total energy = -340861.2508887361 ev
CRYSTAL
PRIMVEC
9.32013126565768 0.00000000000000 0.00000000000000

0.00000000000000 9.32013126565768 0.00000000000000

0.00000000000000 0.00000000000000 13.64095420059853

PRIMCOORD
 96 1
Ni 8.629649525802428 0.20598888558293402 4.59334570758747 0.1830041810417945 0.10406411490146594 0.7381637176051803
Ni 1.9772845306513414 6.8013379764943265 5.463311010911387 -0.2599120472434427 0.06815223149620521 -1.380507819705874
Ni 1.5928291077028522 4.751999509483839 11.363310257542906 1.0685381325352437 -0.7727268002920306 0.4451548878077688
Ni 0.5883892195432984 5.615733372909979 1.138489475000367 0.2616454849947817 -2.260857913005539 -0.8056898854816124
Ni 6.651638024896784 6.125600484857132 11.268532908657924 0.5870137049595052 -2.48152952669112 -1.0763236900179334
Ni 2.85772006966351 4.576259110571919 1.4627060922484203 1.724534021091417 0.42901195949931925 1.410439831378616
Ni 8.698282973913765 5.7045169452495506 12.777700788274599 -0.039042201504126316 -0.971268929068424 -0.12841451872137238
Ni 3.148154006388863 6.954244053315972 7.3033668578790625 -0.7721994670336507 0.9458702864896614 1.7597712470271565
Ni 5.545440941397797 3.551659778052666 2.1268978050262555 -0.8877767247810388 -0.9118350512818232 -0.0859478649167294
Ni 4.170898632746498 8.64296799366651 13.478149676479203 0.3483492542409291 0.18302295009487188 -1.4300732893388273
Ni 3.6750210381289374 2.9587689350115713 3.5622809998706564 0.46222418458522974 2.560764241253732 -0.2898949667587781
Ni 1.069718088943341 -0.1379957305032707 1.8026383151734613 -0.7480359824135698 -0.6626591595089619 1.6612401461287776
Ni 8.795193700891181 4.915949942092006 4.844462669725957 0.07438252867663318 1.681361085248369 0.8659076926220893
Ni 5.359467038136849 8.868878660256774 8.02562858176533 0.7941618302373549 1.6816166529026007 -3.433861252535409
Ni 5.005423204160017 7.146788649260042 4.551072387299774 -1.8073284279808293 0.8759375660542658 -1.2194824569280158
Ni 1.656494925743122 7.258770028817038 13.648457370759932 0.44330857862764944 1.131338355690916 -0.3484346148658838
Ni 3.0470865007778714 5.665167350202555 3.7284272554520754 0.4092414617406113 -1.8708295338582686 -0.6817894525805097
Ni 3.311647752555224 -0.2904824014089732 6.423662017173782 3.29422078319123 1.0122607980997536 0.9546570315433558
Ni 1.7795672617439655 7.894030189499923 9.487884511663973 -0.6124082337732097 0.7766551888121592 -1.1092973167304765
Ni 5.0697507515343325 2.544610253082795 11.100927120489022 0.8314505393854841 -0.9704600600138836 1.6237714597593584
Ni 8.805594967606588 8.230980902369177 9.108187947841724 -0.2702388830907475 -1.6356229597813057 1.3205805472226224
Ni -0.13535813329855745 1.047415014346596 9.351556152679864 0.7206609328347265 1.3969821632118133 -0.6150094188414827
Ni 7.495575929090377 3.382545992612658 3.616966871243996 1.2147883938864563 -4.713782631475771 0.7290938940934282
Ni 6.026350404881897 6.306494916469427 6.503611968910431 2.279126115187107 2.7609122810646642 1.0285569641566157
P 7.677933621342743 4.605440442190143 7.0021607132059795 0.9642356763707266 0.5315259563048459 -1.4641365495711236
P 4.821043043379655 8.222070856688237 2.4090741052732483 -0.972202239515971 -0.5859574957808489 0.6122300563241327
P 5.756131833305035 8.645875874683721 5.693638487803114 1.0077577680230774 0.6809831546291305 1.8958551093683282
P 2.841372559073167 0.02468716422559897 11.74615795781361 0.6798295006406614 -0.19853467257722582 0.6052240573199448
P 1.920077563716606 0.04111762398598421 5.103653661752936 -2.8868330868299052 0.880542926036761 -2.730489960019065
P 1.1155544954902663 2.9937939890586116 9.953640373398446 0.17403411633270027 -0.05199284812752336 -0.3064906663339302
P 0.7769662355225386 6.675189997109895 11.076428222919024 -1.8474201537953925 0.8563876689467961 0.281922747186579
P 9.266158584101678 7.408535221334838 4.951611561118134 -0.47758189798822276 0.008828911145539634 0.9272130763997903
Ni 4.38381703607397 2.20361460315755 7.381216051983405 -0.35497858663198867 -0.6541992016670669 -1.1887369482150432
Ni 8.435641669218288 3.348676634867329 8.710499802238635 0.6321543060518855 0.3541622613782804 -1.2938099639969975
Ni 1.570675155209554 1.9697725046902146 7.703988048854319 0.15270501583762086 0.8539667182101293 0.7678843845980646
Ni 4.051983075379231 4.949893860889058 10.761635190595655 0.3771517802949182 1.1183332016804997 -0.40429054549323923
Ni 1.9787384711599465 4.164793946636649 7.751677297536569 1.0204752155897456 0.7526935357902392 -0.90079550563821
Ni 4.106664286686837 5.474682503312344 5.7739565847326455 -2.789912010731124 -1.8744846141123523 1.16016247901146
Ni 4.751654664619619 0.8648103386103955 1.4306495000731152 -0.06992243602275054 0.7761944471256568 0.051850923233020374
Ni 7.15022777777078 2.2807480111653486 6.060226286719251 -0.551229091160728 0.9280093470488404 -0.6840003441888993
Ni 4.249402100079713 4.015951447133925 12.876406572572254 0.33408554523306333 -0.2724531171332469 1.1695809441118825
Ni 2.844895568767095 7.186557650222979 11.345495758259908 1.7285511126706101 -0.7430202743665333 1.8572044868756659
Ni 6.929620265984339 1.8490115612927946 1.1391707766104888 -0.09440499454514709 1.1628989041060165 1.219338475150984
Ni 8.744902271503786 3.549898273205702 1.6497779069959955 -0.34834154093144526 -0.33699963355606477 -1.2678202248014552
Ni 6.746871128210424 9.325909946926474 13.367521580010987 0.024341662069158075 -0.8107112499556038 -0.3229904637611663
Ni 0.9651182535069559 9.229716870071895 7.3675751075706195 0.6945994598609844 -2.7404272737374353 -0.6319370478347569
Ni 2.625266670784522 2.1423626991668234 5.503143388768291 1.2263282762052559 0.20518251691104664 2.146677021385045
Ni 7.289097736605508 2.097933632471176 10.412672692293771 -0.37309252262388004 0.3599924949068123 1.0225182141617035
Ni 0.9523310331364025 5.75089391942147 9.000779024781663 -0.3652799685579967 -0.3141255571713687 2.355489164628879
Ni 5.566979765214378 4.485154825497459 7.655781532875738 0.06357772475164535 -2.636014517247299 1.3646651962466625
Ni 8.634440073375652 4.260726059810195 10.910581143557646 -0.6332714503754642 -0.9023476806166782 0.04110756867358727
Ni 5.966776124554944 0.9093708191597051 4.298441835811302 0.8571428019452657 0.6974166175948054 -0.47123950070996257
Ni 8.892495873390144 8.034372729106185 12.649707422860015 0.20473180252687323 1.3366147178673495 -0.4003297610732783
Ni 9.393387698736099 2.86687243876255 5.548963019078578 0.3993067191254026 -0.42953312211011185 1.6774152132267435
Ni 3.7298513715399912 0.7117141311068548 3.628862155033309 -0.7149875365990332 -0.9329278673963802 0.18074469558365644
Ni 6.515778468525387 5.2056103079057285 0.8561090638742814 0.9489316990238044 0.5960470188063671 -1.3351011094363006
P 8.635511888494175 1.2708465259670596 7.222939715411385 -0.0951822390308038 0.28417683332807836 -0.14676371065252145
P 5.3118132059541665 2.325466001936424 -0.14340420279265273 -0.10219029491752078 -0.9891625215193933 0.3063348574823563
P 8.446751265925066 1.0295576424588553 2.61396135131697 1.3929696996183107 1.1409226569452415 -0.20509535651387906
P 6.134025883701868 4.214162683008968 9.995859636923644 0.8586042169821407 -0.13208502559442412 0.3874613897510424
P 6.784580380119505 7.753314844635043 8.834386717729556 1.1444077872803646 -1.4094095903418888 1.0156022037681605
P 3.447292945902916 8.803814822496692 8.603623058685248 -1.7377476915682135 0.9990977783552343 1.2714886747919778
P 5.070188797713207 2.6682417969715635 5.328948267653337 -0.7733474645951649 -0.23608691979938698 0.10499665401806432
P 3.7716521611623905 5.387940039763699 8.357185734555546 -0.156940136964891 -2.6505610476029062 1.6941392108496438
Ni 2.6375506040559427 7.9657206407319165 3.47694308013385 1.3533538849989015 1.1839192151114255 -0.41909212928244594
Ni 5.619908791806487 7.8868070876142236 11.851738271080158 -0.7285681034969452 1.0460957443713275 0.3340765463719988
Ni 6.543729542790175 1.7281853769751168 8.267550302200037 0.09094531813132078 -0.2802188771215948 0.19866142796307723
Ni 8.43970524653721 7.12960232683781 1.91654057382548 -0.5491187296859446 0.3387011896282038 0.17730558799512044
Ni 1.781291486065068 3.1329062713114393 0.18630383591482486 -1.952149670194999 -0.6838039119073771 -1.3770332308937123
Ni 3.883950425189211 6.80967017402441 0.9541465947458658 -0.2693271699097555 -1.0085424687079019 0.7918406383033461
Ni 2.3238070185355792 0.534133938243661 0.11733113501814611 -0.8203464590525227 1.8433554968077157 -0.4545697533637655
Ni 5.174825913675454 5.810915566058761 2.6829303241610623 -0.7242311666844882 0.49552614117146915 -0.08006749487655243
Ni 2.844355001142101 2.5795141454207853 11.655895280610478 -1.1504951311250249 0.24136925124424882 0.7673740206205495
Ni 5.95842528676193 4.605272679823765 4.819171560981399 0.26323854051351436 -0.33452623231490775 0.20458267854351864
Ni 7.780510988251132 5.859650533491431 8.903628770425586 -0.336736095482033 -0.8382701334104787 -0.38735905984522323
Ni 1.0573316342258008 4.234433968946252 3.1043540485671315 0.8242187975237353 0.22554462550716642 1.044167417000363
Ni 3.8511994832197325 2.9516203941775956 9.452840817353998 -1.4401149898455456 1.3869949700921145 -2.432774468774604
Ni 6.873876559689674 8.968501545490627 2.3909725459411137 -0.5016224838771942 -0.5441163913753467 -0.16538286841560548
Ni 2.491951510303184 1.126990296798334 10.011615319165934 -0.9111490809583921 -1.5779065789064437 -2.347523629924899
Ni -0.17056399789602708 1.0608360036567979 11.630140961332089 0.07769256688647265 0.2930903337676243 1.0744848370369817
Ni 7.318884876768983 6.765744394427895 4.430486662373903 -0.10813211432325247 1.1163963896691032 -0.30869127352967485
Ni 6.543086453719062 3.69224464107703 12.370668278864283 2.508518653685454 1.185907706296364 0.5012771847226335
Ni 8.035025138308765 8.30007103692232 6.91796916963942 -1.3537454640103654 0.11523915768167896 -1.334157771686425
Ni 5.031771215812754 0.27984067530175905 10.349582858378064 -0.48624908674491746 0.18758305866172856 -0.5509925496698898
Ni 8.914789627855424 1.1443257413240115 0.42458977306487156 1.6603641712817274 -0.2349659188210663 -0.8404154618882559
Ni 4.745643179824424 7.008580419759359 9.496600698610429 -0.016949226259828875 0.1631488368787642 0.47307372570522394
Ni 0.4420184189052031 6.465393837823338 6.9979601299545156 -1.7335033144695629 -0.01896599957954153 0.016023114901133693
Ni 1.2024274408794267 1.9408894172788842 3.8106009905563725 -1.210107186360703 -1.9998978841135557 -1.7203444084901018
P 1.9595203600782547 4.310206637760099 5.415922802475471 -0.28552846225996636 0.22823682762734884 -0.48872763019239707
P 7.186436488513929 5.201145964933794 2.9626377215828663 0.7623115184959774 1.8477001469296566 -1.3268805212987211
P 7.106246077385474 7.038833566496106 13.42413112651879 -0.5676139602766548 0.2990807470231042 0.18724315882380657
P 8.679083503095004 3.168453252720543 13.10279163385411 0.11635270246083186 0.21750452881150928 -0.5560460529333972
P 2.3441528655245865 2.1964940227179706 2.0297335704729806 0.4544244860351529 -0.5514661468721986 -1.0255243479778788
P 7.204023576589173 -0.009841126814334775 11.014333779043824 0.7497002574898701 0.18055751927351485 0.2746812351328172
P 2.877991355600794 5.470246120734806 13.10766140254479 -1.4908742226762839 1.478671509962505 -0.15236125934495698
P 1.3379514725180686 6.547988842869871 2.7776116756919498 -1.0653224538114234 0.0187364000672387 -0.37253793567199067
