# total energy = -340866.9060656078 ev
CRYSTAL
PRIMVEC
9.25131531625275 0.00000000000000 0.00000000000000
0.00000000000000 9.25131531625275 0.00000000000000
0.00000000000000 0.00000000000000 13.54023510261752
PRIMCOORD
 96 1
Ni 0.3247008086798529 8.765306554731794 9.29614331719914 1.4606380494995617 -1.6084852230242492 1.1345260093902783
Ni 3.1071652070737414 1.9357451808424584 11.408473900994421 -0.6032342805834257 -0.3091661562835643 0.8009827098139303
Ni 6.2069108594015665 5.2556721336102115 0.3991886976975892 -1.5325078390566704 -0.16869496350797397 0.04621763620664299
Ni 3.541625468891384 7.452063867334791 7.279582347780085 -0.1558651587331574 -1.0157281878230635 -1.6300197546619153
Ni 2.6161424044624133 7.645305338073834 0.9411233378123213 -0.7010997228733474 1.8748885344189903 -2.01482185241324
Ni 6.133436914523672 5.173890507732523 11.623966634919102 0.24526498675422923 0.5108344893937654 2.0039327163045617
Ni 8.898951053309743 1.7328360857773768 7.2283189603011895 1.2032400269272245 0.32756908427078424 1.0041949903724834
Ni 4.084224353433494 5.473522102633716 10.031296299765057 -0.8264183762782155 0.5078003305531319 -0.2297283245712108
Ni 3.7913647212181005 0.06578610199278685 2.7504687249665154 1.521674238776276 -0.6188683875762567 -0.5592573607818433
Ni 6.279422667504431 1.8227311150368213 11.893742385585849 -0.23325150723312085 0.1420213108715296 -0.6290407001235683
Ni 5.787548743899805 8.4234427061958 3.0898680231480053 2.2428007983935117 -0.1950837379141479 1.0761236581919853
Ni 7.634509053300163 0.3010655487485955 8.620010949860818 -1.2495077996455126 0.6138375100205686 1.360525463046676
Ni 8.561028265025321 6.14488079135746 3.5870244477001596 0.2202196137498272 -0.6514632907931425 -2.7426867591955735
Ni 8.131064142367922 5.10076811283012 1.3866694505676598 0.4002837383266913 -1.3605946257217147 0.7518160182812923
Ni 1.3227715419958725 5.865620592404534 9.51359918019749 0.06121513805673974 0.46799399718947143 0.5066495047781403
Ni 0.24398308404378694 3.133697978908267 0.9831289342260815 -0.6147623358276831 -1.1868901248142913 -1.598669522485408
Ni 7.323766628910383 0.595070493778882 1.0777402839462098 -0.08247327610456764 0.020410702445868074 2.082945287554039
Ni 0.8845432195198609 1.713667360797901 10.237676488272365 0.6214119799337169 -2.4069577648218163 -0.7654495499043268
Ni 8.636953808416518 1.674626810887964 12.581857056299375 -0.05190851594383318 -0.7264099195033619 -0.04577849178669535
Ni 4.888820482868828 8.121313256205584 5.44788670836821 1.1130303014103475 0.11042965210817755 -1.1341858524420403
Ni 7.055487741034019 7.405141196921711 10.072269449408685 2.7215841728890027 -0.727427819244915 1.0323519124226737
Ni 6.74037869589602 5.560188422907718 7.19366908455885 0.7209075016278939 -0.906196107828491 -1.0406630033915303
Ni 5.522276533445414 -0.1555747411280692 10.502456528761067 0.6242707895387507 1.73859204184638 -0.48030598178760503
Ni 0.36141835335699707 6.9529924205477185 5.462212369869523 -0.5060319257987995 -0.5415612290536609 0.5872386764861177
P 0.7356627300303772 4.777360638007473 4.404205141126605 1.1686036678002778 0.25160121338490216 1.0657698257614872
P 1.0893423582689707 1.4846325517646533 4.343341663922225 0.626842921141301 0.584533875960445 1.028373644501216
P 8.566153493615394 5.44372361655317 8.694753250045027 -2.718867031068156 1.0961157850431962 0.6599749278085795
P 8.27927021098337 3.8683079092751966 12.65062763255779 -0.7119752321352706 0.5935401932241133 1.1531593082207496
P 4.767489484748254 5.683489951154077 7.871981061745226 -0.23667415976142464 -0.11893074760065324 1.6986378700509457
P 1.5860177144336098 6.749185947913618 7.415377777129139 -1.4539889196141604 0.6666299712312519 -0.08683232440421174
P 1.4984817705360218 5.7245935443412455 11.703704645281361 0.25003798266284033 -2.10561444701678 -0.16031625252597553
P 0.47152380568119223 7.29540209667724 1.9349671452388029 -0.4780747784642411 0.2250293764336447 -0.24972507940811187
Ni 5.580680085952862 3.2773986570483262 5.702902910853369 1.1647979209009423 1.0481354005091756 1.4415856608538011
Ni 1.7224006022943417 8.970001153619771 2.9185836237730016 -2.673530511914886 -1.5044910421287703 0.8671431076910872
Ni 8.47454697105421 4.607756277462717 10.603669616968336 -0.026777010983528075 1.6321380865564987 1.8456664043290794
Ni 8.191169936861966 7.398628271059959 7.578577452199334 2.39227702288119 -0.41409724717101587 0.9423252494508804
Ni 6.713170578055943 8.899154582242923 12.716243510351916 0.27771179442902494 -1.782244231318692 -1.7322565865466553
Ni 0.7247776326313176 9.117948185411171 5.7799737670594595 1.7699839258941 1.5995665803783807 -0.49505897172706353
Ni 3.8432460965486515 0.886758909496977 9.168891477386067 -0.7406286342059052 0.4756723396703357 0.3328082211825365
Ni 6.347660368010518 0.8425820294187946 6.818321025988726 0.7235804204743668 0.7703274468219184 -1.2022884616472327
Ni 6.312172323116084 4.956734387344858 9.509794114278542 0.6679931701273656 0.1263200980861889 -2.355641373936027
Ni 0.2371260092586578 5.040209003893996 6.912519767053408 0.21993242152671158 -1.2249079988189613 -2.120842576820444
Ni 2.6270219510723862 3.322397053911343 9.710664219485768 0.11888523907469849 1.1355649921777542 0.0505748847340742
Ni 8.055823196297421 6.691689024290334 12.652306746256523 -1.538347842777215 -0.9785096697912374 0.44567630752887766
Ni 2.3619162642905973 3.073471917317346 5.748506343726839 -0.6772465704048336 0.8851680835135982 -0.041763714200347433
Ni 0.33917171582893424 3.5248343319040534 8.844630106175577 0.1031536872720546 0.16353964455927963 -0.4120727605418193
Ni 4.3202069001402865 4.195943235118896 2.2792280095287456 -2.511853888706274 0.9455062182820233 0.030517194752250672
Ni 4.5345968772997365 5.369685341451458 5.72093834972764 0.6159823242777134 0.24216500767266683 0.43993477705941003
Ni 0.552057429145882 7.51464901428757 11.57294748216002 0.34425580089784585 1.942835591882925 -1.1545027096225213
Ni 4.504918658316069 2.933962084937761 7.902432690674977 -0.4531384202338776 0.40733216053304044 0.13372924606606645
Ni 2.6773583567738 4.794762361794343 7.840148211464396 0.7242725614453849 -0.04234786883859158 -1.2636077293820043
Ni 7.346293581287326 7.210549034171567 1.5032101177063932 0.39988753132953714 1.6053813872879448 -0.33916681641071267
Ni 1.9893750547353264 0.32068851330166825 7.917800975393077 0.25779860044486574 -0.014969476825638737 -1.2000112355772816
Ni 8.626684848606084 3.5022426203210997 3.316531720109708 0.07528164345213487 0.4931242165981959 0.9511757578629749
Ni 4.862741025476384 3.346413468026556 10.600811885720189 0.36477346123522336 -0.9790655422947074 -0.04187247186406982
Ni 3.384630650888629 4.67253398610475 12.290850462507434 0.27760406520656705 -1.1625006402263334 -1.2671789916730307
P 8.223919592473619 0.2552576618104315 10.91074852056088 -0.0963844868690211 -0.27767811297761213 0.007335357319148658
P 5.340127389564669 8.876636881181126 0.8978641881964766 -0.8868449569953888 0.22907397881666355 0.4020061203344367
P 7.9503859575951585 8.62430726061394 5.942592459538577 -1.732160170178107 0.994852372815319 -1.483874394319683
P 7.075470581746215 2.133010973669373 2.7261636698187934 -0.7815040322640282 -1.2242294846946982 0.28450953407714874
P 5.3227441684080885 7.200141304633965 11.289603752702295 -1.025624363890853 -1.5981948968418347 0.874772342101571
P 5.204114554309719 5.932257815390617 3.763779149720127 0.2604974874332675 0.7775396482996415 -1.0253376858883696
P 1.374282864720642 1.3069425417835736 0.3980433848826958 -1.320709873711635 -1.0430009074960878 0.3527648668101215
P 4.434414385599569 9.387957069219562 7.132751949726631 -1.327427909161759 0.5005382496740799 0.6800395597689386
Ni 7.8985970954160525 2.4400528720013384 10.04651563830933 -1.4237656019532448 -1.1977877455634018 0.18902004821857124
Ni 9.144110904639914 1.2194528544617078 2.646885449819217 -0.3031906554264198 0.913730211422007 -1.708088473940884
Ni 4.102033135086724 9.468443510977016 12.449961981415258 0.9045259192149195 -0.9250757183418132 1.4869592038925938
Ni 0.7232668928682149 5.565572688321836 0.3055857413282152 2.0528374124250646 0.9002303771633593 -1.0745825389571109
Ni 2.8059886425434115 2.7963395208476616 0.4308004415464646 0.6652850271675833 1.2163189715983698 -1.1631012499248097
Ni 2.4921192736347804 6.44746355578976 2.749141161243274 0.05536253593070466 -0.5871947106220596 2.279188078773294
Ni 9.257606038833067 8.811091313382097 0.03216497249451854 0.5800681268796074 -0.7783320622939498 1.0287711370499508
Ni 6.07170288856419 7.7203520065263005 8.102923491961276 -3.2548723633005943 0.5187725132939195 -1.1059070601020051
Ni 4.840889419104994 1.9003866543600463 1.791156376448524 0.7606878668496253 -0.1755410398955299 -0.30265869418234975
Ni 5.773773535649592 1.4197993352317533 4.513230964973433 0.21489614465438475 -1.7048031183213932 -2.0650038725842697
Ni 3.0647571784511944 7.309242064133464 11.974320415363232 0.5279924892302907 -0.5485461450119262 -0.5112954881905839
Ni 2.422706656105336 2.037565155323208 2.546065542505591 -0.1900816567138662 0.11845817883960888 1.1339318274497052
Ni 4.859318038872907 6.845547646459091 1.6833757796201505 -0.3214560293945109 -0.7505528352981526 0.2813694457862702
Ni 6.933065087726391 3.2877138734344826 7.844968146654699 0.9608711307738677 -1.3463537995319845 -0.2168982626860781
Ni 0.9771331568809085 3.2767788189336424 11.746438320196994 0.8993256059609028 2.336494111583615 1.4867745986856138
Ni 1.412028230510344 4.335046009632121 2.4141158848621207 1.6549239741027628 0.7671225667313756 0.3064112192462464
Ni 3.423532431071398 0.9979301133258227 4.9923926564379535 -0.9970920607791152 -2.1182691596663132 0.999343061596821
Ni 6.924294840969371 6.440081006304421 5.026961120607022 -0.7556140518711438 0.7784621601139109 0.30262912649599494
Ni 6.46256170210564 4.288965208897193 2.8699476097951533 0.3540853853937579 0.4399800284750487 0.6898267210626894
Ni 8.377121371267114 8.53303378539796 3.576003355968475 -0.2913854352613756 -0.5518191593362433 0.6581705276099891
Ni 3.7922991040476988 7.725116433825736 9.428620299805852 -0.34696111564415083 0.47152360760928475 1.8243763846020518
Ni 6.824362134778107 2.81447209853095 0.5857803231107402 -0.08245913503718057 1.6151973449371022 -0.6070508261160384
Ni 8.163166205919458 1.7058314968704797 5.072293489946757 -0.15647579573396278 -0.3832380956983142 -0.9092500641634663
Ni 2.3675225612681854 5.762940245615343 5.361756964372591 -0.2487943400637264 0.39557090623205426 0.038936786274513586
P 2.3709455478716635 8.99505371503117 10.69933099095737 -0.10272431304411986 0.8593243829776167 -0.23575421905031654
P 2.8601273387692294 7.945723294762313 4.739082396465446 -1.356177727600942 -0.36077051072341737 -0.7727381131459402
P 3.4207755391583263 5.750747012254846 0.4643919668362704 0.26790586408219663 0.0675055990511418 1.8792869205970024
P 5.83409211039196 1.7355282184844363 9.28145222874962 1.1706152989136678 0.9177542449797355 -0.038641109410965706
P 4.020427284196782 2.870202020961628 4.375811004684999 0.28873719900525113 1.6110115889905288 -2.517097653603717
P 7.712738174162348 3.9137966258408743 5.644083974295932 -0.10951151116928236 -0.22366257799310513 0.28637821185477136
P 4.714026134527988 2.8446128832718443 12.920227608236793 0.1362898077043911 -0.03226631623287346 0.22161418010450862
P 1.92477312108104 2.5352396535234565 7.848854624146918 0.434276036111736 -1.0555440342684208 -0.4379475714260522
