# total energy = -340853.48961714894 ev
CRYSTAL
PRIMVEC
9.45308939906764 0.00000000000000 0.00000000000000
0.00000000000000 9.45308939906764 0.00000000000000
0.00000000000000 0.00000000000000 13.83555186845059
PRIMCOORD
 96 1
Ni 1.4586400468565233 8.150482001774657 0.7281081373728576 0.02598588254080041 -0.5957976217997223 -0.07718246001927354
Ni 1.5143376493404583 2.521016041010386 13.27565494998797 1.080049732719269 0.45657058584387816 1.0206235682421518
Ni 8.42846900045848 1.4916691410654284 5.557298240695855 -1.6553399785942589 -0.9938576130022173 1.809151083011865
Ni 6.546992266720351 4.880147926803971 9.213190744673842 -0.18032817687152813 -1.0791297920081608 -1.6509786163017697
Ni 3.674132239889859 5.3304552913533145 7.398547352680693 -0.08624662710407081 0.5263940343949193 -0.7062545276014095
Ni 3.5432731239385498 8.534286882706471 11.258569868206216 0.9473080473774526 0.8984964251913882 0.7010079344904895
Ni 0.01793156519887584 6.979631807263843 7.331887947779858 0.47551087439180684 -0.28562127908408874 0.877389982230076
Ni 8.11234823931366 5.713173067009221 1.2834005669979538 -1.3723111428276946 -0.4004038088443233 -0.43032167944967825
Ni 5.842368439233922 6.549062493289254 0.3124331109871504 1.6125483373500293 -0.578685644709784 0.6771275283284661
Ni 5.0897890894458975 1.242807110686597 12.491095798909528 -0.11764211069621675 -1.0359087765359967 -1.5651047991560851
Ni 8.98960438461435 3.573532462966227 4.810400197610622 -1.2669396219687148 1.0292922996607434 0.05772229441213284
Ni 5.017624205304289 5.969020930421934 11.499363686819937 -0.4438762782056614 -0.5470482203101611 -0.9064529610343034
Ni 0.6371126992346432 9.24711599175367 7.0458242295505045 0.1565626990208142 -0.27840856338573344 -0.6433077515655438
Ni 8.325921887127569 3.0796558095763444 7.996229325594733 1.4172385994680043 -0.5616050350784134 0.4967116768391381
Ni 5.693917123991608 3.156481066770326 7.670028735269905 -0.8519879972172038 2.727287908142 -1.3743487420830136
Ni 1.9781818378472007 1.310529042831015 11.121888594520717 1.6753174501574504 -1.6160833470864815 0.6719179591030685
Ni 1.9341493476282312 1.7823138263965668 3.5951961078427432 1.8897207143358163 -1.4166336188941537 -0.7735917193954871
Ni 6.483505318607298 0.7681041584369325 2.188452576240218 0.049608407055746824 -0.0358108390510222 1.4981866971772972
Ni 9.3680210046134 6.148847049235901 9.777515601178331 1.605099851491784 1.613285215516054 -3.116732646871658
Ni 2.792943609417188 5.664886686580174 13.961039850017627 -1.023339167401102 -0.5296318246059266 -0.9416032836831913
Ni 3.803828625850414 7.250576254377649 9.355115647024963 1.2213894441427418 1.2064397648114449 -1.3095451153440674
Ni 7.899152715073981 3.2171982597021516 10.413785084842447 0.9198615211307254 0.12090998281421113 -1.1259701494004672
Ni 7.383845908114669 3.387618554607172 1.4466866153662081 -0.6279454101768606 -0.5434211650805351 2.117326850357702
Ni 0.44887994805662884 4.911806323056297 13.225736021027192 -0.24444789016957258 0.003491815203342373 -0.35747847023570695
P 4.1644734378607 7.19170241387019 13.092624233882411 -1.482626380845195 -0.26535764373904625 -1.0348001168528502
P 5.680389753123564 5.464840409634309 6.12910805335221 -0.8434413931987732 -2.688169344873983 -0.8387635281071296
P 0.9174535171680408 1.8338142572065597 7.438048031862528 -0.6816385288249422 0.08376679810501057 4.744798877351628
P 6.010368743263877 3.948423080635592 11.490494798386395 -0.7818200208425503 0.6107565571023996 -0.4658844070456364
P 8.020360226793095 6.211984233042792 12.907683993726998 -0.11569784248565236 0.5396750677745416 2.435579285213251
P 9.189754645543125 3.059653072499629 0.5434618882964055 1.4331221034674801 -0.6744710645422255 -0.7354820570079592
P 9.267099822651673 8.68624529409976 2.1056605290449024 1.924888520486201 1.7498185066898186 0.13365339852280855
P 2.9228574164329246 0.006210679706711702 4.901216972360013 -0.9968480630891091 0.6738468006946653 -1.0580012375596617
Ni 5.5727852369873405 2.2381134358615866 0.583419151694122 -1.1850397018691141 0.3921217713411892 1.7469265298540044
Ni 2.453048328542719 4.4062740104908045 3.8285323842637315 -0.6162389203732097 0.07795764762240123 0.6062586692320462
Ni 0.6448878652297275 3.315803434771725 2.5730250480277173 -0.60740203880787 -1.3233437117900566 -1.4343212659819038
Ni -0.28512786238313703 0.46270131000363524 11.883161950589203 0.41499456217430464 -0.5474043180979992 0.5500666954215107
Ni 1.7348498647414687 7.052760906519736 11.391487867019203 -0.9264911106321012 -0.5939824229678544 0.34639624427961635
Ni 2.5294009312689143 9.451321628016053 8.75118045550211 0.25774717838163996 -0.24515802886271973 -0.25213368884960446
Ni 0.4235059656079903 8.663945456309603 4.466752985570865 -0.6481797349458643 0.4862868819613883 1.8957113847016123
Ni 1.5844134007344521 7.261891602336453 3.30002811925489 -0.19715450440024757 -0.5883139118281674 -2.543727597486419
Ni 8.023498652459196 5.020375054306805 6.932289790461434 -0.47968557459478683 0.9413919390033335 -1.073751301305067
Ni 2.614459829291733 6.478410103444562 5.206387274795159 -0.01889863667671584 -0.07922571570154742 2.166946056046726
Ni 0.31765972409193105 1.1276779354232151 9.501578977575768 -0.8284413202455152 2.445057399907015 -0.7602186405226907
Ni 6.446127803294759 6.909253557010466 7.293010227186566 -0.0822670736310325 0.6302696874346628 1.8556898500033523
Ni 0.9787728718918258 4.598890159203068 7.979018085804765 0.057173363887198306 0.014309731754452775 -0.6284061518633629
Ni 1.1730054988839194 2.3045875602110493 5.58411192865337 1.4090313810668635 -1.4207664101156046 -1.865622278625716
Ni 7.678120579758406 5.459801913007708 11.118705739334644 -1.2469639501777363 -1.6132829015232089 0.1092096636581474
Ni 5.899493458210571 2.475527775030635 9.883357116149714 -0.1022939103749206 -2.619281006542702 0.8480884050524814
Ni 7.572661914905931 7.771072807393256 2.769739110975688 -1.1683010489581944 -0.6572876107844035 0.3422698808160686
Ni 4.101941251772575 8.750885519114211 2.9741451527324134 0.5136395629427283 1.527362290299989 2.016325176431643
Ni 6.347144504650957 6.90962222749534 4.713537226909309 0.391285648593139 1.6187650076837026 0.5660571573124962
Ni 5.120577801477496 8.94780282348333 8.13026846080531 -0.3652336887010936 0.7586664655442225 -0.19098128571000011
Ni 4.738814787846519 1.2883899075599057 6.5172225977213 0.36145519549526783 -0.0986102908757463 2.2237561230572345
Ni 1.086141060794157 1.000779663911955 1.267435244385069 -0.4863231345159625 0.597836506606622 0.5369417280037785
Ni 6.878720078391472 8.82324891813229 6.199101562868809 1.1124425472276775 2.218720617515856 -0.14988811521411605
Ni 6.2719168195580925 8.383765340895254 10.079296025770516 -1.3727849971403197 -0.7667489854420407 -1.033950110147729
P 2.6559683446527247 7.459253201905292 7.30254272249288 0.1485773668224925 0.38597606345476754 0.9238737276139122
P 7.492868387654252 6.649737894927732 9.188895359720691 -0.5509313574146512 3.0109579770369885 -0.7186626714577752
P 1.6836991982376377 8.978686066408486 12.512956068044643 0.14945719832428453 0.08764093634843616 -0.3118840694353596
P 3.4359427473936415 2.01575786803621 0.11894349681841702 0.5868465832540216 0.020441555683803507 -0.37656196922971924
P 9.04174762550053 6.724199879782782 5.324583977554474 -0.5610345072869241 -0.4897545287950146 -1.6425831931492227
P 0.8153147772972972 4.871564521668973 10.89495773144717 2.504158576944545 -3.42446978401818 2.777110745201398
P 1.7957183071029856 4.2078631180034805 5.913785584007494 1.044895296305323 2.2571660659762482 0.8137466943478179
P 4.175817145087571 1.2276632615387246 9.549657390038988 -1.291655122437524 -0.5314315968188268 -0.27020083076396045
Ni 4.532831970785258 3.635563635318498 5.545911994566883 -0.5640046456588416 0.5018945065916582 1.1369122502342677
Ni 3.109196713812987 3.58913951349253 11.76139481598023 0.42587624208381497 0.2701733199601347 0.7055631579613397
Ni 7.362179427311345 2.745385116868533 12.716698502928596 -0.38061042826748 2.80255721029896 -2.146496787053439
Ni 4.9435119847554 4.200981268952512 13.385218146238701 -0.7975523439761426 0.4666233420941899 -0.10551293153285055
Ni 9.005599011804236 1.0503327583146684 3.433416881917792 -0.3689607598436936 1.0463572255628304 -1.7842234665322498
Ni 8.300502529850021 7.696015277908795 11.353536549182772 1.1406573190989968 1.1040160137268793 -0.1437102685381783
Ni 4.648594503035474 8.426351508442796 5.5948203882755365 -1.0104967642207952 -0.3905495417580629 0.06392868033316088
Ni 9.292831131877959 5.170546831811862 3.2705306992292846 0.09100213951118521 3.1541645664658713 0.4752409085598718
Ni 3.756667163054699 7.139436282822383 1.5864117838242524 0.3813241665050529 0.2183175116311079 -3.4406314813797065
Ni 7.6805878360802495 1.2083884123424 0.15417516084720626 1.9578683178463314 -3.239514135676969 2.195876365927831
Ni 4.666148889969056 3.7823890191916276 3.293166121691569 0.8610611631630654 -0.08633687282503195 -1.6091760784436866
Ni 7.789052583347845 8.844452197557182 8.477430331467524 -0.6275736286597385 1.2262796823555073 -1.5216487848549796
Ni 2.819128666932548 3.610598026330027 1.5910466335353646 0.4449602552984595 -0.6434579039901628 -0.7435748613184225
Ni 6.137030687541245 8.025228567811293 12.182521438997384 -0.5032209387125657 0.9025888500932068 2.623390400725385
Ni 3.3031457481244084 3.001251886459957 7.9905848859404305 -0.7656423826414233 -1.963948205491824 -2.1892336638003327
Ni 2.5533834189643905 5.589243065555658 9.664700542189234 -1.3173797808971377 -1.7472718290085651 0.17743002938812671
Ni 6.878559375872425 4.970056259666277 3.7910660099112485 0.4224641310784724 -1.7242802532093984 -1.098568874569379
Ni 4.499594908610527 1.5145456173062843 4.42532860270514 0.4899658734748723 -0.09563963828319658 -2.812369825514008
Ni 0.2662386992325262 8.414790380160744 9.357523348883866 1.8579074264799615 -1.6292083145042133 1.1262342016951314
Ni 2.0005383941734918 3.154458105648201 9.768882094669749 -1.6238833027468744 0.3779979303452974 0.1600167190076857
Ni 0.1643277788152555 2.6998779447100696 11.621060868567678 0.2231074768205835 1.603480056500174 -0.8023947596701084
Ni 3.5853204653928166 9.09520484580716 0.1146281615275283 0.6312101969710613 1.4934604953462214 0.09272812106335643
Ni 4.48523566587918 4.144829918179502 9.442833699083547 -2.0435217914510937 1.516971176873652 2.107450214673938
Ni 8.053502758074268 7.930158848160761 0.29638554649687066 -0.07790545422822712 1.8134080585160062 0.1383142943335876
P 6.481340561144837 9.210731050823481 4.129995185053562 -0.9374877188529209 -0.7499866783820374 0.27341805214967746
P 5.69667742608348 4.756898547784021 1.5524317088261612 0.04516836900652221 0.2670160052780756 0.7528241478308325
P 0.6792337747858852 6.232109860281132 1.298628548641092 1.385047873668073 -1.0938609275707485 0.3532032398991208
P 3.483085304010645 6.29175885411576 3.300844866175225 0.9085810631208997 -1.937953581200275 2.0068396055387114
P 6.90349662559283 1.6187470212744473 7.699968559877358 0.7179895566501506 -4.221049736778724 -1.054892516727351
P 6.0809076960363 9.168447382135321 0.33087986955591325 -0.7229271031610839 0.06046951813996682 -0.48284726015222007
P 7.272847732899739 0.6550990923517823 10.94450231806946 -0.4789137294257687 0.34919206185719864 0.13598770308293998
P 6.872367602344425 2.7128381302167694 3.8223198139391483 0.3577697762238806 -0.2377627648399131 0.20804981115651267
