# total energy = -340889.8238835828 ev
CRYSTAL
PRIMVEC
9.11760693070024 0.00000000000000 0.00000000000000

0.00000000000000 9.11760693070024 0.00000000000000

0.00000000000000 0.00000000000000 13.34453936491422

PRIMCOORD
 96 1
Ni 6.566236065057531 2.218104049175822 11.542265755205886 1.7967912758949314 0.786532081606239 -1.9240850507482994
Ni 4.649450688083202 0.3948881128171979 6.060156001045136 0.010665450133646148 -0.4421518393153869 -0.7806085170329524
Ni 2.6363286768048004 1.3587240126122868 4.486901080849014 0.42889446008484844 1.1478553795093327 1.1722204386172586
Ni 3.411024380658112 4.7151612808741765 4.924121330653755 1.2565793617803132 -0.45311528030542614 -0.02898378882685976
Ni 3.472650285566424 2.4869093352398624 2.483018852383763 1.7287897110439776 1.0407725323862012 0.5976495874067965
Ni 4.942672925374414 4.511346296657518 2.3884993571310638 0.36581784333933776 -0.4315177566403084 -0.13288026780220988
Ni 5.438871327049241 4.630331066453858 11.458729329201974 -2.222716883159443 -0.2962201376458576 0.6763178879429771
Ni 5.585619209798061 8.009881468158946 12.286691004214457 1.867153370558262 -0.3066487891783493 0.6851843371946715
Ni 1.9813289160845438 6.681291146288185 0.002916722441214523 1.5612874822925242 0.2584750576866 -0.426256251131053
Ni 3.2649512008184813 2.105510721803024 0.11162047871860128 -1.7395374364787846 -2.1658373963635795 0.5823564086931519
Ni 8.108214858369944 8.70391370393653 6.8914401320050365 -0.004151817384844463 1.5746626180478496 0.2226739888275907
Ni 8.781741596272283 2.7259638700513777 1.4770669028842096 -0.007625891976373963 0.30216092861032473 -0.2714159341179842
Ni 7.147191740297627 0.7089805522588956 4.5844494451075635 -0.4825952920424141 0.5130235266252842 0.5958814397627803
Ni 1.0697961681619994 7.391251841286781 2.04008642186811 -1.2515055468018317 1.9624610794233366 1.4897776471779955
Ni 7.947763212479063 4.140350872671838 3.806756783872485 0.2144433733876823 -1.81806664033394 -1.6374754396090119
Ni 7.684784077211947 4.160409607809918 12.607627119380991 1.3300941431400126 -0.7604292138716 -0.258037198818233
Ni 8.421696418150619 7.013117331113321 8.89825914164664 0.0011685663868044392 0.7250644612190609 1.1761796803753228
Ni 7.1164654051088405 0.8623669645777329 0.3898624879044206 -0.7928981330335828 -0.04062780082369132 0.11231092829129045
Ni 1.8815002383450694 6.9155680550940835 9.322655477373331 0.6275582020407708 -1.2833910826565187 -1.2084107724948865
Ni 0.27817089185214794 5.181937165144191 1.034996086218806 -0.7313415524770244 -0.731374976818121 1.2514564387314513
Ni 6.559142566904154 1.847145095617666 6.802325554111362 1.231711652004356 0.1935505890990731 0.6432696992387568
Ni 3.6044726458511365 4.427564607028508 0.36015823644698763 0.03344053904663273 1.4063556340069134 -0.8980472534691113
Ni 6.116081578131481 5.401981489608934 4.451991587623249 -1.9082419130684556 -0.16611820391973325 1.5601590251150357
Ni 5.432917529755983 3.044295996692715 9.179975870814788 0.7527423867503036 -0.3219077722199488 0.2686381142625309
P 0.2246459806575563 5.910725718351941 12.357723544141841 -0.12067215577179219 -1.207997596216868 -1.5858111784655011
P 4.228554601638106 6.2233137526582825 12.532510803331634 -0.7498064440504313 0.6710137021212444 -0.3806340824165638
P 2.5076792437146564 8.688577889162781 0.9425152878646857 -0.07927533799256024 0.9488494237226432 0.041450810945618935
P 6.308399260071267 7.941043536207806 5.995274198719638 0.20820973377314464 -0.06135217785523628 -1.6063537785035433
P 5.102604867673083 1.1245200446614354 12.416813842576563 -1.026035997506975 -1.658279263728241 1.1289163765129848
P 4.2005909013342455 6.320826558249997 8.133136013257634 -0.47657016889425663 0.8681802907063499 -1.1686355494794778
P 4.929780629244757 1.0614353226521722 3.5359292126022512 -0.20528433259623355 -0.038252615723295406 0.476156992616238
P 0.15507134607043602 5.819668178431937 3.3068438691543625 1.2181930486926311 0.2629068682057085 0.9134142228434851
Ni 0.6255252729562235 -0.12995598615618306 4.390993885829034 0.02819034639128693 -0.5140511965588502 0.5417219230012411
Ni 2.0241634332112266 6.6471457085190435 4.552783084649351 -0.6521564602054252 0.6667880940756711 -0.10652697461966171
Ni 6.168298112738657 5.84351983803249 8.885354992628038 0.1786541316032149 -0.21733175067907085 0.44497079682142077
Ni 9.169121359823022 2.4545965364537907 10.050666298714136 -0.726322244885562 -0.07223000111000463 0.4756186036142647
Ni 2.411935253857846 5.505438974887024 7.081720028806933 1.2929177912000314 -0.36064169845503696 -0.9149550849680437
Ni 0.49179368579064087 0.00879028479391973 9.106140578532202 0.48535151463131243 0.4510619973208232 -0.41783614538815783
Ni 1.7238841681941615 1.2335939757781886 11.606840294179495 -0.908683650137035 0.6496501488438038 -0.09896484600168763
Ni 4.288603160556014 7.2255484538324755 1.4118258668476027 0.24975901796984082 -1.6601643965660957 -0.8882066132296057
Ni 5.817735245773176 8.221391712583124 8.100162187972694 -0.4848362655577908 -0.5602341228728158 0.29933605756702
Ni 4.987850667469501 2.667747950116539 5.058193916316684 0.20547922221585901 0.44972759478011576 -0.9187027249359341
Ni 0.9532366817959899 7.483923197624714 6.826772593441241 0.33395801851626356 0.05729317729451423 -0.18771392781263802
Ni 5.296509013210155 4.63401457963376 6.795106232983029 0.41365681719948755 0.7553350871781442 0.18963788430822826
Ni 0.5661787697681482 7.790365964893298 11.174050289558206 0.19291269840475808 -0.9266052676124623 0.6171241511916404
Ni 4.87909585259358 0.4150334652206473 10.216806419538042 0.2013520874213629 -0.4286080391926812 0.16662985344882916
Ni 7.799018573823315 7.012679685983036 4.593057377763864 1.7524096644557625 1.3189604951206964 0.3438580512387949
Ni 7.509798965952838 6.30117811542156 6.878789452457725 -0.609637355896292 -0.7718189437657804 -0.3736229412060533
Ni 2.3762398229189436 5.59795533190798 2.2716946071399566 1.4233719660592516 -1.3815833121582397 0.3938816914550894
Ni 2.569806617001421 5.376981011541382 11.314341083113941 0.21359696622698698 -0.40533595603861805 0.34585219885068824
Ni 1.473368801533298 3.855808597131285 3.7964949173279807 -0.9597362458384763 -0.7137930020702996 -0.4660430441106877
Ni 1.50799747246713 1.3039727832922083 2.329595969637402 -0.03769288656508347 -0.3043551080481662 0.16982444912672687
Ni 1.3279065013546907 3.4096020339846844 8.131241374547773 -0.0815556493863047 0.45174308254824785 -0.15896128115997785
Ni 3.821699629789667 2.9287212118698474 7.272947244963759 -0.968745391315622 -0.7982244303425027 -0.38666589043294053
Ni 4.308534249197762 6.965459599946619 5.601503904506045 -0.07354846281111205 0.3075214215912897 0.6810767427842012
Ni 0.3927956220380208 0.3932423847751872 0.547858762262264 0.8632075200821069 0.9723716752142995 -1.6385709866660363
P 0.5246635703571382 5.533384439977124 7.958376106888484 -1.0240197384078944 -0.3833972469839978 -0.008979834901107115
P 8.795354183345536 1.7148212669545015 7.87641429159291 -0.5956204727919097 -0.7946763079799282 1.7367570455201704
P 2.0204525672106817 3.338512053133951 10.448507604400072 0.61925071061634 0.5098610697369026 0.030947083200817665
P 4.245613644112356 6.211597627816268 3.4242759104988783 -0.7977238365570003 1.0286981177201704 0.8809998110685214
P 7.044937779127822 4.328255632881247 10.23260632050203 1.4758512669048904 -1.6921077822419115 -0.8384969047093042
P 6.794650352638982 7.8920363992227225 10.146560729084483 -0.9983429024670807 1.1397713169496178 -0.4031474330277315
P 2.52612416243481 8.682368798876857 5.677221070848858 -0.3774438576140403 -1.293348965200179 0.08192640246216214
P 6.933383858939451 4.139475582411267 1.3749816174417013 1.212350988089557 -0.09762530125465767 1.024976445894209
Ni 5.426197853484727 2.966759867777153 0.2644124230688009 0.5700997028129859 0.4390600877639406 -0.6535512836704229
Ni 1.691042548208995 1.216553168517701 7.076795609330534 0.11489874362312469 -0.05918319522837551 -0.9570592132269452
Ni 7.2439113140907 0.8535885326727584 9.305828022113857 -0.21292873651536878 0.19381258451120814 -0.3364995539911947
Ni 2.950001706329975 1.6929845984746366 9.32783336632102 -0.18209169652985413 -0.3319566718155186 -0.15541264457677104
Ni 6.3419429357862676 2.281726709991061 2.26147194630504 0.5408181802400492 -0.7887488867518996 2.2129407776092855
Ni 4.346107907154138 6.928752114643931 10.256212716477489 -0.11040779773130663 0.5862436595627 0.4327840249472417
Ni 8.630061088200872 7.4794008646117645 0.20385692520831206 -1.910988365465341 -0.5199400512394594 0.20473051697529254
Ni 7.836455467676478 3.964572529614086 8.229177237098764 0.310293327909472 -0.1476484272503199 -0.675455797052998
Ni 3.4172972941922026 8.668756211803604 12.185699831597663 -0.9772835106936202 0.07919434824297975 1.0413829122766904
Ni 0.37379270577675383 5.038699561044535 10.298060708539653 -0.8463295133798456 -0.31537511330775364 -0.24385730777342515
Ni 8.894143453900583 2.4551982985079333 5.950597013242317 0.14139396170017585 0.019160117868218612 -1.9118843949170492
Ni 4.0928663760358726 2.774150422417175 11.441341141119322 -1.3148904388163807 0.19096431642913564 -1.8569311786096212
Ni 1.165686039728905 3.6385542603721115 12.617448605513147 -0.4274111906711026 -0.3726184112009389 -1.0325969385539442
Ni 3.1760089456948557 8.650530115648595 7.933142218084779 0.5765302889296781 -0.8559891479567967 0.5531931568656343
Ni 5.740025882326876 8.085913191939152 3.667292957260852 -0.612392807154242 -0.5133392580934901 -0.5639979607906223
Ni 3.1909800561933688 8.605799136290674 3.0870721611353593 -0.06478202947239166 -0.4042967161408263 0.5489312962654869
Ni 3.6152952452188187 4.563517243230288 9.182244331406768 -0.4103822602132739 -0.46136055103335377 0.5562435136561839
Ni 7.106281038222825 6.169993987618512 11.305786944338237 2.044210332877686 1.475280739113401 0.48962134565126
Ni 8.086779364592841 8.96267138721777 2.4917453139295165 -0.14225450992825825 -0.7195954676846896 -0.10994731315512032
Ni 4.81458878391089 0.36782796735523915 1.34363528498501 0.17538805925743345 0.952029621222838 -0.5419281254747763
Ni 6.1480296726423145 5.73813853770252 0.2449363030104128 -0.7365968873386927 1.6135803781589693 0.08879227634405999
Ni 7.8768738189797105 -0.08877540291770379 11.742847636022562 -0.5020423450234321 -0.3255839355199554 -0.9936418974469854
Ni -0.023736777753853983 4.88949904204474 5.747919906364399 1.044155589925821 0.7199906462405794 0.599776146831496
Ni 7.181364530887413 6.150892601202932 2.5087067980101394 0.4484734106580406 -0.2454107683034741 -1.5782439076412045
P 8.811957345475738 1.6685402944268213 3.4886498621211075 -0.29771806234762277 0.928910261596555 0.25391006402373695
P 1.9273709185631072 3.489280800517269 1.3057096874030283 -1.1294483377570548 -0.18964071252170564 1.178456906445274
P 5.018321709665621 1.1574619583222923 8.1060740442743 -1.2837186411992665 0.4697770572318232 1.2079461741536424
P 8.654642156351901 1.8316725167407013 12.215697669996661 0.605968134574821 0.8639510831163508 1.0963929499639826
P 6.601411792404219 7.855028032892965 1.2543055315689446 -0.6718215427345203 0.5120223390542795 -0.5057892136603741
P 2.0928554834522712 3.215424360241184 5.852528033630866 -0.29772731831900334 -0.4238571547712572 0.32885669273395624
P 6.99353271153305 3.7066263133452515 5.741434552589983 -0.2631791480304887 0.767695151405394 0.07824175452172331
P 2.3471911273962514 8.704716053342054 10.297513652126796 1.1406789163655517 1.0016462558087007 -0.6595272987481996
