# total energy = -340857.23115902866 ev
CRYSTAL
PRIMVEC
9.40421121030579 0.00000000000000 0.00000000000000

0.00000000000000 9.40421121030579 0.00000000000000

0.00000000000000 0.00000000000000 13.76401369851482

PRIMCOORD
 96 1
Ni 0.8764047897068368 7.549399956041431 9.608217871449577 1.096025539322235 -1.0302266385495547 1.1314504557887481
Ni 8.545597471068717 4.6098785859075315 2.0218650072363333 1.737668501590846 1.3138542842423826 0.9980801357239973
Ni 6.125367248779091 0.8899054755549187 7.232672699923217 0.19342974725049267 -0.6899388211605214 0.2545335565403487
Ni 0.16533638058213582 4.539939465921334 4.316077856697258 -0.4551047999316291 1.5023459707613092 -0.3365671740043365
Ni 4.942439712715642 8.45824175161843 10.818941435070267 1.802701213621463 -0.47784569317257053 0.2553830490248376
Ni 5.443101117828618 6.85219053321815 4.456058602573627 1.0653905880451973 -0.22519444125659924 1.263922946629578
Ni 2.851563781155695 5.151777457894177 7.289118657430433 0.920352601834531 2.486705414465104 0.7981514110127221
Ni 0.8398778923102532 8.121777877090233 3.3748949782061093 -1.2137859207638708 -1.8593469871399655 -0.7603528521077099
Ni 3.387735488415758 5.232080018814191 2.5265222617619942 1.2263491021408621 0.4801087781751345 -0.36927083488494467
Ni 3.703397247385331 3.154040835779343 3.7028226500703982 1.2334995971427143 -0.9705515912864253 0.12861249366479138
Ni 6.85999602865832 6.72781043358961 6.543412656974124 1.6946125509416363 2.0308930469434894 -0.2652915663878012
Ni 7.096173393097391 6.361732697445637 0.97870097976652 -1.2573308952343571 2.0313990400456303 0.3095867887607507
Ni 4.216387573609227 7.548468939115435 13.889266921622081 2.4174818042815915 -1.0826200645496065 -2.1579561938432903
Ni 4.679385112170539 5.607533753697742 10.800112323057848 0.15175782143300315 1.64040238344782 -0.23939567245764576
Ni 4.1208407860524465 3.301527082753061 6.529180323481168 -0.12329262411377476 -1.6007536587079465 -0.6785511481488701
Ni 8.864616533498701 3.8784190252612394 7.960183432213693 -0.09400158845914133 -1.1996973038812888 0.988608448788136
Ni 0.9939499085089726 2.628571121062549 5.579793210987605 -1.4941804042313815 -0.7337331926376525 -1.8531480574181054
Ni 4.966552110677806 3.0985183718290252 10.449405770404185 1.3567935068080696 2.474565436668461 1.8244956837887354
Ni 5.298154007925799 5.359563508196051 13.008603905005234 -0.10938784110722452 0.5654524338489616 0.1103599752125067
Ni 7.019388007231141 4.355203137696395 0.4570023538105796 -2.007014183443363 -3.8329985359624823 -1.0276208254955914
Ni 6.417772393021509 9.152686336297842 1.3943492544823965 0.2356068948391749 -0.9669744154581282 -1.3410709538664904
Ni 2.8201913320130356 0.002527852017250235 10.629686383280266 -3.6136834363047954 1.7530172161327742 1.6772424350943047
Ni 9.283433087026378 6.686610583561436 12.000513824274767 -0.4105103011507059 -0.23720175013012054 -2.255114582763858
Ni 0.09288163405347348 0.6915546705242759 7.276387236072718 1.1945934069958202 1.8378353383204349 2.837568950487455
P 0.6705738749495539 0.6510441491897936 4.203350515381868 0.4314725052246698 1.1365327554076619 1.361242800828675
P 1.3326519853441083 5.518250170915845 2.0410655855980138 -1.1424205816470068 1.138436143077962 -1.0438604272829053
P 3.187096638757894 7.485018724977089 9.794830339843568 -0.35887406503165287 -2.261019121173751 -0.5245996614986579
P 9.240784988446654 5.912013905343987 8.711189646200218 -0.9737904099386971 0.5781030327334367 0.25984391300966864
P 3.28082841351955 8.332215914999493 6.116260210484802 0.44570458966365173 0.4251398781384227 -0.08908435366318206
P 3.737835469435816 9.340055843707418 1.0785539557113164 0.5234760894171758 1.4008053936126457 1.032034895402887
P 5.660714569016008 5.108837828761868 2.2599138097387708 0.3036719659382125 1.3391819643738938 -0.10377152336171161
P 0.7760411650844484 6.5098020055245245 5.088734446108313 1.6920383624565571 1.6615797888563835 -1.5713440951975777
Ni 4.977893589594486 6.9297846812625385 8.588854962545458 0.14529869607122073 0.37313674559825416 -0.004220465839250796
Ni 6.768982070983664 5.148260282840414 8.645603735658906 -0.09710131043038761 -0.3580430844899253 -0.6787545224089278
Ni 2.273646779607783 4.509742543200387 5.071226625793898 0.2632033164002047 1.0279165023591395 0.5344765542927375
Ni 2.4119827289148925 1.086383902101058 6.32477132548359 0.09500817534678475 -2.156263893742531 1.90732377212956
Ni 7.252668874567113 4.400258714387785 4.113540296763045 -1.6089891592438614 2.0511201726236417 -0.3501163734436809
Ni 2.8695164206680857 7.468269824520531 11.973137224544793 -0.7985738432621216 -0.7564537741636197 -0.1894280822902673
Ni 6.472194564241104 3.4752981005162673 7.130405662918792 0.9407082826727476 -1.5635996753654686 -0.12389837601857372
Ni 3.1774008968316108 3.7789412773502535 12.634442308764429 0.4421896345318578 0.3100115350029951 -0.058806785725563235
Ni 9.303595716211587 8.683077637140821 5.664772486223759 0.07855362933518728 -2.9816291461658846 -1.0242567941193648
Ni 9.032575748632961 5.6969113785933745 6.546990959401816 -0.5196448885965438 0.07228039473196583 0.33849447293403634
Ni 2.0018368582737667 5.723534700992316 13.410278462040932 1.1892257149260035 -0.28327129079467345 0.6634834551824702
Ni 8.65808124330953 4.493745979653725 12.684103127765521 1.2161456792452991 -0.1962880426348942 -1.0487272684569036
Ni 4.607010301438553 0.8864334407157491 2.999096108765144 1.0293763747341176 2.1219070135292166 -1.3160173533319721
Ni 1.919597029810771 7.431471145415249 7.434783308661064 -0.7019754406100814 -0.22788227250140755 -0.03257279172969874
Ni 5.620417523279709 2.6493638324097972 12.798894693477436 -1.0337940441858389 0.8648879931083234 0.32294186991141804
Ni 8.06850301965823 9.54818984983012 12.477904508343526 -1.793094029549002 -1.9344082870511785 -0.49172065138244986
Ni 3.080311818609544 1.360290962571409 12.94034813885493 -0.6913112760280159 0.19440882333431037 0.708084895941929
Ni 7.720340306181154 6.822877606366331 3.9702981703822764 1.4020613775069337 0.971314694704695 -0.4794696019292387
Ni 1.004802368434221 1.5683403307917474 2.3790407168939627 0.026677252180870185 -2.64788967141833 -1.0578109759257266
Ni 1.7771796527674766 9.026209097532968 -0.0417246050228268 0.2760932849889955 0.2983914342655635 1.681200905521421
Ni 5.848121693271078 3.007109437276673 2.3621253618960907 0.09550516958786133 -0.3851815925779302 -0.16747420372699542
Ni 4.91141521939381 7.417731592598274 2.347865756190151 -0.2803680011049494 -0.20851595215965377 0.10981284445978508
Ni 8.8122350761472 2.7126259623206685 0.5599352089802624 -0.7870293329576317 -0.09145748188104895 2.0382659423687923
Ni 5.264063741696141 0.3641677408139746 13.183269263270079 0.40528787640950203 -0.8212005795227019 -0.8715792890855698
P 4.2872483063100475 1.3272351595928578 11.282073453854224 1.7633851896306598 -0.45611807168749186 -0.42588986893056974
P 8.40472238469071 3.428502744720742 5.80813874819466 -1.2390521515298274 0.20850181109226676 0.23546625549625255
P 1.3218747591098494 4.719437648411123 11.661587927208938 -0.5247225602297673 -0.39372691104477997 -0.6715335791804563
P 4.3354919106571215 4.881481614591326 4.802828552346259 0.523682291890711 0.6697967989950078 -0.392141311725215
P 7.373042780150458 2.722923573774869 9.218118017772628 -0.4582461737740882 0.5016721061682069 0.49362635304559505
P 1.4161425739198061 1.934954106984021 8.963483948091534 -1.4663353569946553 -2.359620670298749 0.0063339126378278016
P 6.67627535526174 8.64451096629728 9.126986507455799 -0.6278039995029897 -0.37926265599033393 -1.1657762256538118
P 7.669529352129059 2.2746906470702637 12.564108211900537 0.3595996303437678 0.6311397487444421 -0.661661314372067
Ni 3.654382497705613 9.234493571037648 8.64060727815606 -0.22278300360162923 -2.4920448244001467 -4.180528636736225
Ni 3.213644727465846 6.868346968358165 4.430374760890919 -2.1326796786646884 0.19855935516757414 0.25378870795452424
Ni 4.37276080033109 1.7915680961692357 8.836152806933928 -0.025089853089092274 1.0190971042952965 -1.6014781955787967
Ni 8.5030904356596 2.630536601239652 3.396600838477744 0.7985188216544699 -0.9443006280096963 0.9438008055551423
Ni 1.6471664305260907 3.517579434852417 2.7095009428811885 0.02554648101053665 2.0575705562346758 0.008982148893952272
Ni 1.8546421418526333 3.3026555881179047 7.557930516178513 -0.34161682061310195 -0.7766518463780495 -0.16008459613114365
Ni 7.0420521566417555 6.69040988495641 10.13493928670021 0.8091575323152388 2.9386505857218297 0.8514616924000884
Ni 0.5037130717037415 1.439690719199548 12.716063340119037 1.8347037346699884 -0.30785926454668266 -0.738927078133766
Ni 2.9499882573928264 9.076578053650499 3.4413479570360774 -1.6606832451840432 -0.8455196158840407 0.5740134360450952
Ni 6.208387626786104 2.5908790418767644 4.885495332005621 -1.9329851814514065 -1.4266961453364786 0.36890291002256465
Ni 2.854695383543137 4.68574235905916 9.976060778068394 -1.2033359290751406 0.15998843687291156 -0.701916819458004
Ni 8.023466251389587 1.2379045557540929 5.594809855709126 0.1642929777855364 0.41761785872976465 -0.7768220534073266
Ni 6.741888538016037 4.7112747929387515 11.00262261077908 1.2520994716320888 -2.3162297049076237 1.588142654812155
Ni 0.1328570557607923 6.685256377123623 0.41624826340151855 -0.8938751243692927 0.7196769716549024 2.7066108394086226
Ni 6.714503474495826 0.8126959597557143 10.479039380863847 -0.08122449129913109 1.9485074454567217 0.31091964863956134
Ni 0.2031808079921745 0.25643591658029335 9.987072169165858 -0.3217673899873426 1.1513762481783976 0.34390818775043996
Ni 8.437138701295849 8.01307459782165 7.947919400161252 -0.027840419251035923 -0.437145387239731 0.6108874262533093
Ni 6.60198208540952 0.07755559077775656 3.6144992372697566 0.7132222171684942 -0.19628264331825548 0.3351602663544808
Ni 3.5086454340474034 2.67225368289338 1.1099564983303714 0.7398771007518612 0.13180194713636656 1.0391681640135586
Ni 5.204920656366949 5.448179391970416 6.616980862129433 -1.37368951123246 -0.8480837770667911 0.5464383546403041
Ni 2.4310168527352585 7.46770557183811 1.3895737959468324 -0.9364453936313355 -1.5982907989897506 2.6457813668260757
Ni 2.2057201608555568 2.5679609787590603 10.748070357736937 0.12204589619086723 -0.3216282933063171 0.8844643725783541
Ni 9.038453380741524 0.24988118125282532 0.941231780390292 -0.8484794698433128 -0.9487936307840436 0.4775286761527841
Ni 9.056725763440621 2.5274570403725396 10.862986059038986 -0.9393178300831242 1.0565269670069806 -1.3287052332122857
P 6.653818098501349 7.309216397557164 12.786480194043019 -0.743265814718436 0.3221697676320839 -0.6105529257320259
P 7.074092304791947 8.658222306480134 5.411982582393049 -0.1676194710556081 -1.4091295972076248 2.1435744712003215
P 8.193061799302871 7.837065377751504 1.8792012398550477 1.239833509780542 1.0522669061790457 1.5012486239320728
P 4.649122359969977 4.1544890543475415 8.562042615497905 -0.34627488821040364 0.7203382593879852 -0.9020172938604529
P 0.7220995490660496 8.606527356558912 12.097852114098236 -0.9388948836130926 0.274140789248315 -2.7895695397900413
P 3.9764297161979285 1.5031033164923988 5.120020376506333 1.9969354590511221 0.1361964766596364 -1.42365633006889
P 7.407133046380116 1.5257110406347707 2.071346205800187 -0.2659148017940969 -0.40914324559985016 -1.1444918623537388
P 1.5048242871737856 2.733794842122865 0.37641578570707995 1.6143401391431293 0.24938415112892534 -0.21780534788137973
