# total energy = -340861.22784164635 ev
CRYSTAL
PRIMVEC
9.34132875187787 0.00000000000000 0.00000000000000

0.00000000000000 9.34132875187787 0.00000000000000

0.00000000000000 0.00000000000000 13.67197886435426

PRIMCOORD
 96 1
Ni 2.479721097189629 5.742581828685339 11.36574878171879 -0.9835706292539126 0.42046561259120496 -0.8377487136893701
Ni 3.401644852241995 0.9685650093356131 0.6703589703089019 2.7117620445922586 -0.5594031423310882 -0.10040749198548514
Ni 4.95088553727462 7.998101695341782 0.2611826167903363 0.3808989060421763 0.19039764529238823 -0.1357071957280437
Ni 2.544344409252817 7.17426189181637 9.251691194751753 0.5444439499180946 -1.8949343973262722 -1.3931782160846908
Ni 5.903747773037203 2.654516040139381 0.48743240071112937 -1.50742981304212 1.3555894591976396 -0.7007878480598834
Ni 0.11122626689869616 0.7758870266903177 5.034761327823243 0.4408650021831633 0.6849498525863623 0.007975819116624974
Ni 0.11955312731689888 4.75711835570094 8.789318776589326 -0.3062690372414274 -0.1744256953441641 -0.7030707305567891
Ni 6.178849903748522 0.5570028804627633 1.7649571866922946 -1.7364595688844093 -1.0464361584298818 0.372802502187287
Ni 4.833577131248381 6.3807066759909965 10.647763981079885 0.028561356577460485 -0.02029680257582311 0.768562898722328
Ni 0.5416205144647215 2.920370255421015 0.6908501089821905 0.7096697239305455 1.5261304747754167 2.8402683516964893
Ni 1.2536436791165306 0.790142828445107 0.4335142513574542 -2.3133667815375323 -1.954098052170622 -0.25416280346449127
Ni 5.728784686170547 6.76603648556118 6.378443272042904 1.4686688902238385 0.11636864330043185 -1.2603074613641778
Ni 3.326559252015931 3.7307024976218566 13.667904297861249 -0.9711383170278308 -0.807610499543093 0.7019924098909459
Ni 0.4703527152852355 4.31561913655632 11.012560615997556 -2.0919384921915842 0.03698840429889114 1.394258079412431
Ni 1.679271980771218 5.644722069047588 7.235184169441942 0.4130829469738886 1.4930308640079706 -0.01018542517343407
Ni 3.6525062349330804 2.1226955136315095 12.119826608253872 1.0731545482613325 -1.6574408269873457 -0.7359826507934615
Ni 7.570651834587308 4.4398774911478975 0.08848386800464601 0.22149488091782502 -0.01563230722061824 1.2379308934411906
Ni 8.152569907003661 7.624794175830188 2.7658964389619047 -0.12787432994718623 0.5629486935905014 -0.07495228513717414
Ni 0.9517132523304104 8.407167821181488 7.579635390414305 -0.017420509469292578 0.028062305453854897 -0.3965173293057236
Ni 7.820952737555382 3.0819472182364205 5.402304313383666 1.8784911641685844 1.1288880943782107 -0.9864638916413075
Ni 8.968703114337668 0.9692749503180939 9.670026721077193 -1.320979068212622 -1.0945990912883536 -0.617449395741543
Ni 0.35054550382723815 7.701617263197585 4.7901147311274785 0.18549917954950632 -0.36654417998240096 0.3865386208264569
Ni 4.613981175772602 4.829252096052478 1.6580830448427804 0.48660672719465226 -1.74300714019494 -2.2880578704590984
Ni 4.422100942599726 1.4926602569946468 3.5408100991999265 -0.4382411914070711 -0.37918475156454695 0.494805975175993
P 5.531617260943933 7.943978036756334 9.135343077317607 -2.2548438456009747 -0.8861967818884288 0.7471047288485521
P 5.971930131341513 2.002808900879419 11.211350630022286 -1.6893531023149098 -0.20213833076808413 0.32611589676402547
P 3.303822457919111 5.024990297985415 9.488312655946869 0.7113527680599233 0.6293924270360322 -0.8000959363336027
P 0.20868995419885292 4.770467114437323 5.199521815465351 -0.21999438511289854 0.07201145734129534 2.2662883399924905
P 2.4052800486450274 2.039707149310988 4.701492611457824 -0.8262026607229834 0.8090346335841293 0.3853253172446461
P 8.643578168347602 9.378040138710164 11.61718932679032 0.3353435860098805 0.08434323943377087 0.2004689134854612
P 1.2342510807003442 1.9160933464008734 8.754728770483691 1.6326206826198721 0.6642398737325206 -0.16743023786293748
P 1.6297816212293308 5.699191356795557 1.4961520456690063 3.159033207412082 0.6113916195832374 2.1689196348333293
Ni 7.053702703396667 5.900786571833961 4.594263499117069 0.7832351560225221 0.44533640769095556 -0.5091301051081489
Ni 6.5701488223687745 8.159389076966963 11.091597598270846 2.09144201217114 0.06770280266361244 0.07424188933371084
Ni 4.131520230204582 2.144591588143813 9.660565823352764 0.008110802032592483 1.1742256419727455 2.3131376962458616
Ni 0.9750385501363922 5.053985782322526 13.323206465810761 1.2393928226986977 -2.272375169616519 -1.893392763870765
Ni 4.903328832777122 5.994564170822447 8.197773530797384 -0.8585558802427085 -0.8365415807551465 0.8126488332979488
Ni 3.8833865154988176 4.837649950568929 5.611705142697872 2.7524027009317567 0.1307958744693554 0.23621984583282543
Ni 2.080192467969829 1.9776433613162174 2.4440848622677063 0.16775393975094335 -0.741173965186414 0.07733209822326036
Ni 7.432316097619433 8.29029845760494 8.679628224131681 2.6366444375218143 0.34214312543021724 -0.4840461655563276
Ni 2.129439952965077 5.767738026919824 4.801681164344687 -2.18912027815092 0.9091587900012407 -1.5037595632793845
Ni 5.875452888353856 0.6189910036949275 12.921236947397247 1.0209608969769126 0.8488250261081898 -0.03517474812892007
Ni 7.673425133130124 2.8656767757838413 10.322343849102367 0.507282767486765 0.47597110185767705 -0.11913926406703351
Ni 4.133145621401314 7.3745773448205645 4.718391075106611 -0.4353736400512889 -0.8177465595358303 -0.267778594475713
Ni 3.673318715314229 6.890892685190637 2.00621288106384 -1.8318608659045548 -0.2574363320094405 0.10942949297843735
Ni 7.164397448691374 4.870279211776896 11.5588517948207 -0.13402903669467242 -0.02070869330226111 -0.7057876152673199
Ni 0.39955104840872036 3.138023214523688 3.7537242022445403 0.7503330059778627 -1.0244714812333326 0.11404899402831971
Ni 8.794926376218053 2.5331815214361777 7.356344939431011 0.9625009530678069 -1.3014440835034877 1.4151868591452983
Ni 6.351150711930875 4.61404656507362 6.289752960673615 -0.5551978460004889 -1.5054649760062653 2.2073843665674304
Ni 9.13539912528991 6.299353044195925 1.021251971564407 -2.4256340010750805 1.5871221839674408 1.8995767811942896
Ni 3.0208175631133347 3.913839247115758 3.5728022817894045 0.06390682595628992 -0.8101774889393207 -0.6721922958103778
Ni 7.702224449564182 1.847397215017137 3.358206739575757 0.37209107794255913 -1.1593482106402808 -0.6783130639961351
Ni 5.735781341379471 7.8340866457312766 2.930670938597089 0.915713560400623 -0.7201130307510566 0.6446645227037543
Ni 8.791227210046179 2.6045959794765183 12.525460729923006 -1.8873167328800142 -1.2091265676149887 -2.333212098398233
Ni 9.158490889877969 5.356336568900904 3.256719741997252 0.33922955132784804 1.0142798854123112 -1.1345859160939362
Ni 2.276621928227812 1.4090833889649637 6.85071376211371 1.0243673515553005 -1.685198456716588 0.2425794695022661
P 9.208551070471584 0.10499653477742694 2.378910411810223 0.2846974817182387 1.7189583267758526 -0.5019757534515549
P 4.209081282540612 2.68440829203331 1.7834959876637608 -0.7002286331223038 0.8320724892401992 0.08330374242566298
P 4.037014007576181 8.958913401842405 2.433379699558193 -1.2757333090009448 0.2774145749035803 -0.10878903118096103
P 8.107937038394537 3.648265271695629 2.1340732520086365 -0.17192786862297485 0.36746823445856713 -0.17923622935893005
P 8.305263266209339 9.233903436609124 6.752084276989689 0.5563337593771451 -0.15116209683053322 0.5837100945075689
P 6.991209214280921 7.176737343926336 0.7214401581312687 -0.5149996765150485 0.2941830526111708 -0.23275888386741847
P 2.698962082174167 8.927704022599402 12.696961920367196 0.173289781967508 0.6029630291999101 0.8574665038332717
P 7.395081561354057 8.024986039388883 4.802925429329771 -0.7943001555874322 -0.05908086532255632 0.3338274064756702
Ni 3.4966368239636725 3.8698042235445134 7.574043671044397 -1.0879569033814875 0.8820706755351969 2.8468974269772325
Ni 7.150413479602245 5.7403772751081625 9.38775512057569 -0.17993814052196105 1.3394470451098222 -1.5314338892662012
Ni 1.4407411519863782 3.4478470640755496 6.621776477921077 -0.6318905108675376 1.1606368475447173 -1.5767678373163103
Ni 8.224264604905507 6.9693598464122015 6.800537749044006 0.11157996366253686 -0.5132035038465742 -0.4323029715457652
Ni 8.55981447374358 6.503825388479119 12.594408143049225 -2.3780331113676656 0.1364862399859133 -2.5338368207352686
Ni 1.236530364907256 7.283022982066689 12.938722980622323 1.712163415341206 1.4439839858826489 1.5178864895990698
Ni 7.8283977765427135 1.6646247773431924 0.8924285096289032 2.8704106796078244 0.14598440928433568 -0.24291217025133646
Ni 8.418853823406272 8.678710905651686 -0.0006847193949453199 -0.12696261676619425 0.6752555081167338 0.4563245312713431
Ni 2.8572976039248243 0.12622844081796197 9.08020401630064 -1.3029489501837883 0.4423467289350123 0.09232265809482164
Ni 4.895790380502621 2.5548066974156924 6.646058327787665 -0.5554935228640369 -0.1727171972934896 -1.382581157295135
Ni 3.7567274394270087 5.8634866462675665 13.224303279755336 -0.6945927749927651 2.912696327749913 1.0502681305814623
Ni 5.453673214130512 4.108820801422629 9.652922748196637 0.06538083939865513 -0.6779981038588775 0.11441511911848683
Ni 6.139037160757295 3.885114661311435 3.4263890978800666 -0.5159998356447887 -1.3147888802415097 0.3559538060610644
Ni 1.3152684246616098 1.2082915281962097 11.300970403598901 0.5193358419965572 -0.4119807150486453 0.15180204440737727
Ni 6.30313628232625 1.0570740989277945 9.287416172296487 0.9021774735874012 -0.9207786336283561 0.18519913181058426
Ni 2.3626929310248954 3.380804347874696 10.440237022306281 0.2940789229331387 -1.0277336969243718 -1.6906011157893979
Ni 1.5047012297106703 7.945024265572623 2.5621835447033914 -0.09938856380266754 0.24800629694479226 -0.1971064247711315
Ni 4.057751757327595 8.081146107634604 7.230275301201236 -2.1144122478140686 0.7604410409461421 2.1464427938870516
Ni 6.807072942614316 1.4728099334713343 6.779127423624978 0.562356054311825 -1.2333491876077793 0.5670215781082945
Ni 1.735478755660522 8.25127038622593 10.959786779411694 -0.9770369419004528 0.20335034879831432 -0.46849870474003186
Ni 5.546722189479084 8.90327644800483 5.896313943644332 1.801763789408858 2.513868348033142 -1.8928047525777791
Ni 4.462773087832904 8.855682378192466 11.521157665182457 -1.7196370980104319 -0.19899618559467663 -1.225921013464508
Ni 2.6590652672244883 9.240909433146761 4.70224458841953 -0.21027561516323787 0.07952910587457916 -0.7657912495144619
Ni 6.703019882037291 5.69055062773247 2.232921324224631 1.3128037314906809 0.24421212000968262 -1.1477365945432816
P 2.3168643723400146 7.533314543706046 6.015438303973126 -0.983255669116655 -0.05439091604605471 0.5905960229941248
P 4.623518672392509 5.569701858122542 3.522844855811675 0.30187425060784134 0.8757874136296466 2.8239104791637555
P 8.924677432095141 6.152451308794696 10.43076304672165 0.4932196045254796 0.9584203552405303 0.4017310122961791
P 5.320783471804562 4.831316529698903 12.56953872360635 1.033650576629439 -1.0687731313641853 0.27446474824663697
P 7.49937749647772 3.81279409438556 8.365651219832307 -1.4708625554410475 0.8468830718904705 -0.7258432483666144
P 1.5687266967359803 2.9956239995639824 12.449676398308922 0.7992032493160043 0.5388818824492848 0.815020675964235
P 4.544220132915145 1.0147111731968665 8.101194467326714 0.2501318279282273 -1.7306686732342453 -3.5472142489379683
P 6.0249608544670865 2.225496836160476 4.751573342974616 -0.433324213721428 -1.2122455728599446 1.4887556336713843
