# total energy = -340857.4922827336 ev
CRYSTAL
PRIMVEC
9.34623702945669 0.00000000000000 0.00000000000000
0.00000000000000 9.34623702945669 0.00000000000000
0.00000000000000 0.00000000000000 13.67916262472609
PRIMCOORD
 96 1
Ni 0.7757825192800243 8.94258221277371 9.734885140284094 -0.9728049060969763 0.4109720712784728 -0.07371609873722788
Ni 0.5695839729687295 0.9875420765084179 11.884278479529632 -0.04632485120846861 -0.9448737269043469 0.015059208325967615
Ni 2.9491209172980133 8.506720457952014 10.208717851497214 1.8870411106211242 -0.19621219509163626 -1.8811046905320314
Ni 3.23660181611994 0.3955888202976973 11.833474205339439 -1.4382915634835616 2.25908128072109 1.046914383617881
Ni 4.74082255736628 3.8425650813470154 0.9052923884853155 1.1635761326786995 -0.049679883723630566 -0.053564306379701304
Ni 8.307365226251644 0.7053801210695516 0.04768263108715192 0.7903247158794519 0.3519359431509229 1.0716689648547415
Ni 3.6084511948555673 3.585992187739956 8.490081352513844 -3.2435057733348653 -0.5190882447621255 2.46552209551927
Ni 5.748169309729039 8.302804262675938 1.8494090447851337 1.7550884968395064 1.7539309861962953 -3.545657960194442
Ni 4.658846714082457 0.19846827382468535 6.684076231592588 -0.36919498734168676 -0.32872068137672417 -0.4301141914245624
Ni 6.447043515337426 8.72232879550925 13.182170761772667 -0.3209999156936988 -0.8464477841252648 -0.23218887029656143
Ni 7.630576178285448 4.44750026052219 9.666872574832448 1.1387837562253678 0.9301482477687143 0.9698771909272199
Ni 6.8581097038346455 4.23698562204028 7.508410581985461 -1.4079268351487753 -1.1096050777788824 -1.1970920050479577
Ni 4.813723204682871 1.2273758599431672 9.027562871200134 0.36411037372992777 0.5213004219220957 1.1820050288078483
Ni 0.4372066783023189 8.267344640122202 12.594008339222407 -0.038091664665398914 1.207231921695437 0.30121759086044897
Ni 3.6955674683988944 3.2311342675711954 11.642677322709298 -0.8386889661154524 1.5762428180507757 -1.0624759855015637
Ni 1.4093657836032525 2.74392428757548 7.896009304412524 -0.7147903329865625 -0.31772638714874957 -2.09234986869739
Ni 0.5578563149875938 0.05697652899633375 2.8193026222771516 1.9154376594859461 0.6308600127204942 -1.4291163247421967
Ni 1.0884814343313902 6.514401844210589 13.650914447028878 1.3943133581303986 -1.1222248234254222 0.7399292941460354
Ni 6.966460627468138 0.9681112501274955 5.294095477809764 -0.4121889744047095 -1.2755080803640162 -0.4828359472983104
Ni 6.742337868153798 3.1595140547010625 5.190024196023229 -0.46040384354703934 1.8644935643379117 -0.5887062621705796
Ni 6.090942545669549 6.771591589448788 3.3981225464866833 0.5961624613383087 -3.4199747243613032 0.30708844781892924
Ni 9.149442472652956 7.238828661327126 3.968571046362693 -0.08613375567529037 -0.09633126503358248 0.28946045032452083
Ni 8.424940885641735 8.925132788601905 6.943447388508184 -0.7026210446138802 0.25368843493123405 0.9581051379929566
Ni 9.173434262609582 2.8044411710850863 5.004042494610719 -0.8437632953145662 -0.5894814497737073 0.8822197995185516
P 5.504727878875801 5.910466712376809 1.319471808472427 -0.1301806094828597 0.9089626148300345 0.9192709387345781
P 2.097276853403645 7.842969410371286 3.3625432921014524 -1.789018573928048 1.0402153743311504 0.9012480197945963
P 9.176210094949713 4.004432557100355 11.152552251444602 -1.014725457590162 2.5507289685049166 -0.5027689387768115
P 8.007491217385896 5.428995321798066 4.920763785912032 0.3790502828692117 -0.12285142281129809 0.14541490993411085
P 1.0941732925641856 0.8590042159340142 0.4558010164864675 0.694818517850326 -1.2556319102653795 0.14251624823007714
P 2.9620561090782904 3.823657644228879 6.644147238584134 -2.0999389938985575 1.0461034576808113 -2.690455569804999
P 4.745280712336794 1.6441712916205242 4.953169992891625 0.4542918171120305 -0.33212430774163443 -1.0682362850241087
P 7.399920399423121 8.47467221184322 3.2000757879432773 1.547517425091625 1.5171935772971032 -0.07035592401574334
Ni 0.7313841558168531 2.734877130318754 1.484312322163126 -1.3084202577110047 -2.3985551425804172 0.25397125627897554
Ni 8.026819235161627 1.4274600981167038 2.414345134175589 -0.38818258418778306 -0.5304622909270219 0.47533603937683944
Ni 2.7780847832090876 6.679708735119377 11.819329610512652 0.044250485177943145 -0.06388651424131578 0.7500203598334503
Ni 1.7251190488524468 6.285615312715354 5.20817645720506 1.133769333729912 -1.911540895534701 -1.404819142757729
Ni 3.485221062180022 1.7668406500859422 3.1858498808560225 -2.3627666721268987 -0.0497269349114821 1.4755031395368525
Ni 0.036547524521384385 4.691016461270111 0.8232857026199353 0.6213343326182461 -0.10161051115465079 -1.76124603180047
Ni 2.5523731636327183 3.8726038865361856 2.1631949271804634 1.7759769102527414 1.1524375995633764 2.0312946532572824
Ni 7.425659935667979 6.513214872132485 7.1350919748193 0.7059038291302101 -0.08662509348941211 0.11025070332815205
Ni 0.13132677764610484 6.351880131878768 11.46923920575366 0.009652435488099506 -1.7191748136620326 -1.6667225093995879
Ni 3.915260111453226 7.141394142317451 8.44987851476611 0.7644385921413093 1.2567421126104228 0.23036467260362908
Ni 7.869877226220577 0.5096222559271497 9.174805355553344 0.14682027492206973 2.435910186190108 1.219958625233486
Ni 3.8870531686838072 8.242642536166079 -0.286218222225456 0.010622769821168802 -0.7791183056406711 0.6835804830426615
Ni 8.186770732363698 2.935550181412925 12.676602903384738 0.32538596057653635 -0.04475904938324549 0.03332072563931681
Ni 8.758423962167798 7.908122027351281 1.4163268607983033 -0.878651622551319 -0.8494194651590791 -0.578343687989333
Ni 7.24388497545511 5.041939615731144 0.23060904767815016 -1.3846434391408025 0.12940876431384163 -0.5877138163503233
Ni 0.8578667789111388 4.4241720533808815 3.7057810360126853 -0.5219992477613333 0.48030212513286313 1.0148221310690264
Ni 1.3808223763077565 2.9980951983158253 12.010126493142792 1.371688164531715 1.5159545626836795 1.7994721651612042
Ni 2.9521210593221956 0.06621902260292055 1.6999505676782356 -2.1907045919189043 -2.003295082720563 0.5738712540402762
Ni 7.627594728734937 7.757329842247963 9.359214085306446 0.5263894064092289 -1.5916288135885428 -1.6469224439545247
Ni 4.946505191404257 1.702585271842152 12.434686778383048 0.09749751742754176 -2.1610338043273494 -0.951825989852464
Ni 9.168247101165901 4.460155065197404 6.780788286494881 0.2863113631725779 0.6994729859032018 -0.3091509867749127
Ni 2.8633037706748157 9.27835511732446 4.9639490078339605 -1.1113148613811377 0.12543589570902267 0.1399664852250299
Ni 5.924355220314302 0.019228947665276247 10.89921502502998 -1.129424683607971 -0.7033741207298209 -0.8254691249910687
Ni 5.533654481881551 1.7837386462844544 2.408627106479654 0.39190657000658957 -0.3978902983938502 0.4669131054204668
P 5.956085694370691 3.6873334337468533 12.413169871940452 0.1976576692889112 0.7078007890426068 0.49516464406699234
P 5.299755558837319 5.565085876359204 6.81564227290168 -0.4689021108260376 1.359141695325272 -0.10721217361214438
P 1.1889721727862606 0.8970265766280344 6.537763697804506 0.1554013317228614 -0.3579962904123899 0.7283852980621778
P 7.8447078104226815 0.3144382497264452 11.649817847651589 0.6675313999995988 0.708569034667199 -1.062406308605893
P 1.305725363334832 2.2953049194733803 3.5788927862397406 0.4167200295058436 -0.7111365382840591 -0.5089375294813686
P 2.1580087003604667 1.9108755059572224 10.26886555865182 4.216730026357447 -1.3758073289064112 -0.2829007948291321
P 2.069182065476251 4.108811330078776 0.08307122224093921 0.5765727121318394 0.8346029689715367 -0.6960377349694078
P 4.853211055312691 7.330739554367043 10.811517415555489 -0.14769856376196497 -0.4112908880704723 -0.28332528396106044
Ni 9.268878033173303 0.43384951003102157 4.900956306186641 -0.1473910598238752 -0.32545100948651695 0.4556992389825184
Ni 3.9494579920341764 7.281821350770243 6.09577641936085 0.10580500885197261 -0.8127164533110907 -0.8271889358956528
Ni 0.2468668266534335 2.13453095342979 9.907092357848503 -3.807764958206674 0.17229347949250973 -0.6545439866009953
Ni 2.752943406121699 0.7315215454983343 8.17793666930682 -1.0739641886468214 -0.46301222770416384 0.13372898895575033
Ni 3.095286715167778 2.1254931424099 0.7393434111059312 -0.2553588806551215 -0.14487677804245372 -2.1377900033080603
Ni 8.279326515745263 5.331009374815098 2.547484147144089 -1.815649289141699 0.21353937351617416 1.7588919297459964
Ni 5.075165487681205 8.957480114289433 3.975779798833883 0.43632134867653893 1.5859430760576751 1.6166747008135771
Ni 4.006694346414536 7.446745045968778 2.699117493562599 -2.5960588027899676 -3.0137293691345386 0.05140946482022758
Ni 6.608845567432916 1.6719296150218417 7.615353962351534 1.7574220300686896 -0.2887423412115737 -0.5872286491837886
Ni 1.087219692358603 7.952423189951363 6.346434079674745 0.16466450219234222 1.3786075173593677 1.5713687777879262
Ni 4.707615377889889 2.577224807378208 6.85148228729462 0.34205622214336573 0.5733704031444578 -1.4922124818717333
Ni 6.666250154076314 2.488267325178296 10.583828132264737 -0.07413390300093683 -0.9580038365284018 0.6405165619736518
Ni 3.363822791924227 5.772301293238197 0.7806892936186409 -0.6137351801147495 0.9134376198822527 -0.703878056949433
Ni 6.927598974706294 7.838688833900646 5.224223011227862 0.23346182347171404 0.2393347373127233 1.0869158637114829
Ni 5.812396649262323 5.811798490104852 9.017412857996824 0.5316902497968521 1.0837824602888237 -0.5131749646014839
Ni 1.7354279480819599 6.748786771570265 9.70253407610183 -1.122697906407099 -0.9600437497765658 -0.4985088779488769
Ni 3.966112986074967 5.245332421744433 10.152346024024135 -1.877383275816386 0.6975827108590245 1.100636555731685
Ni 2.3056698961239057 5.727841244611912 7.732529602805068 -0.7801189789910435 -1.2656427575341622 -1.5541490714755297
Ni 1.6011972946510773 4.155944402440003 9.720371369102308 -0.016243972662688153 1.3027121515826339 1.1877100496124253
Ni 1.464873084169052 6.075857719417116 2.2958283087361657 0.088722342338073 1.2010769578376348 -0.10249728463497833
Ni 4.592684703524233 3.812255235289617 3.744697831571859 1.8900490442095126 -1.0396577020554676 -0.5210361125171156
Ni 5.139009631504235 6.335206445364307 12.838441405803888 0.6074922845288312 -0.948298950535812 -0.5843497849740967
Ni 7.0200986806668455 6.473026053740006 11.023079767186653 -1.0060027330051835 -0.32369777424083607 1.8933899356572876
Ni 6.391367982508588 2.1013237739533994 0.221846950644906 2.007674699845497 0.4465090878428181 2.8050079858322983
P 5.260295746918005 3.6730149989149283 9.482381598195195 3.914721307054271 -0.4150914927634851 1.3478537811162787
P 3.4395553490019624 5.402227699501307 4.1265514222161634 -1.2439058800777028 1.6472109217292212 -0.16233765383137846
P 6.212733357872433 8.520113615337229 7.608117171169837 1.891278802851556 -0.475059388676685 0.556415520457674
P 0.0916884526032337 6.1456273773938275 8.294798276202682 0.29640217174967665 0.8086206859751621 0.033526671002535806
P 6.997172361709461 3.283314307823571 2.6550163404307954 0.6348177118166616 1.4799971707524642 0.289488732459295
P 8.342469691805633 2.9224561036064447 8.302362185673621 0.8400207975529984 -1.7070890861420922 -0.9564516615499333
P 8.013267191750211 6.983910051639943 12.960212590909418 -0.32095774960185364 -0.26772125887521636 1.076498782143217
P 4.730308040926387 0.5983096318825172 0.7560170976203926 1.3079916548140185 0.21076155366072086 -1.0563266780707163
