# total energy = -340873.07786910597 ev
CRYSTAL
PRIMVEC
9.22914921944449 0.00000000000000 0.00000000000000
0.00000000000000 9.22914921944449 0.00000000000000
0.00000000000000 0.00000000000000 13.50779277935771
PRIMCOORD
 96 1
Ni 2.244787445585475 6.405361634287009 3.797972923578382 -0.8753611247255053 0.4038035785544917 0.033312240998884565
Ni 4.155738114641448 7.543998659266298 2.7095959980579116 -0.05664551640818632 -0.6646085699258489 0.6334665971054059
Ni 8.745910729581379 2.190750778368284 6.993538066866301 0.24160116474939683 0.6067312379930906 0.35053983413434464
Ni 5.651884683257343 4.2745264910295715 4.088119831800547 -0.06368879640821289 1.3933813332344325 -0.47428934327987987
Ni 8.139564871425574 4.703921875990637 3.2220269592136455 -1.524772932306258 -0.21501312984822327 0.8872447635369687
Ni 3.1362586320090684 0.8631681552784253 2.2477915335750898 -0.516158215599524 0.39592289025483424 0.37754001687227234
Ni 7.676372342937719 5.220560406161626 13.418856812885242 -1.292179113261794 -1.5773795027583803 -1.47268341069987
Ni 0.4731452427367046 4.7363438763209516 11.635490822100348 -1.1451431227844924 -0.12804016610108915 -0.6351516981173126
Ni 8.881173136880294 7.928641900873621 10.609047023655485 0.5234354659872275 0.5006248958506152 0.20491409374100839
Ni 7.5233253655743235 0.13449546501953955 5.9021349033986885 -0.5260834451330358 1.1217525117746938 -0.34893829397517967
Ni 3.821910567260915 7.364943940106481 6.3435835569140915 -1.1784808177046737 0.7777713046944734 1.420304897098154
Ni 8.256931958872373 0.6720130989045253 1.686447928710104 1.3757605348288757 -1.0308665861263988 0.12072100673185661
Ni 1.152065436730102 6.248826038613093 9.663461645163355 -1.0634933710224845 0.7005443645905097 -0.047389545027557094
Ni 1.118000647883193 4.338595243176751 3.3668304607173667 -0.5462030987010463 -0.9322357264253621 0.051256998402763335
Ni 0.765157361965632 5.802532081888634 0.463975160320479 0.6034613089925672 1.1747308637439382 0.5253699640057791
Ni 8.178558025822266 7.251370032886199 4.802073875282665 -1.4359603442472235 0.7547468187748421 1.2219486590803215
Ni 6.082239899711248 8.22123361065784 10.82168661591579 0.3779699053208394 -0.7111720195076849 0.6611967160308226
Ni 4.40772156895929 2.9941666544726253 6.17530386917632 1.1939004946938534 -0.35631658871712185 -0.6278376809544026
Ni 7.181496146037121 0.3993637342138844 8.573503766424388 -0.4993385729390239 -0.4934461187139889 -0.22011471274084674
Ni 9.090656360192986 5.139057791610812 5.466022543817527 0.040062158128208424 -0.499484611598585 -1.5634718915383528
Ni 5.58210308789796 5.90047181075436 9.457413511097162 -0.6919684499960405 0.6487340647874376 0.4895280146065053
Ni 9.003487048174817 3.710127114940741 1.138497664829847 0.7840535381587594 -1.3835064973228817 0.48184761524311204
Ni 7.6387820191844105 1.992462512755756 3.4653562405426652 -0.8279954909573481 0.4999515239326745 -0.043388137177647855
Ni 1.9575763296505497 2.7091889925883508 5.70095053083949 -1.627977784531222 0.5557735159983009 -0.00030621838650915
P 4.864361401678706 1.8896590223830332 -0.06862795173817814 -0.20234016236624508 0.8430457004222514 0.7470394228282554
P 1.7318682624492474 2.5168166114653565 11.618268307208119 -1.7288928122807452 0.8407486768579585 -0.8773012791710116
P 3.44232489928895 1.9370783897889987 4.421843089797723 0.12595140189286047 -2.2045348129337774 0.004955544233062433
P 7.816738469616841 3.499342581623332 11.922234020182513 0.6522593043318766 -0.5353705268619167 0.14233832789131615
P -0.288565955003667 3.0229708284068444 4.760888798005685 0.7887938810572221 -0.19986316158066225 0.6672478073209089
P 7.248010622661253 7.324778683790646 9.081504736074699 0.3579466681213771 0.5454230260019123 -0.5565042235167382
P 6.928912797036252 5.615309565890693 5.7332747021907275 -0.2651164742625176 0.8675886798689382 0.128413747390424
P 4.164847284674473 6.147480753777572 4.623352328400652 1.7326653919492998 -0.5490580516513383 -0.35377711012471974
Ni 4.60145986412979 4.137602836916122 13.29789497191477 1.289935568643256 -0.11262203177380604 -0.6880233493053635
Ni 6.982368027868357 2.3727403669004428 0.5753386863625347 -0.4404947633279381 0.20477962504567312 -1.0039633339776517
Ni 2.6557060743093377 1.6490089629998979 13.338850243382405 0.43457994050539994 -1.5527912718960548 -0.1867345946185042
Ni 8.473641605828286 6.207876304634839 7.509319209098011 -1.5598036986581458 -0.2775942950145541 0.19613326222458477
Ni 6.266730587614179 7.601708527773402 7.01671707450353 1.390768578201934 0.24913038324690642 -0.46279008439102876
Ni 4.647697900467642 4.777736609449747 1.9702193408240476 0.8158115472966465 3.707283418450144 0.01678030478213239
Ni 1.1704037557327593 0.4092158507389657 5.923139523538673 -0.8405399032812622 -0.4869869933522065 0.6342572113275012
Ni 6.079701883744599 3.851037761409071 8.112672054242964 0.9824632551223468 -0.8599617594512996 0.11300795435831507
Ni 3.436879701396868 0.591878244231011 6.79859352192547 -0.286697542867403 0.3264095167450443 0.3104195690746912
Ni 9.142791822722431 8.329713027646887 7.995802417925627 -1.1981248171878462 1.2977789759470746 0.7716435945301807
Ni 9.119912762426717 6.831083817958161 2.807257006624756 0.13970860357795292 -0.1431471969458567 -2.0728776189053915
Ni 0.1637140277424952 1.5157215935804829 12.93448154168229 -1.0681799778648766 0.44732489887589416 0.18411412627652163
Ni 4.330289009104083 9.17709656944255 12.425925900178903 -0.02339523899548874 -0.14243988646618694 -0.6411511102338571
Ni 3.0366576563288077 8.90758696123138 4.400784940593716 -1.5950118711281627 0.7991672538717463 0.033408657367432794
Ni 2.6976156397804334 4.724382899256308 10.22679043997171 0.7639346559216973 -0.6863912130185792 0.3048729282248491
Ni 6.887861542419332 -0.13084164494246253 13.323897176221807 0.9003370779445526 -0.6952494347401575 -0.842733311388155
Ni 7.165114406616024 2.6224165339758776 9.826554551180195 1.8340223923322478 -0.3470549609095378 0.2971331363784302
Ni 1.6377309429590083 0.06432993706302084 11.66515422980364 0.7290640692967573 -0.7279587520477205 -1.0906964137998376
Ni 2.687814283574685 3.303933810489329 1.3302664596102274 0.09520100808388121 0.6808993366660725 1.142416982102581
Ni 1.6287694393094965 8.15368546934911 1.6736157199827288 1.2138525123357482 0.09336935419178113 0.9427044871671701
Ni 7.749882514480832 5.909442543552843 10.723390641899835 -0.6061689377317173 -1.1576006318215546 0.21707746857641966
Ni 6.888572186889993 3.5112204963472475 5.758979727900943 1.1038517202348732 -1.57820636953505 0.8640063618343186
Ni 4.981663885082719 2.6599699411333075 2.2459272454832244 0.45991276284323374 -1.077712085725028 -1.4712114541400338
Ni 5.446010057191777 0.36362939231836905 1.6855157846641713 1.7299749896013301 0.3208392217461184 0.9028806703020127
P 2.6032106749700747 5.2683120229304965 2.0263177999210544 -1.397795146031412 1.8733391876539995 -1.5807054818078197
P 5.531610413885108 0.7985022771929098 6.908317028195623 1.4269686822715748 -0.46275974537372555 -0.4071866360941116
P 7.665684988430886 7.143176719515211 0.5353866233878979 1.076554832192133 2.0020887211172873 1.745774675637748
P 4.440152798438574 3.6341250731758272 9.545659864800085 -0.19392314194714344 0.018098766483239798 -1.1688502365934452
P 2.3629482398436643 6.538215233704852 7.920347664694613 0.7869959086165349 -0.7131296574546879 -0.5014728456732074
P 6.981085176161578 8.819762379636368 3.371450572691564 0.23598973209989035 0.5403466399202694 0.5057565606502257
P 5.568259364443514 6.258295145455935 11.997337142837784 0.1335981198048409 -0.6011126062547325 0.173477729608598
P 0.9652490032868258 8.077120449497048 4.2244675870182915 -0.3577047273139001 1.397824970828083 0.07976667580668198
Ni 3.8343791475188866 2.7533320121100973 11.420878960705235 1.2593283852803603 -0.09483822542782376 0.9909638363941901
Ni 2.100286660167958 8.57291956129461 8.739973618049214 0.6863071379452051 0.17469206163167333 0.38077729286264744
Ni 5.4649667291754 7.177749111555451 0.7315604909714832 2.354473578880171 -1.7094449879687783 -1.319263885293728
Ni 5.120470285585974 1.5398558181360686 8.935282714374345 -1.0715933744217998 0.6456551687517977 0.478206418946099
Ni 5.15412899187822 5.622268344213796 7.146270330249832 -1.1794192703585429 -0.8012632171688264 -1.5404489482806178
Ni 6.541233165417921 6.723278128843898 2.879644913653162 0.2539118637959498 -0.1317153009598312 0.08533388548181432
Ni 0.041986167407543545 1.0697691153678999 9.687599561378528 0.6565556177143854 -0.1661007204182365 0.0972028690052584
Ni 0.22861155746714837 8.239894949874435 13.407564949120896 -0.7331508377716212 0.023185179867211685 -0.9604139886317911
Ni 3.325889955888082 3.8490258069336916 3.737660435061842 0.30016215301274113 1.3452453969591542 0.8754197458775826
Ni 2.3726573045597164 4.513524532747143 12.753855098452945 0.8006734061036276 -1.476146429547806 -0.5377565105955899
Ni 3.6319746814659033 7.023797677593031 11.246480347200595 0.19257742655252638 -0.024822201250002413 -1.0450948139106389
Ni 2.562630106950606 5.27925779360848 5.959611274436861 1.556410356705881 -0.4849295966025455 -0.6762281564426482
Ni 5.898524460321768 4.180915233030602 11.111550189264587 0.02406475425868759 0.2346617573170862 0.7741938717558602
Ni 2.586284415759771 1.8082763867688245 9.660867331387992 0.2481569635900436 -1.7798497629445864 0.31830231425687766
Ni 0.6566622554233377 1.189037407502445 3.743158239103051 1.1389912442504835 -0.15251706819653088 -1.0911080474159596
Ni 5.172716497903056 8.404044593448297 4.778732434623571 2.3296786313236777 -0.7169140641977847 0.4719277850262389
Ni 4.879561810031689 8.300631979243578 8.800312871097766 -1.137887983883976 -0.031904562018080534 -0.8996608778131344
Ni 3.322585920556954 6.436242366739395 0.02982953238474523 -0.37355249297943405 0.2634912799542688 1.4699480140465782
Ni 2.862586677612592 3.2866291561712706 7.845514956104151 0.3944169951332691 0.3448764652009802 0.7018551129821332
Ni 6.066799533485056 1.382111203947131 11.690008327978857 -0.8968619749117586 2.241819408316849 -0.889962676688764
Ni 0.9793972886572706 4.576559620209725 7.276580376211643 -0.6675342282130762 -0.6788684222789728 2.9197642903402876
Ni 0.7315143452266352 3.373576968614167 9.52216983484258 0.13517266338081235 0.09056993706977305 0.43463547633368377
Ni 1.0443797265524444 7.283026013852034 6.381662102647893 0.6761034579393258 -0.7109712163507885 -1.6481275200062195
Ni 5.4628809415082635 1.3367499367613933 3.9859743797493588 0.08506263409829867 -0.050933039404441306 1.536760186575121
P 1.3826464945873698 1.39389682718135 7.874637535677823 0.33142908144682276 0.31255127070571337 -0.41191000971170993
P 1.6271727965377503 6.856334769539072 12.043466275217796 -1.7604165939206393 -0.27389422045514766 0.023483942054553106
P 1.218146143352662 1.7776263830406793 1.5200592935962096 -2.069747557916842 -0.9563133361998563 0.2705350741749276
P 3.5982606002798403 -0.19105999613951266 10.394759105389205 0.07072127777496208 1.1880545774360378 -1.0260557950013167
P 6.743000820192 4.145502988434126 1.7619432901965848 -0.28234929320103636 0.21713583261818087 0.23344485419084957
P 7.805035908723348 0.46848359959214386 11.145171056046058 1.0766964999763198 -0.09103916339670771 0.4427341941814182
P 8.345513330682895 4.3085266758336935 8.58129778272924 -1.0735682387599834 -0.5094463507969872 -0.09106358887673995
P 3.9112764167338545 8.485399541615596 0.8248745703736311 -4.030559531772529 0.273632996373961 0.3863373034489282
