# total energy = -381172.08402365085 ev
CRYSTAL
PRIMVEC
9.21437061370576 0.00000000000000 0.00000000000000
0.00000000000000 9.21437061370576 0.00000000000000
0.00000000000000 0.00000000000000 13.48616279601282
PRIMCOORD
 96 1
Ni 1.7895874221487031 -0.027153828832337093 2.4521485857290637 1.052955190495322 -0.8152991264366024 1.5870573921677764
Ni 4.525444636939456 3.500226116673305 -0.02431948842417024 2.098526429821747 -0.8831950189476273 2.1810336444880436
Ni 2.223980497123377 8.36970771011382 7.292723777041945 0.7445480238649693 -0.22831576049440036 -0.6885056882584207
Ni 2.8668671365180494 1.8365346405479557 6.503486210245215 0.22159618238237966 0.6970373798785157 0.7048530192681925
Ni 4.641674708163828 5.6109619986589365 1.9266871214304773 0.1533429065319359 0.748618337279601 -1.5833087237586216
Ni 2.604718291874529 0.0770579387692384 4.676880054059416 1.484875581890688 -2.1020742950740052 1.1048205119060455
Ni 8.298342409524574 0.20072861428357966 6.889999572512098 1.9744084815931997 -2.4121699051503747 -0.09543137892713242
Ni 0.9299142847600731 3.2207818983427585 12.650668372359355 -2.3898159629352067 -0.08901493387782734 0.506279008812599
Ni 3.102865597291682 6.721054086869252 5.708814007646349 -2.144175852229746 -0.2289539082990315 0.28717602516571833
Ni 4.704304785388503 5.408162915293058 12.266568253762495 -1.0408355244136527 -0.9343964815221069 0.031012389221114333
Ni 6.404982745253714 8.240098372723459 2.8263626060687 1.0978335390652514 -0.4106319143302347 0.9196776872546935
Ni 4.532742418484541 3.9634325286321723 9.979760491882795 0.007799955660393018 0.20395455804121648 0.8236924927066203
Ni 5.275457549368419 1.147087786320816 12.878746160132794 -0.34352509337940834 1.2044330187940613 -1.4935147456229247
Ni 6.581880232756924 6.436201032974356 12.977451419841257 0.7358461252155972 0.03484256160048193 0.49568169291272696
Ni 5.000638945098014 0.6475656968045131 4.0345204766652225 -1.1311509222704583 1.0085324414055727 -0.3882242360589959
Ni 0.46723677767581184 9.04708373880553 10.13195148739505 -0.22109327460403214 -0.7579894940818559 0.5249549879555475
Ni 6.108961874145885 5.709159546545263 10.478479088279489 0.5537094343804205 0.5536171317769304 0.6635287065981088
Ni 7.080681758489356 7.362770501192932 7.052764058331151 -0.9012187092185575 -0.37680365292688006 -0.129927355821473
Ni 2.961434222373109 2.435413445776812 12.275388249336935 2.2209225102631813 -1.7826432665293237 0.7928168861736862
Ni 1.772789624476115 2.0936985106764623 10.49022556796847 -1.5873271008893952 0.16951334564421128 -1.3363763766042984
Ni 7.554650555353096 8.79582628025581 12.533878067400211 0.28078014894170356 1.8426476721074139 0.6165518236279381
Ni 5.347246711007002 7.9573922671871555 11.438976790623261 0.21767396450983803 -0.35806442464616395 0.729785263733498
Ni 1.0232742880615897 1.4800859267978697 4.081937627967 -3.2167711855534984 0.7457037347359673 -0.13459905026552949
Ni 3.8079308097497804 1.3290900351573296 1.6293310880172407 0.3643371450287532 1.2762652702450148 0.28122212157512855
P 2.4643281408380204 7.98189327871289 9.35170991065194 0.54074773201343 0.009623124912060847 1.0683363009370825
Ni 6.6233356862560875 3.6326826945907253 1.6018999066287078 -0.5482944340124363 1.7970144476493308 -0.060175126827999595
P 4.545301605663773 1.912230695336937 10.636941384447782 0.27171701029817075 0.38530474841935575 -0.09314129734137508
Ni 8.509674000100993 1.9625135159070493 11.251020215480645 0.03615973775000869 0.322813828973986 0.5433574017221352
P 4.934341548359522 1.4229568288439216 6.191240675318465 0.811521404561725 2.4874628614564194 -1.028383671803545
P 6.227762754778185 5.6104828513857745 3.5093022717514724 -0.3660821527443179 -1.086613759090032 1.0002267497533548
P 4.094672809625412 7.032057524634036 -0.08009591676849917 0.7126758577467209 0.8670716310232034 1.535052716965711
Ni 7.1922401438003964 4.541265711324445 5.676582139155556 -0.3917389340804737 -0.38090353402786653 0.8227913210485894
Ni 3.696805499858713 6.20135436853044 10.34406261372742 -0.5476349460515666 1.009476550486397 -1.2701334463156642
Ni 3.8489439734583324 0.846927819922517 8.636633284495941 -0.6837612315948999 -0.3034737338844773 0.9190732209014753
Ni 5.126709964163486 7.630300538288889 9.000651603724926 0.32277294843372156 -0.060793477138288844 -0.58870291973647
Ni 8.255440299835286 4.618168848666969 11.068741535524998 1.1961772065431722 -1.5908184018721054 2.5451671581464232
Ni 1.689012566637841 2.7235099581361903 2.163868707393995 0.540147893645902 1.0499747677107596 -0.5071457276882685
Ni 6.333976805119339 3.436232312594245 11.913190689745965 -0.5943593466912989 0.5273381434757435 -0.7646525079243283
Ni 6.852404940310144 3.071555165864663 9.616348478241774 -0.16964267213322398 1.0591667186226725 0.47648815070341166
Ni 5.523895410502992 3.0516244821752454 4.401087490812603 0.29901749788533666 -0.026595233990025165 -0.5624668688580765
Ni 2.139374145927708 6.364301298888121 1.1706636750345212 0.9596771104657665 1.53304314273485 1.1509905827042048
Ni 0.8423058916106297 5.095224459694351 7.877672296740676 -0.6803432070522863 0.6502070497885383 -0.7708599222866208
Ni 0.7649024139424764 9.609114275854088 12.413689502549868 -0.19684160114551907 -0.5332743064545203 -2.461730746797638
Ni 0.7209268300738928 7.527247017076477 5.564701250872195 -0.385447187534491 -0.10081578316749734 -0.3482132428836971
Ni 8.017469963745178 4.0502319000396225 3.4248645435384732 -1.4141915851115643 0.33524485564848716 0.44148849469977514
Ni 8.151833916384609 5.690620232822144 9.284049708496124 0.07425911572489147 1.4392863232966633 -2.6165864904296745
Ni 3.7796611206332136 4.8738676338640765 3.9921878150813472 -0.7388345184199598 0.09135335220301687 1.0180066994445953
Ni 8.665857582410577 1.1437429697793187 1.5187982621581801 -0.6718523959724558 0.45168189029300926 0.0857419195535104
Ni 2.3617629812694076 4.54588211101395 11.311829533067304 -0.3443614732377747 0.10448320471675554 -0.06406726279355418
Ni 4.198002761956956 8.335844898020149 2.4370167462677776 -2.0641636360711613 -0.6910125138406745 -0.9237446582352156
Ni 1.0606109178856862 6.369341559626961 10.139139617929546 0.7104942767143699 0.6478313504675101 0.29213979692889686
Ni 8.196892188803126 7.096963551406231 11.353501524276453 0.3872760132131137 -0.532288031281851 -1.71515900763442
Ni 4.590811382243539 4.251142037424765 6.2802634743608 -0.6514944011413941 0.6548772015706981 0.04387227590291799
Ni 6.151523052121577 0.4100984653512259 7.89051067935023 1.9668129286341287 1.1815725692561199 1.934166089133385
Ni 3.199773133288726 5.899261227172345 7.839331300517067 0.19977831517633982 0.03908051094122946 1.3847856211456215
Ni 4.648032623903864 8.712463869096235 6.680019730108233 -1.8178900055467593 -3.379183658486871 -1.4086860819123028
P 7.616451339220375 3.4711732060525313 7.614543964498365 -0.1776819974979327 -0.3172162802815504 -0.09690282126633633
Ni 0.9594555570246469 3.9760101445526788 3.8692072959277723 0.5446907758215781 0.9596436861246699 1.2919225171662978
P 2.6426630701607157 7.0919693625205795 3.5444329812448956 -0.8257658302958811 0.11223045276234221 -0.5025467954636764
Ni 6.566289517637879 0.7914324298826388 10.482336223828442 -1.3980995646457084 0.8404481148984041 0.7794474068453158
P 7.91338443302134 8.231390792470801 1.2440137510591354 -1.7783824343704404 -0.17313962954288892 0.39185977592905413
P 0.8017718751752397 4.194630302303545 9.80177018002195 0.40373775831356273 -1.1140880532509008 0.6289987911420393
P 0.047887084204301426 5.332135143161118 5.6174857730704515 0.7833210308681091 0.22031834411122056 -0.40892984403746346
Ni 2.5661100789024256 4.385708706218226 0.268000891435545 -0.9310252510570287 -0.013447640864473613 0.8493425891745566
Ni 7.300932859843102 6.044129562338792 1.767361438733426 0.9106160912730575 0.6870944097331908 -0.4127983258539343
Ni 7.587628787865544 1.6763059495284065 3.880319826916879 0.8177925822824174 0.042475395555391364 -1.3708250452004713
Ni 0.03671926699136832 7.553028826120855 8.048447756392175 0.27119019126042326 0.0878859624797067 0.8064630162022111
Ni 8.746538611714572 8.55921045664945 3.425984089570958 -0.09210668542927364 1.3298077222478453 -0.3140548518344333
Ni 3.0267272527120896 2.4532063954782757 4.118795110517934 1.5625074707425541 0.7386668824938439 0.08130522393839545
Ni 8.357959387550709 1.522997250857795 8.76628869373949 -0.4228274279551621 0.2735638336989224 0.4176194013916614
Ni 6.213950413192222 1.5601127357865858 1.870476696229111 -0.4230809387268649 -2.3014612883491976 0.04472202549772298
Ni 6.184427569668924 5.19446323146274 8.246181700218491 -0.8727442559279486 -0.5253576227106048 -1.6328209715561361
Ni 1.3285924591428921 1.0433431873105734 8.356134020727374 0.6222445031373413 0.8330363958153653 -0.20502413695631141
Ni 2.4436971649801347 7.284429922030921 12.090776490735813 -1.1251635943387719 -0.6047967399745391 -0.7883056285668939
Ni 7.7952469870749574 6.697557441743031 4.595679334251453 -0.6337720441609667 0.17674714438848915 0.10356429244691197
Ni 0.5227423035233915 5.96416725394454 12.907917014697729 0.49783884846504584 -0.04061417397693651 -0.5325574828931539
Ni 1.6171589044047945 1.2157901337957575 0.6366402175393525 0.03215832990009946 2.402592802984901 -0.3677245734437473
Ni 8.11077468082287 4.513696314376347 13.512460814994663 -2.101173380526291 -1.1673520547813638 -1.8424810646225622
Ni 6.78045913437072 9.055220028078647 5.027074974457673 0.8221513734717454 -2.3342191995065087 0.9492682564276168
Ni 0.2561106675646136 4.690612230620831 1.6262018877486661 1.8331150500266302 -0.7994130513339652 0.032967970285588385
Ni 4.7747486489139765 7.033900398761583 4.373589965955479 2.783416889925084 0.9060066175255042 -0.5365123537758437
Ni 3.4191765125438005 0.15969241464843317 11.093987068198262 -1.0081079522736445 -0.300813670553811 -1.0583349667499966
Ni 0.28363307122246 2.7774785269613957 6.210014034055782 -1.8134157718254897 0.0037278424735484187 0.4768740732879206
Ni 1.9718016015098845 4.17399932644566 6.072454537679186 2.3664158388437118 1.265559968012369 -0.5253203417147662
Ni 5.816239747726366 8.614607252923504 0.6193549796600281 -1.3028795303984337 -1.7073922192048079 0.041320970235974
Ni 0.4182799050404695 6.418481798237995 3.0248926715181166 1.4274553921000062 0.43146813434929565 0.9131059475744467
Ni 0.649383692131338 8.242392751012254 0.8195878608032976 0.6136760447420399 -1.5514874654829667 -1.4352887721014957
Ni 3.0990600622182978 9.037989154986086 13.372959850724696 1.4551646850898166 -0.6684443987321713 0.909163417986931
P 0.9938159451327555 0.7834223774872571 6.19411371608331 0.33316946117669716 -1.451928951761338 -0.8344497312231242
Ni 5.174366689101844 2.852667791365302 8.039425044663705 -0.05964830779025211 -1.2929519868720765 -1.1405758151287841
P 7.195575745971256 2.211992600923686 -0.14724472135391886 1.0460224679312307 -0.7933395914463757 1.2599950723300817
Ni 2.6414099157539837 3.5510802282229563 8.608433624596222 -0.1869713932196586 -0.3645495181498754 -0.6108383181829287
P 7.48153452434268 8.444924617629638 9.52071805401512 0.8844859698449089 -1.7627791806155448 -1.2322194448787103
P 3.865695699277732 3.5473852655972253 2.3394715758226026 -0.19486802235891598 -1.0534565556117728 -1.2759983897368736
P 5.083153634158919 6.360394405737722 6.697875337530033 0.15258417398904045 0.11474653431597658 0.14948702312095544
Ni 7.176041280219262 1.7793226132582678 6.081261633134731 -1.811584632154022 3.848479919427534 0.5189913141729449
