# total energy = -381168.5935854282 ev
CRYSTAL
PRIMVEC
9.33819041147701 0.00000000000000 0.00000000000000

0.00000000000000 9.33819041147701 0.00000000000000

0.00000000000000 0.00000000000000 13.66738558594703

PRIMCOORD
 96 1
Ni 0.16325210813455868 1.4515656322927515 9.172032013915711 -0.5859150725786878 0.015077463158412744 1.2372292393884756
Ni 1.3948734797899254 6.731901291267881 9.46954395117387 -0.6387633267279709 0.6148124723393282 -0.17367956120675895
Ni 1.1491763583104564 8.4404539169518 0.6764659662373121 -0.3382252784330498 -0.5363395756434054 0.11154088289448533
Ni 9.141341118113406 7.9975622337193775 3.140122391372436 0.5010933508466016 0.6729173469018604 -1.2455305601653195
Ni 6.783522806510118 4.286565461421061 3.6612195496140276 0.2554514403689278 0.23327079050683053 1.2523504113006303
Ni 6.383642827186117 3.137743954336944 9.966654100333924 0.37464495471266446 -0.0403776324860982 1.1879399062350444
Ni 7.263543133845857 5.7225736688958735 11.628812729630997 -0.28875031163137366 -0.7306201009299675 0.4571943354708062
Ni 8.548459424421356 4.34077365533951 13.355208769085694 0.791270881842805 1.837483354297655 -0.9246699982629624
Ni 2.8640976296881524 6.283331988414027 7.427130483007405 0.24641015610226594 0.09101396658572714 -0.025173413941834064
Ni 1.2446220000056278 1.5558918928365781 13.47917137591233 0.03437847747986983 0.4027995627700095 -0.8264798256437702
Ni 7.257454633857084 8.50175913539704 11.934483443637916 0.36489918817981026 0.5180451482095917 -0.2864489171917066
Ni 9.027088361422239 3.419710606424382 4.063764648411643 0.36296391883031043 -0.04635107646071372 1.235835701475059
Ni 7.4089854456942374 1.6506371702692373 13.626683964520698 0.13161374238496043 -0.07013326648197599 0.04894403399887055
Ni 4.776615004995976 8.92612384933847 13.367043991303134 0.8610470220956784 1.4237928556467543 0.06912282293959064
Ni 8.550812648343399 8.334082592761437 9.444751056280936 1.2580279213013819 -0.7092012689345593 0.747120669688152
Ni 2.6766801530398707 1.1164553399658834 11.154992026747017 -0.9865775344010363 -0.5985327613426983 2.0045358971061993
Ni 0.5115637999002746 5.991112003523409 1.2384578606765029 0.1354194892842958 1.0630357146597758 0.1027677646875456
Ni 3.783358407901083 7.012915447958302 9.668499695592287 0.5950106071220527 -0.06938636101362244 0.7691182570051658
Ni 6.473466878400855 6.818718445248901 9.712768319897162 -0.7327309766253832 0.6548260366177884 -0.8400827611391855
Ni 6.700188797461326 9.090812171120687 3.4464084921113494 1.4957562333589336 0.23132446541373708 -2.2721203732932356
Ni 3.8768897206120543 7.217888722120225 5.339286719679312 0.31800920849649106 -0.600203978397534 -0.6396272173901629
Ni 0.7127663128728311 3.719457172589464 1.906572683447619 -0.010978096278058512 -0.9478772896173612 -0.32106342194178256
Ni 0.8660816528508658 8.5318934750654 7.4002056792993836 1.3547592499868604 -2.711042135707099 -0.9604289010301265
Ni 5.646318007993538 1.3171703994117314 11.480726776146389 0.8255269748121976 -0.919696713418087 0.8137520936644566
P 6.746459529737969 2.058239832861208 2.4009084563091085 1.917547763850414 -1.1659885987749339 0.20741372023441054
Ni 1.5449942249118875 4.664435326521844 13.343727464275577 0.23495923395284693 -0.21916803255686126 -0.43473060715065126
P 8.482952020401044 6.0549478715038605 9.435005721022831 0.9426571788690024 -0.8605798526512727 -0.17780155379493248
Ni 5.157631840182981 1.3628808402783652 1.0401259073612301 2.037687958378136 -0.4209353531387718 0.012869142653184288
P 1.194167758534244 8.631597331476646 11.034718938855294 -0.3608581853412172 -0.46704603145390533 -0.799558575772894
P 4.748049481275642 5.211569226586593 8.36975634683676 -0.9729018366861568 1.148767864021273 0.45579771223359566
P 5.521279641659682 8.639114574560946 10.45106711232414 -0.29330450666095936 0.8638029875742609 -0.0246458235731382
Ni 8.626451988694724 1.0040608831179154 3.073247876311698 -0.9367405562742512 1.557030506788383 1.5936072774711523
Ni 5.139553104019997 3.3444074409190634 2.305291925733884 -1.007967055820406 1.3814125909083306 -0.5593740888653657
Ni 1.37703753657128 7.806325437292862 5.110986646480647 1.307083284067136 -2.7388689281113794 0.21868852181728143
Ni 4.00549527558964 3.0069719392406546 10.989124291546728 0.6965175028193037 0.8598283191972289 0.6686256615050421
Ni 6.886028119971413 4.75860163616416 8.262508166589733 2.3141823354602917 1.0903346595850447 1.8955355212453808
Ni 2.4042197785422665 6.908253012568469 3.030892647172007 1.1051943503056967 0.6781842517277545 -0.48920842648355756
Ni 2.792408343777397 8.478301601697963 12.447038025514892 -0.8942942141845825 -0.4901489360199558 0.5030936691060819
Ni 4.32168639463851 8.374414236091976 7.9592429703697904 0.8703744701441914 1.0587769393834217 -1.6218243633353167
Ni 5.4990173963019595 3.3007607400792986 12.985943112404629 -0.3294704150585552 0.13907894041375402 -0.1250764554870749
Ni 5.8350148166946765 7.481505830529841 1.2028690841316967 -0.09758724892787064 1.6266518666309469 0.7496292950426187
Ni 4.399744326243043 1.072369744188278 3.360004086135703 -0.42047306879037266 -0.5838036826626397 -0.5613795493311687
Ni 1.091400975748278 4.540125339021001 8.254061773583835 -1.5550263318741606 0.37775084733149783 -0.02150496395131135
Ni 0.20234270599192652 5.902063022092517 11.434736189574748 1.1005941325295236 0.2506905286451747 0.6623395713860142
Ni 7.218420998959734 0.870087736432436 9.194199943552748 -2.048097326636918 0.46544834794948226 1.570061628940728
Ni 3.0831248800511544 2.1647512299040734 1.4989569473894147 -2.2740206756397416 0.11230835718812915 1.2437546992118191
Ni 5.528059167720801 9.073004242472543 5.278563270481466 -0.26811669454142206 -0.44821244368717006 1.391768737331674
Ni 1.994170510126586 0.11594296911136359 3.409193002839481 -0.07817464872921376 0.001094004395127148 -0.5699968586865345
Ni 2.445942812207664 5.204500216630302 4.992422447389455 -0.01619563592325598 -0.3332825897157937 -0.20009816040960376
Ni 7.6086826424119005 1.2054763068262757 5.458986442694791 -0.14781117808042932 0.8421794957672141 -1.9401439039833748
Ni 9.074619749371404 6.397015115505018 6.9774732809991145 -0.24113862329068145 -0.7119855165479158 0.47234970305500584
Ni 4.96891635510151 5.357926681071321 10.96617662303076 0.012341552284488421 -2.071493079853039 -0.29730720006244926
Ni 7.992398214557119 8.977110367649363 1.1052747248791377 0.05329228366523726 0.06192321986735787 0.2959532571377161
Ni 8.272273112047188 7.97316154281345 5.244776764638857 -0.2435603453582967 0.5890669879441081 1.6087742150195778
Ni 2.972355268292215 3.8256697475469905 7.13952729933527 0.21741094065643848 -0.9283011672576463 -0.7052474264931338
Ni 2.1415458273395003 9.215075467670697 9.070496938412749 0.8707781333405133 -1.2128780642376207 1.5433013301277485
P 3.36000221849767 3.7086061956156073 3.4368284428191984 -0.1618673990631793 -0.6593043841041162 3.1501798707865105
Ni 2.1042957867640144 2.294085163714671 4.64133451168714 0.2360632656503031 1.053748632930895 0.18905707210409378
P 8.047642947584087 2.9074174938720776 12.021914116712898 -0.7921900512229648 -1.03749514718651 -2.2025956869295356
Ni 3.20831265742768 0.17298063465036237 5.511646364683581 -0.6505209814845312 0.7588143039759964 0.9954362703432469
P 0.827718500007494 0.9215327598805202 1.7903318260699335 1.2750455389053008 0.10397078385671127 -1.1738371482850753
P 3.5680384190343126 1.4503423293808968 13.256858016429621 -0.30723680047133534 -0.43579144431499783 -2.272671103590383
P 8.198520086109562 5.426450320515522 5.074659219093645 0.08712285906143706 0.47452974142546017 -0.2768293918240716
Ni 1.7169476586438985 3.413650121006109 11.40219353066236 0.04781866214517571 0.0547567840259057 -0.07652682871314562
Ni 6.462326417531827 6.767545163134671 4.5058093577959335 -0.5682456803233827 -0.46912528258043723 -0.8270110155568917
Ni 3.4894668869706034 8.871542127813347 1.6515261659731195 0.03938441533489346 -0.62708871860352 0.0022299177717832563
Ni 7.668503088620615 3.9472343071387863 1.5697815168907214 -0.7335485874306722 -2.01557827096329 1.1646883919062716
Ni 2.932285094286347 6.208168895761211 11.853832296624054 -0.6910248551358485 -1.0182033888364335 -0.4504680724905661
Ni 2.9275506318717635 4.583557261486929 1.6501590549326957 -0.9323514260676201 1.1958637890678117 1.1767692343302056
Ni 6.968624411997026 3.8983675579957633 6.1290566824868415 0.08578485697630388 -0.0011228007505335502 -1.6999293351688596
Ni 0.47651477074711085 5.903127575771535 3.5763718199391916 -1.1551249165875526 -2.038565732997399 1.0917238266230875
Ni 5.338727362088319 7.248984895375769 12.209594930323885 -0.2988280075823499 -1.6920579028405827 -0.6197438482026746
Ni 5.294669780881215 3.198479543182008 7.820887411039017 -0.9635131963824051 -0.8470849034886315 -0.22962650888602387
Ni 4.89164283147099 4.6974084760009225 5.233679259444596 -1.2006236723503 -0.16990569598662353 -0.574176701095837
Ni 4.989236256904532 5.792918255422605 2.8932897459686804 -1.0152018830059484 0.45511945521964847 0.07649211882046825
Ni 5.979261840201702 6.184244452553791 6.714102700809903 -0.774113396226912 0.5836010797335304 0.44668417996810167
Ni 8.065039995864893 6.995266268542992 13.591449105383214 -0.2050205374118856 -0.8390867157745033 -0.23169753248243968
Ni 8.49229954875804 0.3859109806534409 7.382888939454014 -1.8466318535661421 -0.3739237602759238 -0.8495253946093241
Ni 4.336907644610442 1.2020865437957162 9.522860347931385 1.6289923418386658 -1.4023588541426946 -1.4999592156966877
Ni 8.006732336463205 2.674046783412825 7.662017715549752 0.8054510299979288 -0.1827738101985433 0.8559372116729388
Ni 4.9458136726287725 2.1731649392443875 5.171943550432665 -0.02755039881444287 1.5448231660889138 1.45818290309085
Ni 7.553867466132608 6.112545828452869 2.1584488853604795 0.4396583834695718 1.2443067150605474 0.771042213500756
Ni 2.2817120617436215 2.2364125012443283 9.261936373565884 0.6122848208214681 3.1216285415113787 0.6236400979332873
Ni 8.958284576273034 0.7798210550037886 11.479155158741309 0.07697754309731904 0.5724568901912528 0.20931865056660723
Ni 1.6200826120433691 1.3776071661714562 7.388519868124613 -0.4342963478267101 0.9809936125553557 -3.615175961689922
Ni 9.135840924105143 3.7620579961305434 10.2147305926679 -1.3887806012376276 -0.0687798377778751 -0.19578282086370152
Ni 3.027712059601184 4.563143977782238 9.587014648196526 0.14745970827828153 0.9886171905388845 0.018762625319483816
Ni 5.964675587161113 1.1007858568659423 7.062744030688508 -0.084021594428294 -0.713335602817907 1.6142020709033686
P 3.78869985267651 1.53181803858649 7.3527938201843535 0.19401390188873682 -0.06337486471221988 -0.496461508501545
Ni 5.820465916414754 5.333413931883392 0.6790395714472905 -0.45991404839481437 -0.8162154676032846 -1.2426133865185245
P 4.770134301020196 8.22080100784762 3.419921649522152 -1.5217693695932437 -1.8087947281137104 -1.0255382319349498
Ni 2.971626889459202 6.642292018426979 0.562563391677401 0.5179487318410435 0.8148936634680675 -0.025325109028349935
P 6.565373346022798 8.200359709572428 7.037855886255872 0.745491104504529 1.25901625335658 0.09655109435387242
P 3.7164596135459114 4.624253094233975 13.447955673822651 1.953645280903919 0.5985034507666596 -2.475145220431331
P 0.5114554768943393 3.3394488619404763 6.550832850114027 0.44041608757120276 -0.8573603172727106 -0.8237786246625233
Ni 0.5817029462433361 0.44604705768979397 5.235619735361263 -0.9404082349338256 2.1014083793552327 0.8557076121606361
