# total energy = -381173.0317810486 ev
CRYSTAL
PRIMVEC
9.19069725301063 0.00000000000000 0.00000000000000
0.00000000000000 9.19069725301063 0.00000000000000
0.00000000000000 0.00000000000000 13.45151443969576
PRIMCOORD
 96 1
Ni 8.338839199365198 7.59489820106294 0.8019756568207526 -1.7194800036072775 0.11226696242723244 -0.897114714352513
Ni 0.3707389457040658 7.311401950106965 5.543234932206205 -0.021661801244149792 0.8350469984874909 -0.4132341278397722
Ni 6.704043905362925 1.5449929900377126 10.68449725277925 0.38864949652187264 -0.3449898508503929 0.9533521966890034
Ni 7.361270674015644 2.5355387800682565 0.08822701843600406 -1.285078754771587 -0.5401473794252697 1.5435070183806514
Ni 3.3428220646179554 1.5464175481294644 5.778891765231945 -0.2852001323862701 -0.2835816229462407 -1.4477092572530357
Ni 4.1350877496713805 4.610936105803314 0.18740750999297456 1.9522221753041475 0.26076796748583475 0.7088780812671855
Ni 2.8174909938667207 6.860938300100312 0.1647836893564827 -0.9614704549207634 0.0011395129210819085 0.6888173059615684
Ni 3.108964770136506 3.1175580721738476 1.5302841979729411 0.8550388682283856 -1.833452892982023 1.4501307222103348
Ni 7.062104284050399 6.257817166842062 2.2487035487591625 -2.39634939317835 -0.13841739557035518 -2.3688607008397784
Ni 6.036854420765308 3.0913002497987834 4.220654980289623 -0.46012796417783336 -1.8190855685167575 -0.623619529107997
Ni 6.14487268690956 9.17881379444626 0.165459205612894 -1.7251703691238354 -1.1250329822981786 1.6156223482896628
Ni 8.274449173618017 4.23427375564677 8.33064385452381 1.2529325090563455 1.8965205108664693 0.8789730104464798
Ni 1.5895311094740303 0.16634151256004354 4.730265363196074 -0.2256762659890242 -1.3903376613121021 0.1161207889556839
Ni 1.0729771547074598 6.695588463786075 9.754271847702162 1.6959868055813434 -0.3679850261939856 -0.18760902680365754
Ni 1.737611625437289 4.638057853730794 0.2689951686516786 -0.16941435817250178 0.42133747367319696 0.24750698871087048
Ni 2.2459123339690654 8.313325823476791 11.57259342019969 -0.3928313958137041 0.08513436787649854 1.8856149196975587
Ni 8.505117296113415 4.63611861658654 0.31461043781930803 0.32248421354870915 1.139778001817837 0.6032044557867547
Ni 2.822490733233901 5.513637210408285 2.3559387674878187 -0.1271539068413939 1.431038224355258 -0.8853593735887978
Ni 6.734134248539669 4.498331681673358 12.243743176292375 -1.6368138947656135 1.3793101998533472 0.42468222177571374
Ni 1.1392880362041646 2.339400107577448 4.7906629500074045 -0.08493279338865373 1.9041345757683013 -0.41475339269777606
Ni 3.720311577537452 5.519647926485741 11.691007284134782 -2.930459565270605 0.22839160803765826 -1.4179826767228805
Ni 3.257679444218028 4.108388773822742 3.967134188793316 0.2716221365915193 -2.304382832871367 1.2810107553498002
Ni 3.0783597479072573 1.706914696234379 10.377439730055437 0.17842324653933142 0.08153250945785313 0.8603888196863893
Ni 1.757408387563956 7.116347779905361 7.327968182109434 0.48063328322003684 -0.16291795181488072 0.8869886816621046
P 3.4842393249907624 8.667700732520444 8.103555508652523 -0.9227745810124623 1.3717012771578376 1.9986231311661902
Ni 5.227613517676621 0.5079376759858139 4.41192166410664 0.6126427183815191 0.620028726432945 0.8753420985621119
P 4.762251747239453 4.757445012516962 6.276396161567716 0.04325829646800292 -0.4988235809758183 -0.3398075353185051
Ni 3.7148523033019636 8.314373562976531 6.172429154822459 0.16863531391463216 0.3508997885769247 -1.7588258523947515
P 1.4652269275969778 5.070195253189364 8.25360742920082 -0.09861903262649467 0.8973312012386934 -0.8540549070485615
P 1.4630854951106669 7.016693048364298 3.5844114927935395 0.5952417492962523 0.2186173022597138 0.4773204167967199
P 3.0043470620177266 0.6993514109606892 -0.23049533738491532 -2.170030865619637 -0.33810572213605 2.1177145727144238
Ni 6.965905254719004 3.5844179262816955 6.212972078113715 -0.43569065707107546 1.3898352677543868 0.9082157093616811
Ni 7.296917411057928 2.1974038332705748 8.26146271823966 -0.6718745074596428 -0.967795882918159 2.119319455307698
Ni 1.4102297945579918 3.133678555354058 9.177564778674201 -0.5508925337569158 -0.44975227737046414 0.19144768382345737
Ni 8.451397670008323 5.3534709274085515 10.707485944101178 0.26356687038721066 0.4356371781253207 0.06261253262489862
Ni 8.579157554095044 6.665001822951559 8.136027161516836 -0.9469342089778015 0.7243851757638492 0.29556759166352325
Ni 5.2801107810320165 0.4367548058153176 9.13904013252455 -0.7421291300108316 0.3248097763580922 0.0744789450451814
Ni 7.863983438548807 0.4403538829038983 12.572578975494995 2.0377113554169033 0.2981636345254736 -1.4535037524476258
Ni 6.80983802274457 3.7624601156585724 10.102827207173574 -0.04884401808589652 0.2727284822818206 0.10344576459117669
Ni 8.414919792162111 5.354169420408378 6.164062863010061 0.7323100870378807 0.7910636509280053 0.4252614913179515
Ni 1.6953619896451402 0.002195657600771008 9.427884450277881 -0.6147736486815929 -0.009323334283454911 -0.9036610001114631
Ni 4.873339706303997 7.14776158350283 12.762191333786108 0.5572297888288532 1.1042844368969176 0.20315803028185012
Ni 1.2565889066882183 1.2630132041471505 2.4992107105891126 -0.2092947393072073 0.20195963909837475 0.37899114749650215
Ni 9.042552515295856 8.024407061074793 11.150835075276703 -1.4819928610262543 0.6374376659380119 0.31599500627993965
Ni 8.208790831634307 1.300014951743233 3.826929181403103 -0.3179313040707041 0.7598039215827753 1.2010466188203317
Ni 7.404623193491729 8.255975871912073 5.175214594783044 -0.4344971509836066 -0.25242782305125555 -0.4437268971119906
Ni 6.229950972427924 1.7618291129970698 2.1307060234147555 0.39489804853474575 1.4748966163011052 0.8141321027116946
Ni 8.287757303404188 0.8613052845981372 1.6175443550460271 0.5813053417208183 0.0287539322042408 -2.1529212025225437
Ni 8.439514098313904 5.9316668894098274 3.7383777313500746 2.391102028736482 -0.08012200226357169 1.7135986051258358
Ni 1.20967039663407 1.1363837758364643 7.124365744287582 2.2756805798406674 -1.3066978757032592 -0.09400107423850908
Ni 5.6019873841889956 4.635631509626134 8.286307930429547 0.5238524989199881 -0.14490685994944075 -0.04753455524585362
Ni 3.7760531570630946 7.904486841841389 10.10269302299203 1.339408478562403 -0.7316565126142819 -0.2188240189538812
Ni 3.4293616710175363 8.109604825658916 3.842667331572882 -0.18299543929104614 -0.32498923935874996 -0.1480626319696031
Ni 4.402187796526161 0.6134147143083273 1.7273759457806181 -2.0216499310786666 -0.8650198907004973 0.8568000738938664
Ni 4.9072625702824215 2.089284469455296 0.04702696028306863 0.028705338354492498 1.7697586972571715 -0.603923079120334
Ni 6.545256226968112 8.619054371361461 2.5572132016668263 0.5074195501749454 -0.08851434009232498 0.051976650177607255
P 8.721769605125449 9.074618858406321 6.905900110685209 -0.2831576480349446 -1.2211516171003227 -0.23429640355786746
Ni 0.7552492323415567 2.3943420964322377 0.19779207894697692 -1.875955028010292 -1.3955030075631258 2.715400155565478
P 5.1321956976213485 2.632252488452155 9.156096228696633 -0.3003508719847795 0.23637051247807678 0.6317845814172925
Ni 0.7441009164364282 1.0326024211780036 11.62810798950039 0.7603523378870776 0.4960874129915779 -1.154615838161618
P 6.39537433432109 7.127376616744731 8.970465280504532 0.7507644370883264 0.17177720197772353 -2.560571151406319
P 8.91264200802546 1.9669746689066958 9.9207613304898 -1.050437566279791 -0.5837026383084013 -0.07759563629729217
P 5.554719627634934 7.540801756365837 4.162033036209432 -0.2200748606418468 -1.420415197423773 -0.08095015459182188
Ni 6.393251283229511 8.228412970511018 10.798741297319326 0.771244045098917 2.309811974306738 1.0477258237755829
Ni 1.0846125775729938 3.553886429631376 2.375846737052616 -1.0689657069909655 1.3292425937729946 1.0156590251480249
Ni 5.108299884469383 4.7461128826645105 2.7564574107976534 0.2517999596592696 0.24301887103252984 -1.6057238582290283
Ni 5.953494795654412 8.641314240382252 7.147516191883154 -0.0020679382726222447 0.3752116258494118 0.22597734216921078
Ni 4.450944446053537 0.4594209036596938 11.896923020483689 1.7320928072752815 -1.0137008729803896 -2.2547775111394137
Ni 4.048290803745548 6.5251469811309954 8.066563870823543 0.489537270577886 -0.18812067633275342 -0.4640591809114395
Ni 1.2815048872478256 5.0756085739380215 4.7930975657396955 -0.523810075717827 -0.11625551476133525 -0.44413518829400284
Ni 0.8205656803832454 8.872662474482746 0.11181586229594073 1.0362964988927186 0.6584582340537369 -0.5591604301926628
Ni 7.1878054519271055 1.2795288873141053 6.208358348035913 2.211915421668565 -1.9963960416078843 -2.8207181974787034
Ni 4.570974953655335 7.311429522199064 1.9394797786661493 0.44750307632497127 -0.7371666437992337 -0.6481717645260644
Ni 5.374370573219156 2.1344475563125114 6.8319030489812 -3.0333972798771116 0.5432201048133225 1.0606785272815087
Ni 3.436107642884283 4.507145560447487 9.353537223004224 -0.6104027733074068 -0.20721214574656574 0.33042660832423737
Ni 5.58506731033793 6.19185553184527 10.645569135015226 0.07922263037775389 -2.860137065595958 -0.6509711816480724
Ni 3.357839664114229 1.8954618527007552 8.124916527470907 -0.48934032407573147 -0.5108532584468427 -0.33380915164322517
Ni 6.275849315074431 6.419417198630914 6.743122750563754 0.25022078809760784 -0.41586668036661284 0.358262399589583
Ni 3.295489973182331 6.090031795725799 5.471376545779297 0.34518885423507645 0.06798716667325067 0.04839330370172311
Ni 4.59522920400458 3.402745411445193 11.289641258527789 0.8216178695657785 -0.716494717272179 -0.10561628987993424
Ni 2.5733493090325594 3.7820914452326493 6.311182032028821 0.30563860274628013 0.3843338998656542 1.4215431403806291
Ni 8.006926354684392 9.070611714354685 9.014936307850077 0.155722462507706 -0.057518148821126755 -0.1233162782628586
Ni 7.848717690223648 3.6807823881656807 2.480176776343835 -0.547234111068722 -0.09936362410200307 0.3228084296573473
Ni 6.407055710673454 5.3012677663688725 4.6350828249933755 -0.938939363697783 1.6233875940573785 0.1148815172319441
Ni 8.718736674994624 3.141720415549431 11.921888630809075 0.6562164892074117 0.3775107062962337 -3.139020254625265
Ni 2.3547393814815374 8.62789582222769 1.778236345935104 0.15201030376344143 -1.2823649553848495 0.14831177186593167
Ni 2.546291895986641 2.78127045554676 12.579264288759125 2.4289047014065526 0.017042043083951297 -1.6737459919052722
Ni 0.6361074651750652 6.164807309496719 1.7809669021225842 0.09941298928269976 -0.014202002531994898 -0.3720571393808302
P 1.431092677579131 4.4245671446127135 11.4172954495948 0.12436014614634067 -0.35190508991298747 -0.5058635185417352
Ni 8.960516350605685 8.358415384755077 3.050413594426033 0.8733836892841603 -0.5779778200094821 0.4078178419202073
P 6.977908305479184 7.135841249018946 12.594343465927754 1.0897062819724266 -0.09446824368291473 -0.11544356038300117
Ni 0.9350707407285188 6.296390523687754 12.221508122154471 0.015531005756063575 0.4547289046494491 0.8186991532570869
P 6.252302748422378 4.472882640666515 0.9292181046457605 0.5525670932458613 -0.5613088439942333 0.47683627807144974
P 4.19567282670898 2.1556872579256625 3.4619629127147102 -0.35100366114464066 0.3984685394948234 -0.5260312517388618
P 8.569920903242073 3.879016539655969 4.640032934594778 -0.11228496014936146 -1.5151873455003517 -0.8393551389445416
Ni 8.99443921458411 2.693251146871231 6.8480851098337645 0.8279975478398772 1.1705865025582614 -1.5099584930012446
