# total energy = -340855.4274865994 ev
CRYSTAL
PRIMVEC
9.39618779989136 0.00000000000000 0.00000000000000
0.00000000000000 9.39618779989136 0.00000000000000
0.00000000000000 0.00000000000000 13.75227062635551
PRIMCOORD
 96 1
Ni 1.181589431975844 0.3892352082011653 4.540559385849143 -0.20128343896695658 -1.3343372346870825 -0.06774625430703816
Ni 6.647840586874463 7.635633641579951 6.665258300549423 -0.8031185252100104 1.8527824465485703 -1.3860189793320903
Ni 4.743731279494789 7.682736731968136 12.616938138185223 1.8057767672229932 1.8913824183089554 -0.30246123345956294
Ni 4.7028766541192 4.5227517303726446 12.274066540377516 2.967490135661341 -1.2343969121460032 1.105516766642122
Ni 2.0376385348894455 8.28180009338626 6.2751332733457135 -0.5770877040950448 -0.24541462495821606 0.3563623543533927
Ni 6.341149010917886 5.260502826506426 4.717152282530684 1.3748992152698452 1.1043003777365175 -1.8110146185831648
Ni 1.6327286058852546 0.77736542469484 10.742159971231589 -0.2451552006492423 -2.3936633617057548 0.4830292942560391
Ni 9.03141857494998 8.869146408382267 13.711385443514727 -0.23652143623364424 -0.1738407693749716 0.7166813793616883
Ni 6.806560994382384 6.256827619905804 0.5672948498277688 -1.6222102859198255 -0.11558162862276224 -3.567660432607462
Ni 4.698347691508567 4.5903854915165 2.052471357248669 -2.266971482102444 0.4786185667828532 -0.23059144390245448
Ni 8.172729143211505 1.7635893160061875 0.4951123940785033 0.09703883262356836 2.4064833962885586 -1.8278358039055618
Ni 8.395757061315223 2.5005041514089608 10.807717174829905 -2.2975642672876364 -1.5291209248623083 -1.3820746499723617
Ni 4.982638755299688 2.714831199434988 3.6372145706935854 1.022289385980349 -0.19363337862086652 1.160034695184344
Ni 2.957581716127334 3.008884902546541 13.502776915498721 1.3684197781930885 0.1263918318643888 -0.1349129819615225
Ni 2.0197575891466344 8.624864313047736 13.290441859326334 0.6591837993658518 -0.43207979979136557 -1.145492021483479
Ni 8.361507956095807 2.0588551273683047 7.574846882623582 -3.6706487979462463 1.9769919260496596 2.301928200683287
Ni 2.517266950781097 0.9816009668208256 8.574829612007026 0.9848014163372201 0.4688195784145603 -0.08369172189270102
Ni 3.7048417545058485 1.1265371665490795 5.595428068131948 -0.1754129989580979 0.8614298593563938 -0.27934418782612536
Ni 2.607977749625607 4.138870470087534 3.637448535774508 -0.4845182200967397 -2.6151014212437156 0.8161784437177622
Ni 6.325805035932068 7.666359176303542 10.415034505255626 0.08255966517078685 0.06318897395365891 -0.21851754345705593
Ni 8.384218542464895 6.1322717519254 9.90098879237956 -0.855919471061126 -0.2060278956304774 0.10532858343618635
Ni 6.19928536466199 9.102350398077926 3.329424580361109 -0.8171042979661411 0.6194900803206557 -0.2871878522402602
Ni 1.5392929125239736 8.151559531672591 2.7364264582897984 0.5146569484636491 0.9855066699343608 0.8126457479741552
Ni 8.847478798879942 8.322927208213525 3.8709071621646647 -0.043556801545028216 -0.14990791270845796 1.4822689975057761
P 0.40929700917619255 4.723181816363139 5.00329627459321 2.6070019320650326 1.6668911737669678 -2.0115874046363422
P 4.658958871459242 5.897498598835601 0.10191763225882998 -0.5519855097107783 0.5202696666647362 2.419824336371839
P 6.189400574897705 3.0661828569026444 9.281764970012524 -0.14823566721235762 -2.961325658721842 -0.9489854350798753
P 2.298777391476002 5.90645316598899 7.6927314571318925 0.21963031690526044 -1.6283832474997568 -0.7546935969394034
P 3.820273923949064 8.932608262059066 6.982646496912525 2.675824193045069 0.06533918752744232 1.153030495952369
P 2.5520892234678336 2.7756245357229496 6.562858643846765 3.21559824829132 1.1368130056522423 2.595621715252549
P 7.272621314818113 6.978830704970248 12.181390059005736 0.8223403495540997 -0.40988552308251347 0.341184875282006
P 8.545212827466122 0.9646220551249453 12.268126270330955 0.8339442523416154 0.3711060883214706 -0.6860543985044507
Ni 0.10659505463968734 6.910886869622759 12.547971057965746 0.31544581864468896 -1.2668851145816955 0.11236826389178711
Ni 0.20362666914430713 6.5821988175842465 7.671181299979428 0.9672533801511278 -0.6037832111083602 0.042931766366519616
Ni 4.725916107067899 4.26267464302883 5.645981438749643 -2.741039710510454 -1.6272123671201073 1.2100051135652001
Ni 6.629546208860141 8.76368359439524 0.8202035853548778 -2.397538014169813 0.2936672893170168 -0.14813410863748683
Ni 3.561559283863635 1.8678588141186305 11.515477518140827 0.2412360681004942 0.30823541693917883 0.4018341135329467
Ni 5.930892650948031 0.1983864151029167 5.564664009037602 -0.6838730745824158 -0.716098767385341 0.4431252589722497
Ni 4.094445293276177 0.31122899513640084 1.7541292339389976 0.11323652542935336 -1.2162109852655958 0.25839946725365825
Ni 9.702503717302758 7.969536577952284 10.329963298442033 -1.526646238069571 2.3185205578243298 0.08125457320611812
Ni 9.095960990245498 3.01618574061389 3.3546881110067726 0.8567486518306406 0.23034898887434527 -1.9003535114593142
Ni 1.3633492924324628 3.3713334580290484 1.4471510742487597 -0.17008875853170707 0.06830829745809526 0.38180162036210374
Ni 2.608795217980638 3.822124972982871 8.944270810590847 2.491129254564413 -1.2525075057037849 -1.2497695379473315
Ni 8.111823052667678 0.4578114070003041 2.160495572081463 1.7753127943061813 0.25120037840205767 2.45317668658004
Ni 5.148415699987247 7.778305360002888 8.418741076754786 -0.6143026225824453 0.25206246929203685 -1.0586920929790993
Ni 7.960939065942472 8.064221964316085 8.314952663467373 -0.2599536991146555 0.7034985621228271 1.2776415817672513
Ni 1.3869525166604935 2.549167009003296 4.957322606001288 -0.5525604083776419 2.2920718767144974 -2.166385555557566
Ni 8.049225648285853 7.409119737732365 1.861535179602124 2.2972904448009595 -0.01965685499897905 1.102099513430457
Ni 8.260780820855167 6.445531263286195 5.628006531126943 1.3303962477614635 -0.8032465661474424 -0.7117890842663935
Ni 6.745363622010901 9.194743114572443 12.332142499099097 0.5945084706746535 -0.6833737663484941 -0.25272427124575186
Ni 6.894781803409844 4.695942267383417 2.112018759009307 1.2683388163090865 -1.4388338091402768 1.9836068602630161
Ni 4.364905168347689 2.1289882745171984 7.78071830107843 0.5798524113243756 0.7638526377308521 -0.1801505136430833
Ni 5.520570517662252 0.815140919266477 10.716980066659028 -0.4001135312974141 0.08111264831161515 -1.880102731630078
Ni 4.4053933423917115 6.680905772407281 5.846915160416341 -0.9026765247110067 1.1749496646229636 0.5887880232511086
Ni 4.192419345436081 6.0916802198135 10.112374833565072 0.33383280579230895 -0.3194166303669789 -0.6368540255203999
Ni 3.3029292094701055 7.4872866256117385 1.059548923520059 1.0841411291798233 -0.4062250435117907 -0.17393872840541658
P 7.168502155713492 2.2473614508009288 3.662449912775282 -2.5685497987364214 0.5035109591491587 -1.3180680652134138
P 1.078362910730165 1.312374972592866 2.0793566699412107 -1.2341734832812874 -0.5741201368262887 -0.06734002000755498
P 3.847090644469287 2.6046421028895597 1.8155746656733862 -0.9327201222609486 0.06840239983379832 -0.7156863624382707
P 4.0124635530733235 8.360089131709488 10.202204269976225 1.8579909873327034 1.2663688370669093 2.081257358328654
P 9.436873482857523 9.011883900121127 6.293039588796094 -1.8748921339634164 -0.5297796630377005 -0.15230340952382804
P 6.986958407580617 7.221646994978516 3.8464000246521053 0.42017610637524405 -1.006297381427467 0.3136360191294598
P 6.772114569215201 3.7728419669812703 0.07818192178015623 1.1183915657222607 0.6129455943339186 0.25041799171007845
P 3.642065822552236 5.810809368450326 4.01866127867078 1.786802797223652 1.792561811194616 -0.5828320627779898
Ni 6.205543225862575 2.356930398939092 6.12114948420298 0.29747612154014574 0.5875297253639753 -0.604424701347101
Ni 8.213837465662793 1.1455080700985996 4.991208078745534 0.9330165704554447 -1.277782992441122 1.5935553411872942
Ni 6.454401264747684 0.9213836168565819 8.060315968969112 -0.9015138718614731 -0.778062353572331 0.8698489366580244
Ni 0.7157367672946685 9.083915077243772 8.35377583299977 -1.344689010235052 0.42258857247147863 -0.20813157223704154
Ni 4.909555205122291 4.51018902703153 8.326601117717171 0.05310330758288273 0.33687596349400695 -0.5275474312730721
Ni 1.2519668800124484 1.3875632688797697 13.412659016116312 -1.0192624262285672 0.5909459501343758 0.22606835922112037
Ni 1.1088911255059897 2.955580328085706 11.194609913365447 2.6518975070261424 2.598260695537293 2.495054300650432
Ni 8.268222601742348 3.6921193159689243 5.477556648286822 -3.062411150610958 -1.7750965645303172 2.034077872429374
Ni 7.950133449755277 0.3905271840496344 10.005670783144712 0.10024448404505962 -0.6723841001062097 0.2300556260036425
Ni 5.952485090946443 2.0025343765630432 12.943128683456294 -0.5536284446308402 0.23925271912187826 -1.8939265248870476
Ni 2.6158987361002204 7.652584364711865 8.84693194073899 -1.0388784006872818 0.5409950721375456 -0.47340976888840397
Ni 1.7888368731322697 6.362948167052054 5.150569306274295 -0.10711627146422843 -1.0764496740728364 -0.5020423450234321
Ni 5.8939844245277655 1.7519756276519496 1.4267979914460776 0.8635906144531384 0.7340154997647617 1.7126244141380245
Ni 8.17327412211486 4.396532737118211 11.603629734995968 1.8901477745709059 2.594091908871584 3.5510552199506136
Ni 2.8812188963418226 1.3585290479941745 3.365427953878046 -0.30108440771669437 0.8063159491013855 -0.22261408212393274
Ni 2.137350881827289 5.632948926009087 2.063115359002456 -0.17048882218360314 1.022641627113445 -0.9870431611835453
Ni -0.14026159620379328 5.606047639796963 2.9690187561473818 0.26275902977393456 -0.09239464898333764 1.3733773793086799
Ni 3.147798145773932 6.318701517812486 12.15909760300215 -2.9936644800638637 -1.5596111230313656 1.3997664108251697
Ni 8.82604609407734 4.873370485177168 0.7790445234884503 0.9608292217923387 -0.42051343511000483 -1.6768302872575507
Ni 0.6780026159501826 4.589023044258115 9.312185128626476 -1.204418363506042 0.9341661106788557 1.3692152775111903
Ni 5.2282739017046165 6.874157170774283 2.5162531020970986 -0.03404320562763815 0.26504628314621453 0.5890387058093339
Ni 0.7744967685018393 1.7106324005009403 6.854227856049899 2.536228460895897 -2.1016580334721935 0.18688448993280718
Ni 3.4426693172405165 8.449221370971868 4.208084670051117 0.5035307566435006 -0.4169419157086625 -0.3433867680293312
Ni 6.461993384642688 4.730050429783 10.435567055248896 -2.0425614844203532 1.5508673154004646 -0.8746011066310293
P 0.6068593785924857 2.0708164746781303 9.386447900396476 -0.30873215406993926 -0.46827990386100643 -2.6255462707261232
P 3.246429931093056 4.088365959647382 11.019117310297403 -1.7800261406214506 -1.1571478605548522 -1.8294753963915138
P 8.365407374111188 4.615839764778337 8.138896289119996 -0.9991324882479113 0.5318853965267936 -0.9281492150608145
P 4.513768974655289 0.31317306643129716 13.43727514940954 0.07613319281915275 0.15713888323925843 -1.0983996959813662
P 1.6392965412894718 6.605501363796634 10.695677029250671 0.5199922446336335 -1.7678542811456068 -0.19608158305104295
P 1.0057773585161771 7.198927012421438 1.0182235491262288 -1.149109563631408 -0.4322564345785459 -1.6232664950984819
P 6.090618450570759 5.691524761931675 6.899060827419973 -0.07921517417858616 -1.624166638315248 0.21784365731848288
P 1.460618630493201 4.542549498465184 13.242281697789405 -1.3860912273309225 0.21690674732651033 0.2554252151166827
