# total energy = -340896.10227053403 ev
CRYSTAL
PRIMVEC
9.07090124659351 0.00000000000000 0.00000000000000
0.00000000000000 9.07090124659351 0.00000000000000
0.00000000000000 0.00000000000000 13.27618087514600
PRIMCOORD
 96 1
Ni 6.534432289515532 1.9653195895890243 11.383514725735573 0.391265593988481 -0.23208602617010998 0.6769382951357955
Ni 4.48390065432276 0.4571480205132233 5.988725967956446 0.22318975212174463 -0.9221588018053344 -0.6069176429722838
Ni 2.654771574920522 1.7328414634682596 4.840827009063987 1.0333975800783688 -0.6908327937297006 -0.8975849691207122
Ni 3.54069927962366 4.444224532599234 5.240838330188936 -0.14255892854255447 -0.024139573360681007 -0.45668011483854903
Ni 5.027673966842229 4.629624681640645 2.590807208220566 0.34091593789133545 -0.5778862887369403 0.08086556529781558
Ni 7.037740311909568 6.195915328701579 2.8008629737358475 1.1513978454449527 -1.116630617167096 -1.4136776215896234
Ni 5.201436149680785 4.675405519852495 11.374739535942398 -1.0431693147531518 0.8087602968768202 0.7540557062450884
Ni 5.551391516871822 7.760546000848154 12.435559657770044 0.45277563757782024 0.7866097289217098 -0.5090773974933426
Ni 1.812982875317218 6.519891634937843 0.45243659444481926 0.390813594052727 -0.34304635397077693 -0.3557332054098261
Ni 2.7647562516232522 1.8318866333583306 0.4616344882325775 0.2468883812902651 -1.1496219844914521 -0.9312090849330608
Ni 0.7322557537789075 9.201703566250188 4.490282940386928 -0.2066123073790377 -0.6365334089561877 1.1700972216266687
Ni 8.583095319067004 2.428770072236108 1.2068008556486804 0.3476239460391303 0.032655067030859894 0.6615296738902091
Ni 6.712221952474172 0.6242693966042278 4.780473768120348 0.4203992781296437 -0.1029739671610807 -0.6232611173273137
Ni 0.6855923168830844 7.31091050068505 2.6933918437477007 0.6826672271997727 -0.268942275766511 -0.14739388803735262
Ni 7.599374228835444 3.940698808577086 3.897953093897173 -0.01614755629413993 -0.2211920049654255 -0.5810780562013605
Ni 7.734648578003923 3.9240718467299844 12.700698470648407 -0.05209903468808446 -0.18214774657877017 -0.3487639731808445
Ni 7.959588785251288 8.845244362919285 6.891758670998416 0.027149820941914534 0.14086225756642193 -0.0032128505103428536
Ni 7.1385996620339105 0.3974134150294716 0.35972835611305987 -0.7595684085332015 0.9752453972176689 -0.5577859184426394
Ni 1.7919837391055216 6.688728318440352 9.267026753945611 0.5605094880213894 -0.02814175254153863 -0.7842016337008495
Ni 0.0010331756434178115 5.025760006695072 1.667794031168443 -0.20363137037384285 -0.9237814250104219 -0.3704021202759105
Ni 6.515700878596674 1.878365930960375 6.896126309912425 -0.26790123609650635 0.6850480687271233 0.2940231299945388
Ni 3.36711851480853 4.282118457765875 0.6193565965298197 0.12553385473946768 0.8444852610822553 -0.7726771780010177
Ni 5.986323086236153 5.584971993008194 4.794679706444814 -0.7389985548016498 0.5962748185464569 0.6285403634483819
Ni 5.3743275260068915 2.966883142424649 9.398221918857333 0.3802427605154161 -1.0794992595324377 -0.3164521484220163
P 0.22202663379112456 5.523171943327724 12.510091624334637 0.24530663862544205 0.5864940850106093 0.07535723388507667
P 3.949125675765279 6.135521268702669 12.674358387827011 -0.6281549550845053 -0.092437329295815 -0.5016448524746974
P 2.30258476604133 8.370591317325573 1.5531804735979682 0.5136184798968058 -0.135075989901948 -1.2290731859402446
P 6.351064022336505 7.7169512498186 5.803828346839929 -0.5420708217002277 -0.22718344666217002 -0.15645934067373055
P 4.868896912738758 1.0587737265233872 12.670109577718348 -0.22258014356220376 -0.5519631411132753 -0.36457265807832695
P 4.007986753466228 6.2068094810083805 8.271697631485063 -0.3083765705027334 0.05034399967019072 -0.4005058816398263
P 4.740235250524199 1.155514887515933 3.7985015476346247 -0.7098761835143967 -1.705157159226702 -0.9173325840612846
P 0.2072319939806377 5.474470274938696 3.895536605825123 -0.12205052417655755 0.4279169266629275 -0.17676051412492783
Ni 1.3879204464273265 1.046020039476456 2.3787467735464136 -0.09107901549570765 0.8777769332558495 0.05087107581825432
Ni 1.7473367635400916 6.720131778295597 5.027809123269682 0.06624935804653752 -1.3375120328706385 -0.9937131170045532
Ni 6.051297951326599 5.699918452651658 9.301079824033012 0.21150640224654543 -0.3086701904837522 -0.40926074501432097
Ni 8.662964603880821 2.289849220796742 10.031056967437674 0.30294871461894274 0.3392997424441512 1.2655967347875752
Ni 2.194967594544325 5.395898128992384 7.180063658378311 -0.11777992182566166 -0.5265063916030674 -0.2859940890424752
Ni 0.6526068918635538 0.08836509085091265 9.17350939122937 -0.04931941506041829 0.10886539294485122 -0.07373949577599558
Ni 1.6223578872011049 1.046954342297106 11.558203047583724 -0.2883800727761485 0.9155744637195973 -0.5864766015091125
Ni 4.06105152531868 6.7550638187065015 1.6024617725718455 -0.43882251783183773 0.9931467029781218 0.20223371869536783
Ni 5.686865425866072 7.801537403241525 7.961021987636363 -0.057273379800172323 0.27122438693246836 -0.05520724129976298
Ni 5.339731108939327 2.9492220978440122 4.654270320123228 0.20437004831208025 0.8508801088650055 0.4434831565323007
Ni 0.905831076053334 7.637335950237582 7.106394334515117 -0.3494252609139272 -0.19487136479302566 0.46616157196642294
Ni 5.072230233395945 4.427325443716993 7.271072009830557 0.16979719543321725 0.4929203281175059 -0.2329180351531021
Ni 8.222309295877363 7.409792394354036 9.234420492595044 -0.014951479103509734 -1.2060849525751873 -1.1124379192419873
Ni 4.663350292195759 0.4061096879824536 10.47191909198784 0.0853606249546917 -0.311030977406445 -0.20840256651024108
Ni 8.223515725733154 7.416250875988044 4.7081324241886415 -0.10164959192270236 -1.02054334982352 0.778946041728865
Ni 7.224718797754794 5.849062209711145 6.988263081470389 -0.14005338851188137 1.6255200670193486 -0.1277660865040961
Ni 2.3053967454044515 5.294204255960276 2.6555153888165735 -0.6050019140068097 -0.7686909396597601 0.8742167267084171
Ni 2.349780664835912 5.325616786716693 11.278407472592681 0.36424535664589525 -0.228159180311878 1.000407241195277
Ni 0.8727993894378296 3.1099403247981545 3.8279475070170914 0.8011783707645039 1.115100296565499 -0.860720234883879
Ni 3.6115520886731463 2.700370995108945 2.552465416059347 0.29732108401952023 -0.5263629240466676 0.9551650815280259
Ni 1.1406023259902183 3.2527253801365195 8.285810139527465 0.0016444775819584583 1.0947397306312758 -0.2168347564379943
Ni 3.630691690144714 2.5486873857214762 7.144590085167476 -0.14272296492424452 0.8398796439894439 -0.159035586041339
Ni 4.108410700334346 6.7852154942000995 6.0563948906947855 0.37563302965754664 0.6731616017021826 -0.04019122750690497
Ni 0.9755482082761665 7.3297054079121065 11.389940552125363 -0.4314375382216763 0.5218352113796433 0.6401702343778265
P 0.03196041318716696 5.6970792605850225 8.052136468632314 1.1961561234972495 -0.22537159026441186 -0.45482300702515216
P 8.69018637829607 1.6422413025687241 7.916785923893996 -1.5018852290748068 0.019747357830256315 0.1339020241985049
P 2.0109825060856465 3.365367830882458 10.442884044428435 -0.8302115247720606 -1.25102217940751 -0.1444088372670997
P 3.932208445080694 6.133997357305881 3.8522965270313705 0.16884511593259308 0.5349295826697561 0.1823385224333376
P 6.9952340690205785 4.042320114399822 10.57389416295626 1.3232830337554502 -0.4415689702287234 -1.2555406361031538
P 6.344514831690784 7.697548592213064 10.19119465671685 -0.35926461560185224 1.038030707975006 1.067369566148439
P 2.440163124107335 8.576446348508398 5.859561777816994 0.09505136987989436 0.5384782192529629 0.22074437590504564
P 6.942060446354071 4.0640902772110845 1.5038193506937827 -0.1101648284825651 -0.11164218435904 1.1303076004335566
Ni 5.3484028904591465 2.8716658928288914 0.4253037148610497 0.3373598451089609 0.4387631253488121 0.1588131856178878
Ni 1.5379077972957507 1.1891497890593326 7.040145914900212 -0.057694012277358694 -0.6116854966745724 -0.7387738403853534
Ni 6.896234253636365 0.7429648597018141 9.091050364131128 -0.32862812166291794 -0.4328794128745254 0.3390320906050613
Ni 2.671344111360595 1.5442574281157022 9.273597714754146 0.835967196308915 0.6832948334814425 0.29401104580968074
Ni 6.369214895580395 1.8582738848658145 2.451114423091517 0.7464871498692112 0.2505154365198911 0.36667016403730396
Ni 4.156676965467148 6.898347773609291 10.401860893880965 -0.14042054204331303 0.4886854641005519 0.10396795564323384
Ni 8.2868759704151 7.21720809158491 0.5767106617627915 -0.6252871466184069 -1.3310122840789076 -0.4159160455473095
Ni 7.60188686845991 3.8587976419008836 8.305591960801964 0.394954612804294 -0.5006187252030282 0.030517451862566797
Ni 3.257832297495995 8.442233294776967 12.521310514903371 -0.9071492157703797 0.10173778076113446 0.14926462269750423
Ni 0.093399441001017 4.967044063412864 10.090056829926548 -0.1868865468153362 -0.6419000725847397 0.9408057274825604
Ni 8.638953928480234 2.129312411866027 5.563649025624681 -0.4252332091831773 -0.40835623092218054 0.8480907190453265
Ni 3.8808308608461153 2.859356679939357 11.694271100604698 -1.1412998377790022 -1.0293344657525885 -0.552516442513584
Ni 1.2056679000923778 3.390575865237665 12.540202480772962 -0.5588367283046569 0.05670053801583783 0.210687762999992
Ni 3.2752665695473473 8.534738344922488 7.980949850419722 -0.3223826549738383 -0.7620320395823458 0.5110923710408424
Ni 5.501175007987178 7.867691485484248 3.4283343984535652 -1.0346234820656697 0.6995503761083565 1.1892478264131905
Ni 2.9322050872465426 8.451540039378783 3.6452278092718173 1.4286715238952943 -0.017032530002254537 0.055020579210253634
Ni 3.486409936113075 4.253780962506548 9.153077186340882 -0.4186776674528467 0.6872877566909195 0.11726210164897868
Ni 7.336925845244507 6.159640794917313 11.575740727908432 0.40402186521288486 0.12857521266895275 -0.3520536996757098
Ni 0.6482410671297787 8.948870337900892 0.15593514076648438 0.47696406189856566 0.21548775549179663 0.24434710292565012
Ni 4.405990684161956 0.24832317628689482 1.4852856854204617 0.2995818550292389 0.15273098397954987 0.3007702189103852
Ni 5.86210616559556 5.7172710865924685 0.42890304844584504 1.1297589270189383 -0.7470437937036295 -0.20499534060090505
Ni 8.18432036177171 8.79449267086553 11.17407033895924 -0.6264158609062115 0.6264693398519663 0.670015342763717
Ni 0.07890051256871648 4.486295372231998 5.9738170347912005 -0.46895276155831495 1.0353266787802815 0.15854759066132695
Ni 7.816912580726979 8.512342289930404 2.611371848266154 -0.2945291230966799 1.9155613295480043 0.22088372969638734
P 8.517059158539508 1.4666830812982383 3.3764914769888956 -1.8623027273341797 0.1057049929389986 -0.021549958256633854
P 1.6682566471281821 3.267837501488004 1.676064878856488 -0.23338983258319804 0.34185901853089506 -0.2472632481311806
P 4.807604833523883 1.0474895254662162 8.111560849296005 1.0254986369462662 0.05746081322063007 1.4212286944640038
P 8.62765158562072 1.5277937424896852 12.401160986348017 0.15955906264497682 0.8164185847530261 -0.4218372961277509
P 6.203090411528124 7.77253773219669 1.3145559048434905 0.031535094493803754 -0.8643611740705758 0.515068324969455
P 1.8510715893357552 3.2723729520736837 6.0038471602091015 -0.4058128956750366 0.45165900747487375 0.6625604291475686
P 6.812827317365716 3.915644979541792 6.054204268061903 0.7091215647365594 -0.6201814499607254 -0.5082106786176731
P 2.5018361811714063 8.606570811298482 10.19886863910782 0.4549741878910358 -0.4036907071257112 0.8418190271040019
