# total energy = -340876.6813054574 ev
CRYSTAL
PRIMVEC
9.20921376616919 0.00000000000000 0.00000000000000

0.00000000000000 9.20921376616919 0.00000000000000

0.00000000000000 0.00000000000000 13.47861522837861

PRIMCOORD
 96 1
Ni 1.625343353806186 0.6231396103292791 2.7381672525974405 -0.6113162862606116 -0.639379105935099 -0.29841174598053766
Ni 4.308604352771838 2.5927436364680694 2.5610851221677393 -1.12707109577413 0.9218955208416186 1.072021977318786
Ni 1.843472792011269 -0.01271147781619844 11.071994635514768 -0.16764492497690484 0.35315541738032086 -1.2463689969062146
Ni 9.07660112703411 7.72750655976165 11.190013473200725 -0.031452562082326475 2.0793436862457093 0.43392790874369785
Ni 6.185598683036359 0.4726757914839727 9.047884035623364 -1.1143353933750162 -0.3806423099466799 -0.6182418097358513
Ni 8.769427800540376 6.580830511941516 7.660772912839025 0.26536278594536883 0.5741337636730435 -0.6296773052663026
Ni 6.357378148156658 4.43282743779879 3.162245101906624 -0.6011540010156291 0.6984774547591519 0.01032452185445964
Ni 3.9803879727317657 9.068174696401767 2.852075097240472 -1.2165647690605887 -0.31867332444305113 0.5831884176761439
Ni 1.0339736892642872 5.848384901107982 9.301107024878355 0.33597710582882134 1.5560434602847653 2.182784308630563
Ni 1.257987815091301 4.56116704139695 5.190075303254207 0.5925719157735729 0.41566433454781965 1.5793158005491446
Ni 0.4847288105130537 2.6285306413175564 3.8946188808724727 0.2143145611193019 -0.14794076167975811 -0.6549841594622074
Ni 6.694720859078316 1.7306599228897515 2.8067731326867933 -0.1527960328895304 0.1455241818184655 -0.4638635199608656
Ni 6.135988648264308 0.17238451046734313 11.464425021580189 0.6657259713597439 -0.09752554245199978 1.1076129870495184
Ni 8.637063770509064 9.108069010608657 7.486467360371784 -0.8127272519443681 -0.6570240727103717 -0.5221789678723071
Ni 4.250531050512223 7.778737416163528 11.708401039252738 -0.18888249419944245 -0.4027000610776677 1.9489748720114437
Ni 3.703862909783863 3.251091913019829 0.152595751841358 -0.08519196058731135 0.4094931727401012 -0.027505661619436503
Ni 4.367349927639281 1.7995724697988384 8.160816645911188 0.2013708564744403 0.2990365240487301 -0.9307982226478873
Ni 7.047516630766171 2.6214671743284783 8.148051754654915 -1.392774295778053 -0.43551402228389513 -0.08889357780861465
Ni 3.343294561643881 5.892837776148763 4.182131456812121 -0.8069201583442878 0.5218691499413722 -0.14589262090147778
Ni 0.6819487287719812 7.471573298883602 0.9290125958336273 1.9555273284179808 -2.4900409065962408 1.476268042727335
Ni 2.332905668936345 0.9789670552020159 8.889416489059403 -1.0525260733777033 -0.07853408895116151 0.361267504964494
Ni 5.645828243448571 6.039319530944425 1.0083619447488708 -0.3131228269384672 1.0899819042313166 0.8286194976945923
Ni 6.862015437075173 7.360850921296009 6.192655703575772 0.6722938543852486 -0.1965040153004422 2.9481081315903035
Ni 7.412698795022878 7.737268326395839 9.615657852551942 0.025711031612858946 -0.1298245116950216 -1.112665204761445
P 3.2078546542014186 6.310715061802476 9.900150727284657 -0.1486295602166666 0.024867195555324913 0.295865068299284
P 1.1640077882027224 2.5354623265957557 10.13094467631553 0.6912361998157063 -0.25111398933583845 -0.6689586193644286
P 5.96564582049772 3.3133093614920717 1.3071465983868653 0.2520892087649142 -0.27492754681566844 -0.9608487621763646
P 5.611376574600931 7.592738924927015 8.176842519776107 1.1472051475198437 -0.1371801807291444 0.0037939198247934664
P 2.7059709202108495 1.3084266791058767 1.0102811449060074 -0.6340291544770952 1.022213024216459 0.9955254876229436
P 7.043280392415486 4.109464313434394 10.753778540746454 -2.529021658734812 -0.7913433869519533 -0.6870324461470039
P 2.8558324564732542 3.8137288304875123 3.8845909679592956 0.07949773841601147 -1.3328531939423884 -0.913674161373091
P 5.159922495411132 0.9940793750573963 4.426498866071418 0.4348051691423286 0.547032022360245 -0.5688835710176977
Ni 5.280968401675068 8.163544415040477 4.902361045532211 -1.651497464919717 -1.2227922380275391 -1.0628341401719308
Ni 7.093756093285284 4.596383074990476 13.34010888072014 -0.9286464664122072 -1.3435225007307767 -0.994574436563584
Ni 0.15916376312768182 3.989615604965216 -0.21279914525426397 0.7338450356251685 0.6163394505068159 1.960417052410114
Ni 5.531293251345362 5.373309188506208 5.32277270682529 -0.2987940690206209 0.7802822440417853 0.9143069098610835
Ni 1.1673138959590184 4.443500916599756 11.267259437682716 1.680375324296332 -0.6233045689707395 -1.4299928138098792
Ni 1.7267367978084642 3.2452072253978983 1.8486861279467541 0.6909004137428424 -1.0092790897636101 -0.3195958362573205
Ni 1.8586311579356787 6.888031466076666 11.843268133596476 1.1893781813434678 -1.2198033306025444 0.03148290109962965
Ni 8.570306179630544 2.6963012457147197 11.45180931958757 -0.4257188905703442 -0.4654226369178694 0.08811324799916437
Ni 6.869714339816853 5.351916184835246 8.401436826072889 -0.8027709120626045 -0.050071719845410534 -0.043359855042873714
Ni 8.082392822983431 8.524536387015527 0.5390502790681707 -2.5642907663497514 1.0751885479722256 -1.3521215552536974
Ni 1.034618334230696 5.264152377265607 2.7453246535673377 0.7691084868131528 1.0617884725162359 0.4562965062468851
Ni 8.259826745380515 4.146512980575281 6.740789951142022 -0.272419435681834 0.014701824986548874 -1.577883438977992
Ni 6.798766556656677 7.093737674857674 12.127842049410683 -1.0441375922036922 0.09758750603818676 0.5157434966596086
Ni 3.9234105669150448 8.584534414960563 9.6719979807733 0.4689319356227085 -0.11237494876000646 -1.4588717016277584
Ni 3.175502686101509 7.325192845439804 0.3905305252572767 1.8886894448578249 -1.8721130285563823 1.327413768094372
Ni 8.423170570654666 5.549472239398087 11.0704990591927 -0.4878981923125661 0.7440697986769701 0.1489630322966854
Ni 7.69975919856466 9.408040731906224 4.887750627829248 -0.2565392741164679 -0.40316877318397015 -0.9602586940008494
Ni 2.2120899930175537 7.325192845439804 7.846576168742855 -0.5842363993246841 1.0943214121469347 1.350531842169074
Ni 8.295190126394933 3.7995742688679393 2.0648567663753354 0.7175653246285384 -1.4286900358380554 -0.9711380599175146
Ni 6.028701307426294 0.5950846613911738 6.556267696878584 0.7093606773305591 0.9167427729960856 0.23611468771352884
Ni 3.372800882677786 5.044208723940774 1.6875230445018246 -0.032686177379111454 1.0120168004097472 0.47451688590965374
Ni 5.520850002889541 6.402954547281752 10.11482486846979 -1.1255867979191194 -0.7526354288587942 0.08804331399317741
Ni 2.4045809799871836 8.345113274436383 4.814264785344182 0.43849213107561263 -0.8877530706319549 0.5272828647577759
Ni 5.269456884417771 3.5501150852953947 9.467298339061271 0.1171425453519789 1.1096590709452696 0.1303014513314401
P 8.468885107986848 6.2282097153159715 13.194257036148796 1.0583408802872676 0.573813147108831 0.5638310961954548
P 8.325672624092258 0.27070023521571035 2.477423098427222 0.8667597562097394 0.7552260724041058 0.12412797553087654
P 4.645615531996487 1.3532110858436677 10.465902200861475 -0.6786257101405474 1.0250188690963702 -0.7410580084338397
P 0.8846720732012776 4.762986961951895 7.525164476783916 1.1488527104255957 -0.2235990717450214 -0.9864790611499592
P 8.279295023366057 1.8473774986649445 6.638946176584637 -1.0487169840442583 -0.08021996129401668 -1.5400915649411993
P 8.604177668008417 4.592450740695383 4.091258618661632 -1.43768066937244 0.34645306565948075 0.18164715279326782
P 8.432941546502661 0.5405237532771049 11.914678219289708 -0.340193200792698 0.11904773279449175 0.797321458912259
P 2.3166053605000116 5.022088192379151 12.928957083908829 1.5927269317487278 -0.3149493386242447 1.6885385768334147
Ni 4.279125659379351 5.598235026499999 7.887335228126114 0.10037303920312392 1.2003231103907457 -0.033742900778399955
Ni 7.451994510332391 2.746841411081159 4.7428685134716595 0.06762592667908998 0.47334292020621055 0.838856344931252
Ni 7.402725216471155 6.531156012672825 4.117002975855853 0.009099905418739167 -0.3325182007459435 0.20041697720160323
Ni 3.382433720318693 3.5973030968365096 6.540686628040486 -0.6140583677821231 -0.1073219597171313 -0.20205476991534232
Ni 3.714481133301994 1.0916509953302518 12.655408438862972 1.1624487039424753 -1.2782558183124826 -3.3272178069425413
Ni 4.5874225099573955 5.258138760650395 12.382858072593669 -0.507544505788584 0.2767643429140911 -0.42298272258610375
Ni 0.9190546729453745 2.4613281554587583 7.544102304054242 0.5487091529523517 0.3820733859662517 0.020993314422215456
Ni 8.725656407321228 3.920399154000536 9.200813161004493 0.6037335888173473 -0.587753154228691 0.7763854800905402
Ni 4.004617414254926 8.70174928828127 7.027237941965716 0.4277462054130182 -1.3040673800589477 0.21538028337965484
Ni 6.310420366960689 8.525604655817004 2.788537047508472 0.4579502398002242 -1.0810727746671447 -1.2555984859242826
Ni 3.3977486428778017 3.316633887675979 10.908445444772745 -0.8936162142809513 -0.7014640481913016 0.9496930026698611
Ni 0.23449329021667695 7.977370948741652 3.6233753020422177 0.08431521440931286 -0.4566736870806458 -0.5725108833576398
Ni 0.26795681042295116 1.5829809702993303 0.9622007605471069 -0.8070592550253133 -0.4184478108302277 -0.22984839508884286
Ni 5.452222941608436 2.930040301320698 11.867921198954706 1.7573420687603734 -0.30152740879138396 0.8812252968157662
Ni 2.682892630413419 1.6055343349098279 4.617019081286598 1.7848083925014422 1.4356937208493985 -0.02612215100834856
Ni 5.000962255908559 3.133462625077858 4.829711399660714 -0.42159098444489973 -0.6803514345824025 0.42715870834066433
Ni 4.90049894250067 1.0193218300991989 1.0748727286973954 2.2003362014713974 -1.0660030248182157 -0.7205843139605203
Ni 2.58105714414846 4.057505929141855 8.842618948183656 -0.10207279550305001 -0.41122943870491757 0.02251103661832252
Ni 1.6716749084633578 2.154136410537414 12.319724307347746 -0.8625981686328822 0.2700697045027349 0.29575322531176806
Ni 8.242955465688219 6.243137850895236 2.0028409996854406 -1.3271368602839015 -0.04951481890067601 -0.9013120402633122
Ni 0.686188650808189 0.8766158529639303 5.556141552036274 0.041136622139309804 -0.8356357811114253 -0.004080083606644585
Ni 8.313755901427504 0.9900365301966334 9.651294747216395 1.4149130366586211 0.0740948222328853 0.7130291273210817
Ni 7.170772748343509 1.641910729442889 13.49411548411655 -0.20758804102874573 0.7641513999181937 -0.12338235561410363
Ni 1.8387116284736507 8.900824863122075 13.29767834903112 -0.6546771697447499 2.748718310101634 -0.39356390310435446
P 2.525645304678732 0.8840080888858767 6.685729903639676 -0.46496369500357987 1.62043545340759 -0.07170678161668295
P 3.0146453485549336 6.398064454750851 6.205730024415921 0.6342083603674368 -0.236600883321328 -0.7382799314680705
P 5.129550508279477 6.461027849541367 3.1549799531351987 1.8788410913088351 0.2283592121378261 -0.060629697866914946
P 5.567559135312752 8.227916819543285 0.2580937424368985 -0.4630219978961768 -0.16685096832069976 -0.5177332733961277
P 5.521420974145504 3.9554862586007795 7.1101448101741545 0.19663282756882264 -0.6827407607501855 0.1349158101749999
P 2.29527682132569 7.354386053204311 2.6735913244695224 -0.3151483420089282 0.32853504772847936 -0.5123748372976917
P 0.6725884838597272 8.514093138559707 9.140765403304906 0.21580194429810579 -1.2040023590145457 0.8192766230271116
P -0.15535299045482598 7.55818595472751 5.691358596504635 -0.5825045042352419 0.869904215375992 0.3626756981659302
