# total energy = -381173.9155042096 ev
CRYSTAL
PRIMVEC
9.16959750087549 0.00000000000000 0.00000000000000
0.00000000000000 9.16959750087549 0.00000000000000
0.00000000000000 0.00000000000000 13.42063281965324
PRIMCOORD
 96 1
Ni 8.682416769023632 3.4873079580733526 6.392891150046902 -0.6221861390955801 0.2685010744640344 0.5953775035431682
Ni 1.2887594174870514 8.407108774184673 5.225914073695465 -1.224391464193859 1.5366228896663083 0.6040097252968695
Ni 2.413557262375001 1.2594075359429697 3.668342404226633 -0.16239241832871387 -0.8419928336777048 0.4879773822899338
Ni 7.827874470761337 6.375767843706566 1.7435549473838563 -0.038362401828282315 -0.012749072135552236 -1.5829073745551447
Ni 7.757855424378766 1.1341783431133776 10.340852176889399 -0.2776493166222057 -0.019298700328611928 -0.6581021362658989
Ni 8.175283010611578 7.991019949184424 9.602180580265228 -0.854495851240722 -1.6707750822024066 -0.5958091917639481
Ni 6.260991992007949 6.190670348908429 9.776501964100976 1.122100896253048 0.06731559452752278 1.0007589681077411
Ni 9.03131078366617 2.096490920597039 4.4892955499478076 0.6638696348772954 0.14064191402549972 1.2944961914307447
Ni 2.9178209367747776 6.084486410051676 8.288931918779495 -1.0569725391848313 -0.09342926089543908 -0.6145859581508188
Ni 4.383764486431867 0.9985783355301598 13.247882331345817 0.048109968133349404 0.1021985224476369 -0.38513068473533674
Ni 1.0287279720552898 3.7497143292532917 0.7626088308543572 -0.9741943302453351 1.3185424337466711 -1.6917959074284477
Ni 4.934151236172703 6.811910578402817 5.91871384194962 0.9972905499431662 0.561648229611523 -0.41212289705346444
Ni 6.347048664388832 1.6672162144157876 1.288525592751227 -3.072124264133664 1.1037959272962734 0.47411990758155126
Ni 7.495843345890609 5.791747010396941 5.745184711336431 0.50215007424589 -0.15882912645748776 0.11195611605503299
Ni 7.13744962825536 1.532423131411101 3.4782924098277603 -0.3933620715061935 0.1746864052047185 0.03560129414337739
Ni 8.091977217475689 8.969773614955663 5.35408120555871 1.134615483780291 -0.24267100077480785 0.5246827081307673
Ni 4.638688466065424 3.9072938620040087 11.854539069762849 1.1157477003415106 -1.3874829654721266 -0.8866500673757634
Ni 0.28061444090255205 7.980511590468548 11.655335983156133 -0.02806873321175811 0.6173702057641755 -1.8242714835930711
Ni 1.4224246400012905 1.041400355777227 11.033652862103303 -0.3951582441746678 1.8164527588796007 1.8808141558748062
Ni 8.630993666337218 5.800476467201054 12.691503249649635 1.2461010879568089 -0.6708586646006188 0.9832140172454422
Ni 1.096977286123581 2.9334184220938915 2.7391916760413695 -0.042523475184507414 -0.6609771438208487 1.028181840205384
Ni 7.38928345353704 4.1797592816231415 1.2598220017492152 0.037562274524490145 -1.32901376559164 -0.6830572635493397
Ni 1.8124442993564829 1.4835858552149814 0.5865929054036935 -1.1554874421332937 -0.6868959205691396 1.9210982002058332
Ni 6.733583876700366 3.6935322054730393 10.171551147675764 -0.8083170386918144 -1.0595035331368012 -0.44989240249275425
P 1.7234350165859733 8.750895323029006 1.575488145991476 0.38557882801634885 0.5903872494174284 -1.494243396258833
Ni 6.779862835198641 7.47945727518793 7.340428755105703 -0.982141867227186 -1.1482623851397644 0.38303832098268226
P 6.833284910136417 5.016769309497343 11.84289001312005 -0.07036260888396269 0.2834011315043184 -0.30473228888192677
Ni 3.046057757578896 0.9188211766203122 8.647906988895187 0.1433634267217208 0.6750382498996051 -0.4531775010019292
P 7.81592648524058 2.6546718281986896 8.47452548880148 0.549531391743331 -0.39793529269917277 -0.2801034345896531
P 0.9004187114310532 6.949436201457531 9.477651027723613 0.7796788061298314 -0.3383075537342109 -0.011877468163876317
P 5.6087126750325496 7.997961334479291 1.288653050156245 -0.07910487385296698 0.42793132484063073 -0.6678445603646433
Ni 0.44119885074855014 0.9006387817706528 7.100467724645414 0.5985975531423626 0.8189048415099898 -1.885750931054791
Ni 0.7242175601112266 2.50425375108244 9.208137301534357 -0.22665302807999674 0.5494645430611376 -1.2280902532016849
Ni 7.192146277243316 2.4302367601971455 12.57252955622316 -1.845554047120931 0.915251790272856 0.9317207344621566
Ni 3.334065644932242 2.9480714388722236 1.7806092908139204 0.21854531137119781 -0.211781510284803 -1.4891922069881707
Ni 2.9930116361379357 4.931327000147843 0.00022465513834114394 0.2819314889373274 -0.8427582510888196 1.1065292670670361
Ni 6.1768425959035955 8.633607001619962 4.386319136290718 -1.5377392626589388 0.03008139276641271 0.2979751726637513
Ni 4.5358972782774964 4.26212060621825 8.88224430521896 -0.2930029162601406 -1.5473665013360576 1.169018129629877
Ni 7.889906797735943 5.286364645104199 8.192316454896579 -0.0242213344412099 -0.10593999176794011 -1.6468118865185897
Ni 0.7627757175285536 9.34803785033725 9.14722183153322 0.13291523480520334 -1.8549120912970636 -0.5319208777504194
Ni 3.4116221004460954 3.4027092516923165 4.0662506682967186 0.40200843432728184 0.5726456091632912 0.41611839136610274
Ni 5.116965501197494 0.042855030798006954 7.16824205356407 -0.6919990461236598 0.034433241977205216 -1.2425329109895764
Ni 0.17094422108264393 0.28441065426064327 3.1013339251277974 1.349851785382914 -0.2674556639186555 0.5163770164785494
Ni 4.021923000142892 4.715538862573061 6.267113615287808 -0.699357286260944 -0.6216896590751358 1.063484115051104
Ni 8.485527171861957 1.5228775804309733 1.3794935015441718 1.7321624841709522 0.7412814372985556 -1.2733887200281682
Ni 4.412712905686683 7.962401635439007 8.966512906090596 -3.310369367926634 -2.594553421889035 -2.663538433699181
Ni 3.7253048607527153 8.63410215988406 5.097237112212149 2.0713254439269235 0.6939931937355531 -3.806563738809722
Ni 2.720958848405552 8.462869096480693 10.454619372864851 -0.20225711573413555 -1.5359410331079353 -0.6311112094993517
Ni 5.27205090343275 5.796386826723497 1.7425884718091156 -0.04088182581602637 0.47798453274328 -0.891442089447768
Ni 7.315468193796378 0.44891231615151217 7.708811832239271 1.2390184700784146 0.7806234294312879 1.7401617003263448
Ni 4.874053694267077 1.6071920292900272 4.155202182603084 0.22856927126610316 -0.8483779112684422 -0.04111759597591628
Ni 4.372128267225544 7.640631290152106 2.979555251831176 -0.011986482937914841 -0.8162026120874782 1.7565403987946846
Ni 3.9840709017317804 0.5511716672854076 1.9791136540924068 -0.32571737577402615 -0.2962018828134125 0.4772108878020491
Ni 6.1336354525622285 3.531285347603317 7.442492793813202 1.636685596717865 1.6038916901162958 -0.09857532387275281
Ni 5.819219124456944 3.680703938593886 5.190912803141915 -0.27957224467653147 0.5907950263788083 -1.4570297633230134
Ni 9.034125850093547 7.4624293326614195 7.149063840427723 1.5289589453631474 -0.19551979701030198 0.24692566228610377
P 2.649692736765252 0.9771306470166932 5.96369988720275 -0.5937299406374161 0.2864671720241518 1.0909802635888435
Ni 5.398417126350273 1.4242860682904026 11.261037789615228 0.21868440805222336 0.019042875564063977 -0.49345048958936316
P 4.483676420610035 5.305684987001539 4.118161593569245 0.2244529351048844 0.9938964366599526 -0.1671605291413186
Ni 9.030063718408439 7.027001826568867 3.7758953639876442 -1.021221349727151 -0.5529339896669768 0.6912711668186998
P 8.671660831175707 0.9569575325534067 12.390666178457387 1.7045141263260641 -0.37744668582751767 -0.006130795488086216
P 5.129206913837715 3.846050120412968 0.5870357969621375 -0.2223474587261074 -0.4606563258774776 -0.4237406837980509
P 1.0802336011190532 4.91232759416242 6.578485637028634 1.2256878144077794 0.9841378146112921 0.7046691853921606
Ni 6.000584593079371 8.642914143065523 9.889422806228719 3.3199634393729727 2.373260629679687 2.6412343708853414
Ni 7.1510022933356945 7.372044610268413 11.93782744066352 -1.1509131924990503 -0.9226709655550626 -1.5193836429698866
Ni 2.867580712163711 8.154376328349626 6.94690906039113 -1.0517575706427953 -0.21049595870416005 3.7773783754950165
Ni 7.483106774986289 8.45331437590308 2.3880401064984405 -1.456213438069305 0.9106346032158188 -0.07743828478382148
Ni 6.8679184798308865 -0.03653534421250832 13.194964584269622 -1.1827257090239565 0.8439291314684692 0.753381048775567
Ni 9.04130564492298 8.337007201424752 0.39280538307062274 -0.012806921956681169 0.32873276556158226 1.1418400265531885
Ni 4.972947803124596 5.958000982366871 12.797458865529055 1.1092399811299798 1.78368019243427 -0.7837979705045276
Ni 1.9732607000188087 7.6280414328075175 3.212308978669581 1.43877981597389 -0.8718621104333115 0.2654430043640009
Ni 1.2609755371126161 6.490818783329681 1.0356785269476403 -1.292621600115851 -0.7214284071283704 0.1996764994911529
Ni 8.738305465684418 5.005142259888505 10.204095883063536 0.9680252253201457 2.375148590731019 0.7457096482732384
Ni 2.6620716933677224 5.20574554403092 2.721127568999245 0.0905568244436505 0.6519682554540192 -0.5393058573605809
Ni 6.953296601998004 1.8462342660824875 5.93958292886189 -0.1347736281701808 -0.6947817510751195 -0.6568258406566365
Ni 2.697796445162706 2.700070505338568 12.435223086548296 0.033899738071238396 0.5778248393713855 -1.7494845203891678
Ni 2.6301431549308303 3.4688862367293787 7.959508627433022 -1.1655695089596443 -0.5285861569502316 -0.7060619519746292
Ni 4.38529580921158 2.2953244724251762 6.580485526239745 -0.90711399165707 -0.5937983319815064 -0.421031512397004
Ni 1.9341982147398997 2.8971068160599756 5.6934489253758365 -1.0899119702253293 0.2672839142274816 0.7173470379701452
Ni 2.606210505499386 6.499153947442011 5.304813875240623 -0.6397467736871627 -1.960087436984837 -0.29778696791234516
Ni 2.030900789798908 4.5380888120760075 9.942085638494875 -0.4371399879230923 0.07333866079315111 1.2693508025133686
Ni 8.87890290389604 3.0662858896270824 11.245980393587882 2.048970987491123 -0.4699449502682552 1.0272665274799664
Ni 5.406284640990954 3.7188678033194305 2.6606137273678763 0.8326980386393401 -1.4532569265441422 2.1613279385290007
Ni 5.4476211864457245 1.798222253659866 8.809558739888242 0.21556540280726744 -0.4703239308742287 0.722733241982723
Ni 2.3905324030944044 8.840408933661097 12.723444625523005 0.344286139915149 -0.31579214624051427 0.6166770363518927
Ni 4.009608230722804 5.8102329189232975 10.454445150512669 -0.35914223109137505 1.8028194843668823 1.4217339162351967
Ni 0.8845727300201418 4.6233935774632595 4.377743728724324 -0.14655416574487665 0.34909461704738587 1.4157532731717295
Ni 3.395015959403817 7.161373108089321 0.7833302872471457 0.8710403858629643 0.957342291685003 0.27674325986816856
P 3.7499068908004416 2.3716338626812985 10.19904985356847 -0.6966846245247873 0.5298197722470166 0.05070061167866108
Ni 2.0828098811519373 6.587081217709491 11.997696659591814 0.3155064966792953 -0.9810769162977815 -0.7347606054609024
P 1.242902260473008 4.504537254884569 12.095922304792799 0.00761355068119979 -0.03681665460771724 -0.5362925244555538
Ni 6.465960004552422 6.354668599897464 3.686969524554233 -0.5016240265390909 0.08159910102973043 0.9508744245724722
P 9.300172551474361 5.077389518459519 2.476254385167147 0.2436300222539675 -0.37926471287286295 -0.9278468533290471
P 4.629537207777078 7.8002923215315345 11.441129601147225 -0.2421148711610217 0.059604599036510254 0.038826228838578294
P 5.291829725204254 5.9300428796402525 7.9359290075046856 -0.2271057993466992 0.8487489214546157 -1.693888014070786
Ni 7.63156255824111 4.160310565361037 3.7836390890623015 0.8990399563996839 -0.1333520652323058 -0.11054920840517736
