# total energy = -340859.53466049704 ev
CRYSTAL
PRIMVEC
9.31289977598603 0.00000000000000 0.00000000000000
0.00000000000000 9.31289977598603 0.00000000000000
0.00000000000000 0.00000000000000 13.63037018449435
PRIMCOORD
 96 1
Ni 3.6762485424950966 7.714573313580755 12.36960202992628 -0.25268364781580355 -0.07716394807651226 0.08327340340835981
Ni 2.1150992221082157 6.515993805470109 0.11316942622520233 0.4300987648055947 -1.5194553767480865 0.9512066111009102
Ni 6.258641134339895 7.547825843920681 4.906115668537605 2.340752886859969 0.28117095662221897 -1.267952122393629
Ni 2.304486351011162 2.209345767372664 12.8319847076354 -0.4495512171032515 -1.549656840032131 2.557686630769673
Ni 0.9662412856543764 5.460954020893151 4.011935738411613 -1.7151037289164528 -0.76703129256915 0.9527153344359529
Ni 3.2871835304878982 3.9166703619167365 11.756248865989155 -0.8106611134439587 0.9803541791991437 -1.2093050021743819
Ni 8.74990700232969 9.16107152539544 4.04970606584531 -2.3402335240213885 -1.1149809973788152 -0.23057113218748032
Ni 0.7985215492625234 7.54041277573585 2.940861003080078 0.7168837251804815 -0.0918788856891837 -0.060544594352276375
Ni 0.6131203414438836 3.115137020881632 3.2148995966559744 0.8344839268951693 0.9940959542652685 -0.6322445517728466
Ni 8.723141728506565 8.834011799788508 9.757600004680912 -1.4173152183422106 -0.37688489978677675 0.778224590181808
Ni 6.962398341113 1.3747050677985164 5.267334179063062 -0.41688149478437236 0.07827954973819422 -0.6084765028189715
Ni 3.933275262134771 4.139313855754401 7.1731865135947706 -0.6184886356393349 0.33705825470814205 0.13622013080872025
Ni 4.427808863580693 5.745751807526758 10.579334887809656 -0.795883698024468 2.3866506778333476 0.8566080124877183
Ni 4.178102083128554 1.1230984558015207 11.625710881768084 -0.5470088824317935 0.32321903483220465 1.3925040728358018
Ni 5.631706037436991 6.469773884111664 2.950879820609277 1.6936522439108959 1.5302982329998613 -4.375614174422587
Ni 2.9678162600576887 6.155994353519268 3.4761944182417652 0.48991573696322716 0.1978625862108657 -0.44757043922779693
Ni 1.9899617884403906 8.337615618396649 5.055285971247865 -0.032631155771459926 0.6710664097360507 1.4487222718985824
Ni 1.5041078095425389 0.2850920742650638 9.774379056123891 2.0468606260163393 -0.16303545122935148 1.188910754788746
Ni 1.3638462267136995 8.55104865440165 7.53552257208779 2.228180991597808 0.7173372677781323 -0.8575559782232844
Ni 7.361344339733398 0.6831337903217093 0.3382249610928559 0.09938856380266754 -0.13675954825195805 -1.3019436488477256
Ni 5.535233709137147 2.5011654804024546 7.951535390752815 0.6778554076334261 -1.5277438420091236 2.031884207212165
Ni 2.9096292625465945 3.6425544712730833 4.366121147061209 1.765804854815746 0.8103176140616108 -0.6628995576545422
Ni 7.814267905187071 5.391414598611567 8.055562343313381 1.2253736256014702 1.3479100882755108 -2.457636522123606
Ni 4.627859262674132 2.1375898749554136 5.9454855680293885 0.10390599205704686 0.24127180643443608 -0.7373939293186913
P 6.131715623923969 5.942905894804264 6.306363226424739 -0.17024148205948744 -0.9544999371402013 0.7148399552775754
P 2.031078240746966 5.82850623452477 11.553223926722053 1.0987892181103012 -1.437436414572118 -0.5040981991111964
P 0.62558193257218 0.07584798055847544 12.78350175164264 -0.5001366433602871 2.1278364916397736 2.5138860886449543
P 8.07326895956944 6.81199501047853 3.4060384819980754 0.1731072336430567 -0.09573502621048027 0.2297679195598946
P 9.049698557528094 7.4366670727471185 8.138639927932015 -2.4515347801012424 -1.4216189879238872 -0.9937928212025531
P 6.147081908477956 7.239829624060422 10.126820158654116 -0.28249816007407474 0.16923180984805047 -1.1730115670599863
P 1.1699050898429355 3.301311199377836 0.6901249841487864 -1.8904233968297959 0.8774372905282436 0.5226543648468288
P 9.077506876120946 3.50451867147964 8.056448000077676 -0.43299356985488663 -0.2288577490407994 -0.18296664293563975
Ni 4.638569097363274 3.1864552070115866 0.09716241416981365 -0.6486039669674766 -0.4933188491075052 -0.5032718465551591
Ni 3.298955035746225 8.440504534610248 3.3101621792809315 0.8312332811683555 -1.3075437686433224 -1.8504113752132323
Ni 8.29541886972143 1.7528739871219794 2.3800400439381795 0.024567919147351236 -0.8345847141390916 0.33707753798185175
Ni 0.3742779898163992 1.102218934607559 5.694482431934876 -0.4229742379456715 -0.7640454704679486 -0.4224214507659951
Ni 1.7194406770923973 2.876102823519716 8.792829225893852 -0.14353054842720442 -0.06662293933587235 -0.613214274614273
Ni 4.600609718065064 0.3754663158219074 1.9203832519799415 1.4520929881430282 1.2933741620111596 2.524642298720194
Ni 6.999240172443647 3.7200191712246333 6.7907457671652995 -0.07788617095451747 -0.9723667901182932 -1.0518015365068532
Ni 4.15190489618894 7.206424252730029 5.696281684162652 -1.994993504833403 -0.9040086132588689 0.7657521687464102
Ni 8.014122733386188 5.204942407324013 5.332691178076043 0.467963143951536 0.6411966187598117 -1.3140764275555177
Ni 6.317731483124769 2.5127227889669985 1.539087060927249 -0.33025408730211514 0.20523342475364006 0.9112614381665403
Ni 4.495420515618232 5.627477980959712 13.332464595558726 0.30056581620906303 0.27762643380407026 0.33558578392767363
Ni 5.360952103595757 5.917639997837619 8.425940090722987 -0.34164330297566325 1.8008685312880985 -2.631999996771267
Ni 2.5921525107615118 4.985744686386334 9.354890663279747 0.25858150135747726 -0.5785583751033003 0.0650396540091525
Ni 8.889926449765559 5.684500866004596 12.724018398489173 2.791747007057334 -0.7548437493640227 -0.42549700436752524
Ni 9.10607885249163 7.35829902152179 0.8225506931450658 2.3777711159555306 1.695501895525125 1.1681624664978012
Ni 1.0324094382338136 5.106300173387153 7.290244075457118 0.12066135713851478 0.9566704624289589 0.6623328865177949
Ni 6.655044711334089 8.629323576629684 8.382050256876912 2.1299697359326926 -0.24483972629135253 0.4972539224958533
Ni 2.9559516258020655 4.22905295754968 1.4773276350798465 -0.2256842364088242 0.7258620174196918 0.7028069353724412
Ni 3.710389632904135 1.469231000054855 9.419484935804867 -0.22545977910284398 0.6231742140404622 -0.9109320798515796
Ni 3.166506975790594 6.89393921520006 8.226364649515762 -0.8916310655301224 -0.8076570365103123 -1.3066842488565045
Ni 7.66929399509501 4.708099206745129 2.682633850665247 1.147193577555618 0.8625025235952823 -0.5318694556871937
Ni 1.9277702440455304 8.691151917935086 0.9538728235233771 0.23615531114347718 0.8106788540557716 -0.4557198078078087
Ni 0.7672059926314726 4.160472763940253 10.678767786933568 0.3016361664551063 -0.4189607459109043 0.6014687040425706
Ni 0.5188942845588408 5.280749411123678 1.488913813633552 0.16719909568873786 -1.0728951239523585 0.5872263351909435
P 5.536695834394709 0.16395453103113994 3.711468066692833 1.2138041755963163 -0.6784637306413864 3.160610836311847
P 7.4993708266271115 1.339250858527592 8.803160956853969 -1.1234095877621426 -0.6718243709479979 -0.04346527027248643
P 8.077310758052125 3.848527874594605 11.568708485102606 -0.3646485056215849 0.5301876971093966 -0.2602133805339454
P 4.190208852777149 3.0582445164329646 2.9152635668830564 2.1375557758100667 -0.8464457272427358 -0.9386424012826544
P 3.458820272506058 8.480130922960074 10.494444081613652 -0.2777891846341796 1.0622376442385124 -1.4917933920564437
P 8.613053940801917 2.7660057229153376 4.856542171986501 -2.0575031933318497 0.8566794891556021 -0.45140215426906133
P 2.623639424747589 5.3603653909127855 5.793384495774195 -0.009338503792106498 0.8671960724162097 -0.5750729876578612
P 7.918805204652825 7.968340518315039 12.912363413912368 -1.513993839412883 1.6991608324339509 -1.746250329722586
Ni 9.222825363503006 1.6395080587124808 11.605551247723227 -0.9354143812636598 1.001786638041307 -0.23252902724479954
Ni 5.299747726572243 9.114413897749701 6.274686329284176 -0.2877743208713496 1.4976614208014465 0.3658885486762731
Ni 8.240342380720053 3.6793497381050835 0.14730586018437572 -0.08289416569207013 -0.7691542524494237 0.9909728352552546
Ni 5.632143743724287 4.2467381541363585 11.72567554746656 1.1053560726945415 -2.1927501615940237 2.2028520259147157
Ni 6.396574492236312 3.509547637333672 4.053372554468889 -0.9155693215132747 -1.2641216929039454 0.9399138117959103
Ni 9.414782852731346 1.0650045872877236 8.059992489714796 -0.5139013012445472 1.959019400731639 -0.7269477942847029
Ni 5.266156097247256 8.226596540719031 0.35138595099085174 0.5021441607086191 -1.3206332548374289 0.03690664321836224
Ni 0.4202641573916283 7.134239966925213 5.9084379216147145 -1.9493908765029395 -1.292117149675607 0.23220789645995493
Ni 7.150239528660817 6.419176899880266 0.5286225396164735 -1.827644770940678 -0.7417437216469549 1.4189247289211757
Ni 1.2173822526648876 3.418486103776777 5.549796290444462 -2.966526486196491 1.1889500926671135 1.6804858817322672
Ni 1.2347321848612975 6.9929167135271895 9.553349487809381 0.5887972792224891 0.12090586904915306 0.7172051130756422
Ni 6.993680371305024 8.41561115363279 2.1805866017174127 0.30886945097875196 0.520225443690362 0.9175722108759164
Ni 5.926450000981904 8.905469679414407 11.670336434692805 1.178309325123816 -0.4856430777298023 -0.16528130984073472
Ni 2.1811276811917075 1.8650385514663483 6.714947144975391 1.6443477412488132 0.001962780153325652 0.7294973001794339
Ni 6.502834678152059 4.61807140505823 9.74155760360655 2.062225538508184 -0.5658800083046834 0.4215169366738547
Ni 1.9516298931529925 1.6445649632657016 1.8015804527082506 1.4807944698427788 0.09375733365881918 -0.15304157324143322
Ni 6.716379468953818 2.4256378635946807 10.466706541058748 -0.18574214879824785 -1.1537750874278774 0.5807808366759158
Ni 7.825396820364049 8.771801629594188 6.366787182450904 1.007665208309271 -0.2158500239272218 0.4981813194061291
Ni 8.500656553964307 5.752820298421591 10.099299608662912 0.9954362703432469 1.0363589766995378 0.931547699219402
Ni 3.2228220804560204 1.0476174034923948 4.481638355308266 -0.13065857756054272 1.448443307205583 -0.3908231071344237
Ni 4.534357749388059 8.539519284536297 8.541185362297938 0.018677778915161383 -0.46535758800788884 1.6922800461537177
Ni 1.0544810105931754 7.666611879972859 11.95676491006908 -0.4075920990626464 -1.1180951175277647 -1.747099822207075
Ni 4.886720623560556 5.346116654326362 4.421583190111396 -0.6804555642604345 -3.6781448492129756 4.038220647862214
Ni 7.016701859436814 6.300241857432414 11.777117211703441 -2.0771651905371518 0.9358604676621431 -0.2802983242092785
P 3.91538518175404 6.601663170083514 1.5929128274949298 -0.6721976951270165 0.861384093720123 -0.8798651832434459
P 6.091130006901987 1.9563329075164853 12.538673068068913 0.1086116250628323 -0.6498987745195001 0.48397700288128903
P 1.3034986364653178 0.41664795842659025 3.4361210107049156 0.8100944423072113 0.022152624837639266 -0.5266488307182027
P 6.193227326638564 4.679257156282284 1.085499485722849 -1.1149902533501956 -1.4741697654374095 -0.30213238936523457
P 3.3679170582445686 0.4018618675257637 7.426411707564786 0.26471975304473117 0.10053116204754299 -1.288103914751156
P 4.622103890641185 3.7641157514447086 9.460471938805197 -1.9468814798175245 -0.4763678230754635 -0.07446403264684594
P 3.8246589125874135 0.8548655239171121 0.2618163439706532 -2.4060972165937335 0.7057775879649909 -4.451197151165224
P 1.8330114892959495 2.177383895500373 10.823004115367038 0.9147077448439279 0.2690939708530269 -1.1105077920988102
