# total energy = -381160.5895991815 ev
CRYSTAL
PRIMVEC
9.27909444369692 0.00000000000000 0.00000000000000

0.00000000000000 9.27909444369692 0.00000000000000

0.00000000000000 0.00000000000000 13.58089266359900

PRIMCOORD
 96 1
Ni 0.5210350637036553 0.1917088720094143 0.17144240214422546 -0.3669452720755616 0.8869994802953821 0.3455801761362242
Ni 1.0471736292734584 6.322533600990434 8.076121895753507 0.3082271894090627 -0.663718968232044 -0.9143177084943608
Ni 4.0539899051104324 3.7993622783668544 0.27322478754382107 -0.6313402947910224 -1.7824180378923948 0.942262514533745
Ni 4.14684580179142 7.899487840347265 12.983074914304142 2.531116336480312 1.0014822194270108 0.4992213306348693
Ni 8.089811343577379 0.35645733552411396 9.581156658903152 0.794292185167632 -0.43687207897368624 0.589100669395521
Ni 7.530616004556388 6.447021930147238 0.8052611454520311 1.3061376323244152 0.21274644530123363 -1.5872638517516278
Ni 5.893347652235991 1.771360544079862 11.781750475118399 1.5481691997430111 0.058872348856176024 -0.5977269776119511
Ni 6.810214960225236 6.755087860976536 12.202377387288598 0.02346260189831443 -3.2479908056894127 1.713672652896881
Ni 0.8801350852850036 7.140680624699774 13.649883621584157 0.7745029183558467 -0.5552551816009856 0.9787683227692627
Ni 3.2616666008438018 5.990741026030698 0.026761835876649993 1.221126163179026 -0.21076412476388218 2.2451423020424945
Ni 6.497407412207571 0.6450473753227614 3.0312824637832874 0.6275263203615709 -1.057188254740063 -0.47325164604398495
Ni 9.020068384644537 1.9679381568695815 3.608483885297477 2.5513360059612964 -2.026928662979103 3.0478139695230735
Ni 3.1248927508310347 7.165409411014836 9.397270991299827 0.715611286225961 0.45381564880656033 0.6016021442966414
Ni 7.5848987062235995 2.6788374086353963 9.536271823945095 -0.782253251725227 0.8754495706742536 0.41962717585030956
Ni 0.19562001025774411 6.598336120931375 2.4313324146781006 -0.07423134781074957 0.06868496407122364 -2.880645212851639
Ni 7.629438358873618 7.992566435291503 8.17166409023495 1.622065532811845 0.45336930529776115 -3.4338342559522155
Ni 3.708659131563951 1.0703249695571664 5.879915235324289 -0.3304147812496955 0.021729678367607738 0.14614998832792248
Ni 5.2512807220030595 3.1961097995995553 10.194334056935963 -0.3223980815928061 -1.885356780940166 -1.109841876380037
Ni 0.24926616605583166 1.0006389713484907 11.190927343168743 1.854337449740516 -1.9783512682910318 -1.0139839514384472
Ni 0.419103284885796 2.1238362202389505 8.861763324213205 0.20126312725198242 -1.2609785192892735 1.046984317623868
Ni 2.281228217790955 2.050596328912575 4.111125928275535 -1.3890549379449368 0.23925349045282662 -0.7370964526829306
Ni 2.659379147883919 7.120313012706692 2.42452898273581 -0.49824971075021934 0.4969862706567635 -1.2471269581181619
Ni 6.803886617911213 8.589304989858737 0.4816861364062238 0.061708275643074365 1.4555038135967902 -0.2693654793468587
Ni 5.078383357872267 4.902164077981327 12.135383254336958 -0.35788007654949977 0.2365273497709152 -0.028152036954183772
P 6.171998854127672 1.6542119785160097 5.25061726676046 0.03852926642344977 -1.1857267006338097 0.6161273344960099
Ni 1.512343905731397 6.68704426245933 4.339828693448511 1.1444550955785322 0.05946061725947824 0.7719973783251738
P 8.551696820652378 8.664326467291113 1.9315427652885047 -0.4791230172230974 -0.05419319821295183 0.2678667833141451
Ni 7.658277783964506 0.021660189829362395 5.735862863740964 1.8086036951488271 -0.07504047397560624 -1.464995040916677
P 0.8809340153044133 2.258559390410956 5.703513157275598 -1.270241175538122 2.563058436604547 -0.29522100695738185
P 7.694930206457751 0.7346240400773913 12.625897521062186 0.058869006422066356 -0.3878627389545191 -0.31751247136573063
P 0.05097377663908639 7.751412053474556 6.770061535451814 -0.27320696458013594 0.5270324393098665 -0.97107661055196
Ni 3.7461745098272905 4.806598685764129 10.018257675097274 -1.7693077257626817 0.8921069767252766 1.6287547719065627
Ni 8.962667907291824 7.981542871260624 11.950398014058836 -1.086158159609852 0.497831135155562 -1.2668828005888504
Ni 7.251361661535071 3.498626832036205 5.724713104027576 0.3073974944189158 0.7724786888369664 0.21733483600286443
Ni 2.3883089660370427 1.7160385838508174 1.5295891024918262 0.12253029202645349 0.14076121321218338 0.21315036560787162
Ni 7.074845450626464 2.8351159148711504 3.4739110364531656 -2.094888575958844 0.0511595535929506 -0.6267238790649335
Ni 2.25515396280209 8.071540806896568 11.902593048123912 -2.0769206786265135 -1.421222780926733 -1.723574228281309
Ni 8.786170254571822 5.655886349951274 6.196730424171025 0.5931429577856947 1.3050860511314493 -1.0232712902776442
Ni 4.882631584475433 5.047567485695034 5.411917618832503 -0.009475029369970779 0.4567477348516908 1.0009800829796114
Ni 4.004003424105088 0.2264414498915573 11.016494288930957 0.2945995713232991 -0.17586371334227133 -1.8505615276378515
Ni 4.399005189450643 5.950803804154515 3.2401975603570623 0.7213327620907706 1.4464450458286313 0.5411051153528488
Ni 8.901026883843059 2.522790879757194 12.407543729764328 -3.5496146308493444 0.524784009595322 2.605391393044803
Ni 1.144808259520021 9.061508819797657 3.0215858102376068 0.17340239628597232 -0.026804778897669964 -1.7644727662678839
Ni 9.03533249477147 4.383536939249063 3.996476222807235 0.5193798078606152 1.1709012055852028 1.5898213280661588
Ni 2.8480880887054685 1.946522007220364 9.84055188429914 -0.304694750775772 -0.30821639077578533 -1.5213597928596507
Ni 7.489750873249996 1.5097086429496043 7.521220921575525 1.7312204319726572 -0.7278692776577077 -0.1853631681922743
Ni 3.5202656799486727 5.271073030149411 7.877664338458186 0.43560863888023044 1.6362143135084015 -0.3770931591428409
Ni 5.178421273543069 8.123912015137549 4.281743418936305 -0.8441487036784429 -0.11671985599226349 1.4095903388941273
Ni 5.685356753454703 9.146356858095944 6.743605909687133 -1.0189832044252518 0.17600332424392914 0.2194220575491963
Ni 2.6325254489736785 0.8338064232535422 12.66605651329219 -1.9958602237090721 1.9756043016735134 0.6299493279807667
Ni 5.9997695847866295 5.215138649696429 9.668930395634884 0.1436339067742881 0.6509354433141306 0.1910036543075033
Ni 1.7289179667421146 9.199925069501894 9.665222469551772 -0.3728906910257191 -0.5879958663671164 -0.4037251599080724
Ni 4.712703530521308 0.8639467773655821 13.317219739669458 1.0002460330270646 0.5009820220797179 2.7051311695393028
Ni 3.1157992384149895 4.227926527803059 3.137905752680282 -2.112154819238459 -1.056168298115981 -0.6850634953460911
Ni 9.059263278976553 4.865177608093207 9.26102790548114 -3.702374925404933 0.607212034284251 -0.9754983937687393
Ni 1.7679180000937877 3.868575042766124 8.899980202005782 1.5123789295172791 0.9031609205465929 -0.4132683235118173
P 2.5925047152487757 8.767955392456823 0.9243444021778684 -0.17605937429284516 0.1069946582846996 -0.06860114610816573
Ni 1.8778845466678242 5.281975965954365 12.177632826513221 0.8009816813726657 0.42552400095071874 0.6779937329835033
P 3.9303830899123273 3.579800348990865 6.799396464178432 -0.6100466755195687 -1.491763824370089 -1.1858069190524418
Ni 7.35475860934323 6.99164909111395 10.038303302518075 1.506516042978599 -0.6672802032207411 0.5635403044279134
P 4.831652240379765 2.014110930116768 1.9055353197786142 0.20577978417541334 1.157585205202587 -1.3402461439723499
P 8.734940374929998 5.730425314479941 11.507851097418815 -1.7575930084289146 1.401704251277831 -0.16808021274211055
P 4.478360003922093 6.690625992859935 11.139496107180564 -0.10912815968793464 0.7820509059064338 -1.0919115171538616
Ni 8.642947434019105 7.125184537215288 4.226468782088201 -2.340907667270278 1.800183846516248 2.7311964991677864
Ni 1.533583752588875 3.1281125965538594 13.185104922905769 1.378462507141071 0.08928567104071075 1.6396454506771376
Ni 1.0948774530804892 6.392896973083163 10.356285801428013 0.6380069081779206 1.5672611833774557 -0.0953511605085003
Ni 1.2419325395799687 0.8588525545937362 7.125242067599961 1.0787968341487741 -0.0030956082061882172 4.915066327553045
Ni 2.333599426031936 5.331108770283916 5.9178741542952675 -0.15052652012906334 -0.9789205320764108 0.0029752805782400373
Ni 0.8796980399433753 0.1799392687966468 5.212061702025856 -0.8453180413961957 -2.6589248461865695 -2.129909829229035
Ni 5.826909337033045 2.9269418320846063 7.521260821681024 -1.3936135038498967 0.4752015706815042 0.9364163401656133
Ni 5.514593581013391 7.873422864452702 8.755682862332884 -1.511040927432146 -1.8366099505537659 1.1226588256390473
Ni 6.779464041708119 7.1080924455108425 5.715505458751615 -0.6864485486190758 -1.4972567291638599 0.7383344388550898
Ni 4.4728667800952575 2.641628240484026 4.194757477310818 1.8160866337894337 1.5198222731692017 0.39055288419217254
Ni 5.48347149872419 4.188740912565344 2.172263813401544 -0.9120924187082678 -0.412889857126476 0.16229883017364305
Ni 7.796480614499794 4.694247411954456 2.0655041218183086 1.0169314641025453 -1.0383919479691666 0.7443217667867763
Ni 0.5713806456584903 4.021642982373356 11.06118890245582 0.5124470852965239 -3.146523247870529 -0.5859209861159587
Ni 6.088830331898063 8.524128631480876 11.345572728807332 -0.2379432562818354 2.5267657728210997 -0.803639430710487
Ni 7.036958908591042 5.069085705381575 7.625439997138849 -0.1762385801831868 0.31581065818327547 0.042439914331765624
Ni 7.088457881967626 3.8975165378943344 11.583428392599886 1.560043325472778 0.8388866839485551 -1.2823047915708754
Ni 3.2155031066909174 3.1023909471484727 11.625243703162813 0.6001268453026956 0.3449129748658705 0.9753942640907073
Ni 4.776766397582919 8.320730884379122 1.8727504237904793 -0.24774430153265722 -0.9916924870300985 -1.6141061687554523
Ni 3.822560014122073 0.1761580378685462 8.260210775522049 -0.9701435572147293 0.40953945259700436 0.5246310289572256
Ni 6.482542303135627 6.865954479697875 2.735014901359093 1.0902415856506062 -0.04011075197795673 1.696260885178337
Ni 8.909164649545989 4.75792055705538 13.380112512939574 -0.5780418404781981 -0.1425607283147674 -0.34301678628442217
Ni 5.889673130892364 0.7501201275618772 9.267953821468218 -0.6413377723233664 1.845900888937389 0.3988282368270873
Ni 1.3566221451537679 5.121494029999764 1.187578388886632 1.3683421308776178 -1.8278712851291874 0.9978798467877331
Ni 9.125052057578353 3.7608725952017967 7.25651527051045 0.6116759835928756 -1.9507975270424789 -0.6689902439333124
Ni 6.668690213929801 3.86522528972307 0.18881101085887247 -0.4404417986028156 -0.5464936333582716 0.09773457313901232
P 5.355206578186437 6.436137552530889 0.82543946392135 -0.20013467007449404 -0.6520330472536835 -0.22030343171288513
Ni 4.112921433022988 0.5966810241825615 3.246281862490941 -2.3678854814107027 0.0013413445192428511 1.123964431824348
P 2.8581559060232333 8.35570379080369 4.866753198305701 0.6287540221210849 0.4301036499016012 -0.42743870147492835
Ni 2.359450982757551 7.937977523512323 7.137071057016262 0.9211725266326651 0.20832080542971218 -1.438453800093039
P 6.564801474123631 4.842703641693551 4.059057218508802 0.3939076595970184 1.399386658888248 -0.1231941508626975
P 0.8214373905488598 3.3440000045862224 2.4341031522367036 1.3523964061816387 -0.03212439133837049 -1.2431186082897172
P 4.6499861321335 7.015821131770887 6.934757108128992 0.19658860459444855 0.10602638083415933 -0.4787898022533948
Ni 8.389145646668412 1.8762235887877505 1.5229610454318454 -0.3579746931458351 0.07285195096471969 -2.198231239313253
