# total energy = -340875.78970813815 ev
CRYSTAL
PRIMVEC
9.20057121186854 0.00000000000000 0.00000000000000

0.00000000000000 9.20057121186854 0.00000000000000

0.00000000000000 0.00000000000000 13.46596597655814

PRIMCOORD
 96 1
Ni 4.269083476766073 4.2544177661399 13.198262749111581 -1.0401315563680926 -0.24195006344838332 -1.00737904452742
Ni 4.290391999859056 7.672917628301841 11.445909981680868 0.6926497923337813 -1.0408818042705559 1.6434506833558407
Ni 5.57971405669634 0.08873674985962506 12.9365248972337 -0.15853242115267535 0.5049307223148207 -0.59803653843257
Ni 6.073545519776116 1.3489509593267583 6.1499470637157225 -0.22321160649861557 1.3649040517303461 1.4558354859045959
Ni 0.37957232847924655 7.250335389242816 1.111682946834928 0.06030805286143807 0.7357170558369006 -0.8172271966972506
Ni 5.726831191522244 3.444482275467028 4.879002227960444 1.3485693191260646 -0.20230519536325156 0.015652876045908527
Ni 8.879066520734737 4.984289885502265 4.395021816554094 -2.454280718277496 -0.5296266823996041 1.0570375880948117
Ni 1.5055814848599793 2.0370340839186873 5.1876418320710975 -1.8074384711961322 0.33426577956466946 -0.5141427278313919
Ni 3.4571238604107926 2.104676683996239 8.32575060413464 0.08144354928847264 0.7195191059207996 -0.9232242669553714
Ni 5.207900569980613 0.0636688733401341 4.4779318446197705 -0.9390524922368795 0.7504456202963269 0.13841353891561323
Ni 6.705928385816698 1.58635330015933 2.9951401748294453 -0.22878781503481246 0.7596123743972595 0.8928744510189204
Ni 1.8603739147009137 4.978429121594567 5.1732871007543135 0.8124680847457104 0.2724389760658599 0.199522747522108
Ni 0.4026096389164312 0.37736879165680726 13.51282752112892 1.2650400909531567 -0.113343740431179 -0.5398493885688767
Ni 0.46202692826638075 1.5839979539107103 10.688704805148975 1.1117108112679759 1.1266424928771435 2.111846286859105
Ni 1.3484909307625748 5.127874000955241 0.25021873663072597 -0.18675747743663965 -0.2786708159081846 0.6889137223301167
Ni 4.332567418623405 9.105023350890422 7.806463000427201 0.3065084069457431 0.03517706212176522 -0.6083687735965135
Ni 3.3308828218275384 6.276188102298977 0.8373099504131798 -0.9354706884228923 0.35116744041601455 -0.13346390821982174
Ni 9.116183643857514 6.261872013381584 11.564127202047633 -0.2841830039756654 -0.44903853913289116 0.202362016743116
Ni 8.788192478165914 8.457275530806108 7.072298814561005 0.8860129480123966 -1.9581948479478146 -0.9606942388763712
Ni 5.2053704128776035 2.1491246438676552 0.6695964167116483 0.18620854691170513 -0.33673943791614264 0.5216796596383855
Ni 6.23624842235656 7.745924161437773 6.129519035294588 -2.28586214835936 1.2847923338794196 1.0510623443479832
Ni 2.7238015268170517 1.5556693949282863 0.08971293047282258 -0.3998348237147308 2.3540493468585586 -0.2663678301711155
Ni 9.235441448836461 1.4710241391185097 2.6386152774157954 -1.1616367495641413 -1.948332096221122 0.4729060897791081
Ni 0.9384490703631939 3.4727188287366157 3.3684441540931265 1.1366975631203005 0.9467136083265631 0.4064309888750097
P 6.575455084442955 5.5174537908197365 5.374671045125569 0.6485582013312057 -0.4527959492927943 0.2257233171768758
P 2.293223991312516 3.3649525372909728 6.617808994290208 -0.8539546340252713 -0.5145618176466815 1.002626617444099
P 8.387231581623517 2.5885807306609334 4.567063298987465 -0.21901762302192604 -0.30970043152047955 -0.3028654108765171
P 7.626721559886527 7.526150115184715 10.533227111197597 0.17974376512296786 -0.18872257158281047 -0.22298637786168693
P 8.584050202523814 4.571027825153599 8.107723746368352 0.8184374149552679 -1.35061180347739 1.035023802827882
P 5.211507193923812 7.314546176231558 0.17838527633346193 0.01172577307736045 -0.6365791745924585 0.20432376845517713
P 4.738689835655943 3.9899289434482004 9.049761959589306 0.6937445680598568 -0.7160761416775216 -0.4734025697995524
P 3.7825112644291137 8.108987904862728 6.063118512340331 0.052132716139497305 -0.42039902101932763 -1.407885954608511
Ni 3.0789159766529144 8.645979247834205 0.6486761577268363 0.1270927145861553 -1.0979957756747283 -0.27259349936585314
Ni 0.7931343274517602 4.249201042222059 10.4572248720517 -0.36499431899677787 0.15995964051750516 -0.3517009443219814
Ni 2.5062724199572095 0.04529717260089915 11.561178418951215 0.3372258906342579 1.0712940980138261 0.939229384134376
Ni 5.0244411785842065 9.086521002038959 2.1002870914367997 0.14282555194037982 0.3472616776037052 -0.6127707593189511
Ni 2.408718762636443 1.4828468732180276 2.658545554930484 0.7645908014484574 -0.37976016445204275 -0.1948803636540902
Ni 6.1229985904258495 5.766099229760954 12.084008242602868 0.438540982035677 0.24359454103034175 1.0941836010174897
Ni 9.107332694282622 0.766745248895934 8.790084115621838 0.07247297035874616 -1.0792927999485864 -1.4518369062681642
Ni 7.107597726347938 7.036238095471784 1.6056551786553444 -0.8679280654862278 -0.6531751312779267 -0.8312008852685233
Ni 1.0658953837846092 6.600545042333527 3.4480953398101257 0.690649731184617 0.17982449776223222 -0.3503282323441709
Ni 5.944001476102024 1.966024074751312 9.001163622011825 -0.7194849102487544 -0.22867314383381904 -1.7855028474653056
Ni 2.9112263644367204 6.274439993755079 7.023686676126599 -1.0166895232950683 0.573452935555935 0.3044998611561465
Ni 3.316465526626025 7.52307712437597 3.225529840229602 0.21067413615323718 0.2784885246940494 -0.554180203369252
Ni 0.04077417175784631 6.42557777823195 8.961963668000616 0.8458664577004981 0.5440485142518888 0.8860042062616482
Ni 2.501064896610652 4.621364150646565 8.822200549801748 0.8791555587709311 0.4050045408411283 -0.2676076161154875
Ni 6.021396681740267 7.9922694575580735 9.158311219651189 0.6597766957548443 -0.2421837767257442 -0.4405279305587187
Ni 0.5426496943109361 8.36646589223627 10.711489099875857 -1.5517702868307082 0.6191018437433016 -0.6676704966806243
Ni 3.8208040421117535 1.5927200954876306 5.95428679474004 0.025333593668782177 0.7570438423391349 0.5826153187814934
Ni 2.685315537137454 0.17767407217323414 4.600068508353379 1.1642150518142789 -1.6788856271246826 -0.698029825698772
Ni 6.806269816236418 4.559048681342259 3.021641500354932 1.8499416346656656 -0.27867210145976523 0.5758070376104084
Ni 7.562593578039338 7.947941105113345 12.703496507989383 0.2970930271691141 -0.6249269350655109 -0.48980517952729197
Ni 0.6083123314482418 3.0418560755222863 12.596414739047248 -0.5645967707168857 -0.38084825530989896 0.5695124628509483
Ni 7.7850541911072275 0.3523239165655255 5.057736205945557 -0.555383993869366 0.7498295839788828 -1.0031310678843433
Ni 8.1091167128607 2.956345966011845 1.0009292298934775 -1.575421607701061 0.04751630041340849 -0.5070719370275396
Ni 6.753918565632328 5.280382670553376 9.79875286607914 0.3011592268186878 0.42184758054039606 -0.3503135770561515
P 4.347509146388087 1.6814320038047899 12.068347030163803 -0.4582538870835721 -0.0026636628750921864 -0.44509472399379474
P 6.151244344266721 4.141140332495339 0.5719240720213217 2.7199931742527994 -0.5930159452895271 -0.06440176331483748
P 7.701614210135612 1.111622223064456 12.691659973032941 0.5046718122264793 0.7852714697262605 -1.8499436915481948
P 3.9044096333664755 7.124637184365298 9.465079427562744 0.203157773171534 -0.15502260822720398 -1.81644350290822
P 1.0312092300451683 2.9519480929382502 1.3480916259688636 1.4031430406068865 -0.5448915789784745 -1.8236405348772915
P 4.523184854478508 2.2947420855743217 2.8327813736150103 1.235072598056789 -1.5288771842826185 1.0042708379157415
P 2.3543525869212285 4.346184264123239 12.015345299169956 0.2715689147560807 0.26878055337766615 -0.7824507124480137
P 8.005987509342027 4.288984312452654 11.536050738718382 -0.3246547388374667 0.0012513559085978448 0.13638468141104254
Ni 4.199011925869632 4.117044036303404 6.866551959287033 0.7390461202101336 -0.659690049578309 0.0631429512070719
Ni 5.735617737098151 3.156200775435754 11.042536695347891 0.10740243524607955 0.13346005156507984 0.634068749465779
Ni 0.8983723019086497 2.8505669979634756 8.31946201366225 0.5289815926164373 0.8604165876005311 -0.05998975029007088
Ni 4.511766945515472 5.923465800996869 5.2861863909191165 -0.9877602418552278 -0.033262104487239486 -0.4598379437412403
Ni 1.8404454773004817 0.4458661248066121 6.849881444178148 -0.26278011281985714 0.3724813714024424 0.5961269801146829
Ni 7.452490341487643 0.3025672270634308 1.087045657051513 -0.6334961647917606 0.21468120043010122 1.5716708824093772
Ni 3.4873661382202203 3.454768514162173 4.55972400327448 -0.3481577070554133 0.07510886531969646 -1.8238999591862655
Ni 5.217965994964949 5.485242590755602 1.8056378760200964 -1.2657929099587812 1.3900700094730123 0.5563838958887901
Ni 2.811160951155511 2.7291838610179995 10.48185388132096 0.2529248172923322 -0.2024203807848772 1.5693008395153036
Ni 4.46146742230764 0.38714531870283647 10.062120139131359 -0.4079823925225296 1.1742919764343067 1.534808462165389
Ni 5.213669328175475 5.937413867062914 7.913746261880452 -1.3398229403920023 0.5744404962801849 0.9119078135012875
Ni 7.419110668870482 6.295049273430504 7.535042467330384 0.809939919007218 0.5982219149704988 -1.0665684104033823
Ni 3.1948523753984572 3.6235345932185563 1.8711901063019978 -0.6608724999221844 1.1739633894502943 -0.7435740899874742
Ni 7.9415835103563275 7.1582468712645495 4.8278590123658995 0.8451205806734089 -0.7399470347578483 -0.9136201682067039
Ni 8.145182952292691 5.49217982150349 0.1053612621120908 -0.8924052246919856 -1.669304154083835 0.012018621727430914
Ni 6.761131813518726 3.988880078321862 7.19583488518686 -0.8239475461402197 -0.6648219714882356 -0.35605613596688357
Ni 2.0871127934157103 6.658269426567281 10.587239064918387 1.0188186538229291 -1.3773391921699054 -0.06038724283880568
Ni 1.9647267942003144 8.020598016540498 8.418410477589623 -0.05256491858090948 -0.38493836621887256 1.1280398874453026
Ni 8.413738427491774 2.1225257922865617 6.805914674184869 0.22265547688482942 0.3754317122800179 -0.9684954800883449
Ni 0.5824541258554834 8.61659262315416 4.7048335734462885 1.1617447358969153 0.03111754734041092 -0.22670907812891278
Ni 7.351173650511854 0.7602091630560139 10.522494644795193 -0.3290163582402721 -1.0149604564191037 0.7603888475519679
Ni 7.883187484418865 3.0652255265828114 9.632946610804712 0.9247396751586332 0.04160867667972189 -0.10759166843875019
Ni 5.6243184262795785 7.219283461160425 3.6667285152240083 1.5963254477332636 -1.243979927848748 -0.7663509786726737
Ni 4.169671304046004 5.004374732614519 10.861392167686457 -0.799960696307319 0.862875590663985 -0.41955492785147747
P 1.663684101798588 7.467183653827666 12.632449696536874 -0.2069529785479081 0.03775844969569626 0.5587773358216311
P 7.236470128318323 0.533013936005547 7.698613903840007 -1.4836972453118704 -0.5396300734692191 1.1355685917221796
P 7.4935708922692355 8.512451356794283 2.999813144984422 -0.33326613465556154 1.471499160583782 2.363021725560498
P 2.201374688187625 0.775563996471333 9.480349615722254 -0.7501571425216307 -0.3546160610862473 -0.3181056248650393
P 8.769883341311408 5.469794831570318 2.2485874197297844 0.0652653968667134 -0.1627595718601455 -0.21431713222246315
P 3.420965615265964 5.379482023849801 3.1638961332574165 -0.5727813634102071 0.30839688221770756 0.8972324708772998
P 1.6012674262101614 8.642170211322767 2.2814978632114773 -0.25291504710031926 0.14961017896238107 1.358509461057912
P 0.6734118936229868 6.592706155599839 5.921147257033383 -0.12748609336983205 1.365703921923822 -0.17708087357882407
