# total energy = -381175.5587173668 ev
CRYSTAL
PRIMVEC
9.12307326548696 0.00000000000000 0.00000000000000

0.00000000000000 9.12307326548696 0.00000000000000

0.00000000000000 0.00000000000000 13.35253989841827

PRIMCOORD
 96 1
Ni 5.8206667227745905 4.299376006936574 12.431641563935685 1.7131558611614623 -0.5122845915767307 -2.8815893219324633
Ni 4.445208333341478 2.5669956215110243 2.2946071102377124 -0.6665093864929876 0.8380207364038342 0.43428426364185213
Ni 8.503625728766862 2.927347893057308 8.894394326633693 -0.10006682081661478 -0.04978787005640457 -0.39760027795725716
Ni 6.232400143042327 3.0893098130239185 7.27653314318893 -1.0008399578573215 -0.013161219972306366 0.2589532828745992
Ni 3.083160861632182 2.0896673043492457 12.106975105837348 -1.3435644097123054 -0.991779647427266 -0.17567705125276198
Ni 8.084721572899861 4.957423282731743 4.42163978582603 0.779347905152974 0.4037225888049112 1.0529559618262705
Ni 4.646882991302493 2.14202462191182 9.260840811132024 -0.28977978133715254 -0.8804858475465803 -0.7662573905176029
Ni 3.7950525159348123 0.49872283631424297 3.1760748014677005 -0.307575928978309 -0.5769023275571161 -0.6093851306761698
Ni 6.1622345864342485 0.007071294100496829 10.418386384470367 0.6715811445889401 1.1831859364898267 1.3961311280654278
Ni 6.535003360716664 0.5361767013641457 5.599534374118775 -1.1041227145080728 -0.6059560503899628 -0.5806502246353227
Ni 4.927891894519502 6.46480131181546 12.334515501166095 -1.5196060433933376 0.6168097052750151 0.9536103354463964
Ni 4.527872500345222 5.381673559541708 10.435851595960486 -0.37681368022920914 -1.5446061649821012 -2.112320655392362
Ni 2.634342148475116 1.8541277983672728 7.556416259163001 -0.23557347049807817 -0.22129999129819955 0.020392447613422945
Ni 5.561480210846948 5.695443418912612 7.857929269580198 -1.2005280273127004 -0.4945347237924773 0.20722834369648183
Ni 3.5672128838024326 3.9725875219929576 8.130788531434835 0.7647293839088507 1.1400127435364624 -0.030337217530960657
Ni 0.2508981998513915 6.605141548104898 3.1195272563469296 0.2532798866389057 -0.3330805010073167 -0.4640378407552008
Ni 2.5207051476806526 2.4901519752608827 4.089669395258518 -1.2320201843837104 -0.051793073411891453 -2.5034656646425786
Ni 2.949462222691683 0.8122190034867014 5.423267475246759 0.6859250720154381 -0.9989357988560731 0.5725473930225301
Ni 8.03656999212006 2.933989490406246 12.25229106629452 -0.40301373566334464 -0.03128672592842354 0.13968366387728845
Ni 0.6987845349190877 6.714426842944082 9.743402123128075 0.8897495322366934 0.1290629509386487 -0.24932861530064157
Ni 0.3969513046297089 7.169266784466943 7.514783114242839 0.5758965120004211 0.13842510887983903 0.16582664082124343
Ni 2.211533317243629 4.67463538022484 10.414620379819759 -0.8262728518392867 -0.3490573360515472 -0.850275128291155
Ni 0.8345431638065515 1.3978737804857775 13.37937834717522 0.09224141123492502 -0.0685407251838755 -0.5771049304862255
Ni 4.748997550542412 2.396713458711678 4.8071279488775245 1.2595235320103018 -0.08012971557305555 0.7077658220396134
P 6.0710312228390135 8.597191968342008 3.018809439626409 -0.94608754470679 -0.8755976662163437 -0.3146732021447226
Ni 7.498226560851558 6.301653392322254 6.587755707352328 -0.47866690352228525 -1.0723274243743468 -1.1311226401356842
P 6.482043920317511 6.074041837021911 10.46827134917365 1.5828400116523194 0.35735197196017165 -0.09588466441446712
Ni 7.330955012235109 2.808264417513784 4.993369103768213 -0.12063564610690192 0.09324979789478134 0.8391273392044515
P 4.31938290664292 3.0914811044649175 0.2565718391251613 2.693232104108872 -1.1745431732131644 -0.2922557536814709
P 7.761755655661196 1.6988622141892884 10.458563486894798 -0.9317495308175631 -0.9992363608156275 0.5639683931042675
P 3.7297951727521856 4.234246386779888 3.5234412905050854 1.1089669299742515 0.9615871830042858 0.5397912816374316
Ni 1.564369867873298 4.783245567641194 3.2497545659038147 0.1956468095064695 -0.6805039009998668 0.774921236840188
Ni 2.4452847008624263 6.67642011965332 4.867801860043522 -0.2329496597219859 -0.016074279854043284 0.3965726080236912
Ni 0.6710814105924605 5.625405585330475 0.9261652764654078 2.074652965638259 0.4587750496943647 1.1985274519429034
Ni 4.127205367967955 7.640528257896519 1.2146523628512684 3.129642670065107 0.05740939115740436 -1.8398402845656054
Ni 8.155416267758266 1.4696176287715563 1.4086526915678792 1.3246202645096348 -0.21755440821283822 0.048608247926006605
Ni 1.9213101100122976 8.722278426104765 12.03515188681402 -1.1461435390245487 2.0129374909063333 1.6315565030214159
Ni 5.8188786004114155 4.827994242086989 5.267884203423444 -1.1920410728876114 0.5998332253216767 1.2090509771820466
Ni 4.6926078345894116 8.244101663127804 4.827250711614547 0.010794519512342698 -0.47049028124876385 0.5528231751207253
Ni 6.204027385136837 3.8823055887991544 3.2059045141762468 -1.1002058959521697 0.05580013768875552 -0.16745363490170515
Ni 2.9239906020897126 0.48687196412156414 0.6748985044534435 0.6182124991598127 1.3539802057289907 0.1598169442920538
Ni 5.175893518604014 8.200730572747517 7.384862339948212 -0.3267306475298889 -0.1943586868226653 -1.2187617767119074
Ni 1.3227270258659964 8.16420178732836 1.3464971933009653 -1.057961385460662 -0.48924930702382197 -1.507629330647436
Ni 8.98005086167377 8.456578039854126 10.974265274893256 -1.5431858875958067 1.2470405690519426 0.9255102347760706
Ni 2.353616060529834 3.2382166151246916 0.8486310135678561 -1.6050533145245647 -1.5231857903247958 1.3431041822464351
Ni 6.752333212428748 0.769552214363745 12.742555901369476 1.492460079106165 0.015069492738612758 -0.05789250144140997
Ni 6.887090127869902 7.596655398485748 8.765207959738229 1.4302612369799175 -1.3707707949237684 1.7500481062021214
Ni 6.550129416217405 2.7801835979533025 0.8826974815083349 -1.624248913616409 1.814912153865358 -0.14610499402259997
Ni 4.574518774033572 7.694518605576483 9.661965009480696 0.23564597560722644 -0.007501193473051597 0.06557135814290642
Ni 6.838573624158842 7.070108100970233 1.5333924725459376 -0.21516071116968105 0.514658491125546 -0.04133433997241268
Ni 0.968788274836613 5.136764657299627 5.974540125969816 -1.6792291265070307 0.6118243362452818 0.17979930095125163
Ni 5.3326644098734475 2.215875900125627 11.664098250308527 0.4768905283481529 -0.5523004698480359 -0.49763470287403977
Ni 2.8559142292631003 7.937411308623351 6.913811609511439 0.2107168164657145 0.5741332494524113 -0.541493609040519
Ni 8.264145055127278 5.320740553094517 8.653113670635667 -1.6874733687936938 0.2973048860696041 -0.6558267099681607
Ni 2.8990116274449442 4.010311430011993 5.574979622381596 1.5311922055690403 1.605263887873474 1.8172839965316445
Ni 6.679193533930898 1.4541448964861188 3.173658099355429 -0.3885808480674663 0.4175147574929971 0.16204557651225643
P 9.215672475315278 3.4755533665431217 1.061672108530302 -0.7375535948250072 -0.6592028255292454 0.4037961223553239
Ni 0.7678498488894155 2.7038508438069253 5.7277190275679315 0.10358871792694417 0.11759557372899747 1.0236016770338696
P 7.697775542737982 8.375118118523542 6.9485550094894055 0.9553843966276836 1.0732651056972677 -0.7320483487360618
Ni 8.840960486423901 4.799402530422744 10.784993435058452 -1.642855730084319 -0.4721044198134192 -0.36402835553908275
P 3.6787698238887114 6.0151615220630585 6.532049309588112 1.3180238422390398 -1.3227405309884188 0.9382392523069648
P 2.413709744235127 2.605440252319299 9.600156187998477 0.31253250165263596 0.7169575158412104 0.1657165976059404
P 8.74761320060751 8.345614099531144 13.364957505239138 -1.1569745682017818 0.45406350315130833 -0.6333987199819479
Ni 9.013404817590965 0.5494170176175983 8.925772224878111 0.7199590216716956 -0.9897631312178697 -0.33523945633184843
Ni 5.18082910124931 0.7167296200638138 1.152197627780721 1.4126576649655413 -0.9334845112307988 -0.16996046048395888
Ni 8.136321675380069 1.5359971099678085 6.868960756644889 2.2759235490894096 1.056640352656393 -0.7430012482031397
Ni 4.413688115153868 8.902066831263442 12.206958515158705 0.615151857956618 0.02229300707024548 0.32534405159500746
Ni 6.314416571843084 3.561063932410696 9.735884710744113 0.9389627607365506 1.1301317369773247 0.8857830913897777
Ni 2.755669900045891 7.30464406889124 2.746083374641682 -1.0965222764529956 -0.08210920789692955 2.764783591094613
Ni 0.9139677274880316 1.8266855939364965 10.991156645073968 -0.5674329546141001 0.18705264007955527 -0.7028732698340024
Ni 2.904421609900878 6.375988193419981 8.73105208567959 -0.3421454394230624 -0.7247597854944486 -0.6959012093915434
Ni 3.189636249900662 0.527514343283354 10.261880974633424 -0.5099906533362314 -0.3438179420294788 -0.8414449315940347
Ni -0.014708218744447154 7.469917664459039 5.153947053518019 2.0787543894011424 0.9471797493297043 1.4218496158774545
Ni 1.1668958111445586 4.2225506068329945 8.247810192416738 0.8425317369003104 0.018306511618671698 -0.21123437953208135
Ni 1.0261724057772983 0.22086321799401096 6.572280238144906 -1.3839117031811006 0.4980918450161165 0.23338314771497873
Ni 5.162911385324429 6.469244248503554 3.3516474344629934 -1.0183455708412528 -1.5606267087800734 -1.051881754925485
Ni 0.5890175418106399 6.522605104127095 12.06259135432281 0.7741367932656796 0.5216904582716628 1.3544257779068416
Ni 7.170580507019481 7.158145758136785 4.282532989044253 -1.5335856455018815 0.38086136793602154 -0.5852792387669017
Ni 3.064714007456973 5.254233348872323 1.5510976208633602 1.6796744415745652 -0.04717922878896391 0.4896678826184793
Ni 6.653484713423609 0.8101425920078302 8.25833274513963 -1.7056919486842494 0.44454193681411824 1.0514860621489632
Ni 9.215581244582463 2.9346189824626694 3.49162274782117 -0.7561627252857622 0.3295868860317614 -1.3947705002724753
Ni 8.69999988115132 0.8091472647128177 4.561587729964363 0.6580075196695635 -0.2474313982779287 -0.6660314184153046
Ni 1.0501569654343827 4.077074080286068 12.43626148824544 0.019417228184347206 -0.6814778348773619 0.4053814645645728
Ni 1.3937227821426914 1.254705391479073 2.515939254198393 -0.35224447553027727 -0.6685287309158616 -0.8911099029193299
Ni 6.728722698776205 7.629607939178554 12.43862527653268 1.9609189317471971 -0.15643748629685963 -0.5175270709225926
Ni 8.474650848024794 8.549095126001898 2.4322587768310893 -1.2012607917136666 1.0848782644561636 0.6706558045611933
Ni 7.868988259012042 5.491989761661703 13.231458661603504 -1.8061968854795474 -0.5132173878036451 -1.5963573294124636
Ni 5.450890316528509 5.245165014030504 0.9267327316235175 -0.15216945504912502 0.37348538718692453 2.896038150367941
P 1.5232430535202601 8.86260953932092 4.046060192665582 0.10769682655804678 -1.0294406523131496 0.20975368122149682
Ni 3.4530923601240486 4.43330272270911 12.308999177505044 -0.7536155333838762 1.9364893379499228 0.47592456489045776
P 2.6060606213024413 6.666402985190224 13.481258443431802 -0.7693378292151396 0.691207660570616 -2.338659751776366
Ni 2.851060754277338 7.061915581163439 11.139703998087448 0.6756262611925914 -2.0593500167326018 -0.1793215899838847
P 1.9259811235324296 8.609508117272044 8.716524503786117 -0.6656884332535891 -0.3386790781410167 0.49941262071006887
P 8.124197110988947 4.024342716718952 6.793224651491122 0.9575448946141123 0.3176723939823626 -0.4691278536835985
P 4.694788249103691 1.1397546681320725 6.882766703441796 0.06727111444283253 0.7894705954092727 0.09806033190954724
Ni 7.822250754590876 4.932763615651828 2.1277406260749627 0.7591063812951184 -0.3116819807268825 -0.5556745285265915
