# total energy = -340887.09156485496 ev
CRYSTAL
PRIMVEC
9.13369402847827 0.00000000000000 0.00000000000000
0.00000000000000 9.13369402847827 0.00000000000000
0.00000000000000 0.00000000000000 13.36808445862187
PRIMCOORD
 96 1
Ni 6.687827655615922 1.9206422802736516 11.454429387920023 0.20401163653139706 1.7544863444791334 -2.3318820667329
Ni 5.069309701110608 0.2428165113747364 6.1166475427286295 -0.8868891799697629 0.9724740051201186 -0.1734620458793142
Ni 2.952731419978913 1.534561040469926 4.692826146823462 0.3496234929676624 -0.5860364286479005 0.8381593188642276
Ni 3.9380469133857385 4.4708792125679 5.034433604444733 -0.7135567176897776 -0.6964650523148135 0.23984278729739342
Ni 3.547471896198918 2.9429857686216723 2.7904676949349314 1.0871783733442502 0.12362635330410966 -0.28025512967616895
Ni 5.537530249869975 4.533006598258577 2.6564791459983637 -0.8393152868455416 -0.1685548383856839 -0.21133928054106182
Ni 4.97926974695908 5.212270277533791 11.490242601576764 0.22026949315115613 -0.4229904358955877 0.47059338248553145
Ni 5.5426359847422315 7.892634946366569 12.390610175163516 1.2695508343393167 -0.09344520173503908 0.3476887378387947
Ni 1.685321791456448 6.822933255312556 0.018522217795078674 -1.771039620852124 0.31844218226885157 1.1796537549668524
Ni 3.12235324880302 1.7044660138039431 0.18508791265092595 -0.3556601860800455 0.07523793469839299 1.0160431479603211
Ni 7.93525276195503 9.678518707310575 6.828484714445575 0.8946163734106916 -1.5192244916842028 -0.16108089860614194
Ni 8.955952185406796 2.00968666179356 1.3320725276309213 0.7437093300137579 1.0358450131775967 -1.0218283871835305
Ni 6.879671761621067 0.6146692828707678 4.625571105395244 0.580763096064103 1.3232799484316566 -1.342569392788888
Ni 1.131591600704121 7.552094304189089 2.434996203391301 -0.6182842329380127 0.4714986679086203 -0.18412595335106355
Ni 8.099403508152157 3.7319999134157307 3.609302436838883 -1.1281494164399732 1.406084639733714 -0.341432729626754
Ni 8.044190328719615 3.91958771807835 12.593323376871673 -0.9149730826901726 0.1279766598530054 -0.16646427440524234
Ni 8.076395733298463 7.684870811949363 8.841744477280328 -0.20814365642189958 -1.219572445538661 0.34533772110811495
Ni 7.056838021580208 0.7416458950248107 -0.015077901837425845 1.055718355062756 -0.9094166716483177 0.7366519089463442
Ni 1.9653334443701653 6.805780178228304 9.096954497864662 0.6315943197833574 -0.4040257218676268 -0.6753434398448498
Ni 0.23250000415074049 4.861098015693866 1.165940683233808 -0.5809903815835608 0.023346645145740436 0.5664803608928437
Ni 6.472930106287745 2.3809256490616564 7.031144027359913 -0.10530544350773477 -0.6319918123320922 -0.05727877911681103
Ni 3.8478425527445843 4.278815897909921 0.5565671160677528 -0.6469420058840213 0.04220851504724989 0.6011264902118034
Ni 6.352420149392303 5.693798618258949 4.684096162224351 -0.2461291345267374 -0.8911258437589299 0.3183465372312518
Ni 5.559378045602421 2.933806406284252 9.43965891211949 -0.6607593713830878 0.3600601149199541 -0.4101511180390742
P 0.053320678063075236 5.840896758004371 12.314545685999535 -0.11388881430137159 -0.31950147677130136 0.3344845804436949
P 3.489564277075293 6.104056745731482 12.923288114919306 2.787587733473322 -0.6323682218349045 -2.19562671181087
P 2.5488394771324323 8.659801295428181 1.2289038019134149 -0.20328401433675314 0.9258581050337925 0.5682875893049116
P 6.726919865371304 8.010907148264332 5.856397549867889 0.4645448622986064 -1.1733722928335146 -0.961483567546886
P 4.947959444379303 0.9975272421084482 12.333688994977644 -0.5301918108744545 0.9160948549994418 1.391416753308894
P 3.949436629639234 6.271687429292347 8.024633263409283 0.34228376477313954 1.1250473804758818 -0.5448987780673261
P 4.961742188426236 1.3175444741643538 3.4130723310382867 -0.7153444057178197 -1.256101136592314 0.7096640675035907
P 0.6552082697348524 5.771517219382439 3.431814670855586 -1.4846950904487655 -2.167843885270647 -0.3057651010218153
Ni 0.2925787023068078 -0.13080728336231554 4.642441951338974 0.6349915183903644 1.814762001440739 0.7611313821449471
Ni 2.0569352601731357 6.67908671058417 4.8121761245976575 0.7337396203955557 1.0180758621196337 -0.4789569239588783
Ni 6.085743689525982 5.790615773260593 9.274108884021773 -0.6316447134053186 -0.32353939428610085 -0.59974400804198
Ni 9.079247918932003 3.0703916643875147 10.517126069700145 -0.28778923326968503 -1.0897219657017105 -1.123428613925536
Ni 2.393822424803385 5.357039325342853 6.827749452089194 0.17513583403731128 0.2216280640615796 0.7230428028033418
Ni 0.5806234389775009 0.234076479712371 9.472704616534202 -0.08127745602425356 0.38779846137548696 -0.3197079363551526
Ni 1.7765673931985637 1.5438956756031033 11.533969247600806 0.5052325698259557 0.04460735429672963 -1.7330068344491187
Ni 4.220497262562233 6.816165188156309 1.3639993545467939 1.2383983199959123 1.1628693364196618 1.1131935664610895
Ni 5.6903552156706825 7.567749455478977 7.728009248088303 -0.8341841362665633 1.7919174927423978 1.5368134084105598
Ni 5.678664087519541 2.9410128907461672 4.595545913542706 0.31484829427000616 0.23925966110041372 0.5691656210344908
Ni 0.6414675406797133 7.827447773230086 7.171135239906582 0.29416094112398367 0.11309434342453427 -0.8271562828855045
Ni 5.406361272230484 4.613684516195325 7.11111225728311 -0.7894957922202532 0.07885650528758678 -0.03384034558821269
Ni 0.6735962222300702 7.521386825404606 11.093878649216354 -0.2149784199555459 0.19586381061328204 -0.2309390570498603
Ni 4.699760447208107 0.6277514725980182 10.243829508518239 -0.40484924621018664 -0.44577940876564515 -0.5760626052646401
Ni 8.362481292634454 7.156523156456428 4.356177371603169 -1.2060024201637103 -1.0140348592810406 0.41358148387686194
Ni 7.1869474907310025 6.173966038597762 6.900418033873024 2.887722431413394 -1.1301003695187568 -0.2524190813005072
Ni 2.4397831723475614 5.428117731024249 2.1622878520945004 0.08025492829701018 -0.29066064128020913 1.1422562881550007
Ni 2.2643340468356197 5.581189306559396 11.241837182924149 -0.3829331628633857 -0.8683155307326336 -0.2818543558424888
Ni 1.3180650947148345 3.3444116141237714 3.6154923411732804 -0.09203340898917699 0.19033696725778187 0.5459465026055501
Ni 1.568647985985599 0.8186913429102227 2.76755399712808 -0.04404094027029835 1.1083832895566395 -0.680174542684906
Ni 1.1517313956832365 3.591222289827019 8.148970238035451 -0.3611361215929522 0.14475027976691845 0.3228631941546827
Ni 3.4978668048013772 3.056736792054736 7.292985109692472 1.3823744406009677 -0.15960894204630577 0.5500877784674333
Ni 4.30046275237727 7.008465978854858 5.862413000649407 -0.4060833757276039 -0.0716551024431411 -0.41653465296791486
Ni 0.9046129144966346 9.117773839667562 12.900428305906276 -1.240753193381334 0.0026649484266728293 1.5639241485844229
P 0.35777135565961293 5.740627066720593 7.888212411795646 -0.4038040927751239 0.6770066864798857 -1.4767886911174952
P 8.677831207123772 1.9577342110719231 8.379262628378276 0.5495897557850923 0.09108441481234636 -0.2676767787905261
P 2.1857477447946625 3.338812659782639 10.22631747726497 -0.5659445429940316 0.43131901036594106 0.4868183289848262
P 4.1884288633914055 6.086410449178351 3.7579158563970196 0.30933713464378987 1.5559138766854366 -1.3257397228260588
P 6.902560798454474 4.180254207379474 10.633535911418207 0.19826213564212952 0.17528572935161424 -0.30066531790140477
P 6.077413760718293 7.96331146951777 9.99474180293368 1.0990363011241007 -0.4545782380041977 -0.05811130232043541
P 2.1141578522566546 8.687796067133846 5.704027442021811 1.6469304143743249 0.658894036039575 0.6392734335951699
P 7.22167379481744 3.955921552285571 1.3465001104649401 0.5886543258867216 1.0698938752321898 -0.08322429533797925
Ni 5.557533039441069 2.991832763428162 -0.07236351640863445 1.2889544356769091 -0.5203234027208071 0.7742159832430473
Ni 1.3487725734993181 1.3646652008297766 7.069978666948214 0.012797408874984411 -0.7196345484527413 -0.9492150345921782
Ni 6.952375964810981 0.7088760281649146 9.010329631850407 -1.1627639211900491 0.9570175613557325 -0.2802530727936399
Ni 2.661357451893305 1.5594960247297833 9.013764814114193 0.40265506677234525 0.7789866651588132 1.3862246675849934
Ni 6.672629189019438 2.123702562348798 2.1572213921058765 0.195673806089663 -0.4321836723590815 1.3953852510383389
Ni 4.156908485852663 7.2439874089371585 10.596024744071391 -0.7653842438840303 -0.659172229401626 -0.8890216529317334
Ni 8.375487672702599 7.382591213385267 0.5471785921407538 -0.08057348797869349 -0.22594906003443668 -1.2309822300374993
Ni 7.676129866917611 4.071974266573391 8.25334826482109 0.5485088640160876 -0.27865693195111363 0.15756285815055446
Ni 3.317111003152082 8.528230435258495 12.649309266805457 -0.15375171193458037 0.26912353853938165 -1.198132016276698
Ni 9.057272251485402 5.285915251192117 9.856234815640573 -0.03354261184213578 1.0976165379584386 1.421632614770642
Ni 8.833770762533494 2.429489499358236 5.563930278626271 0.3048068508736041 0.32979231717434815 0.3484942644592256
Ni 3.8208159525889367 3.161034442334337 11.700763284803358 -0.4014571898095021 -0.6988237823549771 -1.3128024459391001
Ni 1.3485716322342205 3.666675734871225 12.641034140160976 0.4235164836023868 -0.03065012078568915 0.44554081039227783
Ni 3.4018351474723882 8.741703128343252 8.038309143237958 0.00789997157336704 -1.2932846876211468 -0.9861275913478115
Ni 5.901718025471913 7.743956677581969 3.5247490925939093 -0.39088172828650103 0.29703929111304334 -0.6976809269997855
Ni 3.4707123329315768 8.440747915390029 3.283308115515706 0.3073496719001158 0.024599800826551183 0.5364565608372438
Ni 3.658071795247494 4.671254188645831 9.306165409390573 0.30918826777075137 -0.5635043089836553 0.5087709219965173
Ni 7.224039421529273 6.355470803144241 11.247679093522175 0.941659076621791 0.05553017185682049 1.203611294223714
Ni 8.17839169272331 8.891376969759472 2.391029341218526 -0.8432832703543541 0.3329033519995041 0.18552643324301596
Ni 5.114640223777888 0.6273377162657943 1.3073074300770104 -2.2077726031447846 -0.5726700346433233 0.3654954270029125
Ni 6.27995342224296 5.58996678636662 0.27478992012933595 -0.35338090312756565 0.5750724734372289 -0.3218545503845102
Ni 7.7345763739794515 8.90261141321721 10.978458899913592 1.1742498103424615 -0.2126541426977434 1.6499776858410808
Ni 0.4159210176707419 5.110913676679712 5.578274744846091 -1.6191067072938374 -1.4357459142435727 0.1206050499792826
Ni 7.44692895299202 6.064827530568079 2.406415961908693 0.5003996672136866 -0.005339924155674675 0.015102145748761089
P 8.687686462807429 1.6518650708176723 3.507665431583053 -0.05805628071278388 -0.6759944431652873 -0.2737718359446704
P 1.8823173008031895 3.302104344126827 1.4686175974811646 0.20008067690810702 -0.411404273719885 -1.1315651269897415
P 4.822846105774349 1.3692685825392887 8.007709442041119 -0.8162139249413878 -0.40795950970439415 0.2871551992301119
P 8.748544265050443 1.776275114994785 12.200516084903494 0.7792646014105482 -1.425645849695093 1.2718213755410483
P 6.30139933544521 8.03575079558551 1.0752166154115599 1.6733595551001308 -2.190919021922556 1.36049666669127
P 2.057602019825506 3.3101693958123413 5.8434039569711596 -1.4771324476101593 -0.07951085104213403 -1.0655589953022617
P 7.285984133342589 4.010111758004887 5.902825029168725 -0.10352803989233783 1.3293842615571814 -0.9043788521140942
P 2.5720299258634864 8.61900108491947 10.206118313275713 -1.2031636651633346 1.5571580335051827 0.2064135611046703
