# total energy = -340860.72951263475 ev
CRYSTAL
PRIMVEC
9.37044606841296 0.00000000000000 0.00000000000000

0.00000000000000 9.37044606841296 0.00000000000000

0.00000000000000 0.00000000000000 13.71459500032540

PRIMCOORD
 96 1
Ni 5.850587989360659 0.758976153821072 10.67738820518404 1.0152936713888063 -1.5615001125239623 -0.041045347977084146
Ni 8.560989542171944 6.099982414003952 6.765574575448164 2.463860648656447 -1.2880658624243688 0.20792948352856447
Ni 2.8369213169117447 8.638529984175449 0.18703129429091583 -0.5014337649051558 -0.4248619418866877 -1.571416857417042
Ni 2.408373332067246 8.038662132122484 8.02724892869526 -0.12682017765105902 1.6885388339437306 -0.4636984551379111
Ni 1.0180521234405604 0.805605368020206 9.873109692340595 3.471951374538911 0.23859965891891163 0.3698202796305115
Ni 1.5031413804360125 7.220144289288884 1.881889192099627 -0.23904754508960765 -0.12102645378741737 0.05428112994106781
Ni 5.376265375007144 4.901961501545955 1.310791420902657 0.7830436088370063 -0.8055330481887739 -0.2999181553227351
Ni 6.964902706239526 0.8295487320573484 7.4980023811986225 -1.703409580407976 -0.7755593846448192 0.6926081404625685
Ni 5.300505317774718 8.051911942997766 11.837259220176314 0.4109255343112536 0.2637293641070038 1.1638967492429115
Ni 1.8359046645965462 5.525630286854375 3.719974359518435 1.3423048262735915 -0.41694063015708194 1.026024170432433
Ni 0.6270562015965496 3.2147658175651914 3.905080027122738 -0.6007361967519202 0.13048502809715593 0.9475646434729488
Ni 9.387500375583064 5.565332867249403 11.923331453411743 -1.2029050121853089 0.9506684792092531 1.4449129254548212
Ni 7.580053755985267 6.453445013739802 10.032610615802957 0.6843327878276537 -0.09148704956740372 -0.017498928115711798
Ni 5.606084937614749 2.1785912512442955 1.8574360757911867 -0.4002845096576397 1.0773778423140608 -1.0138921630555893
Ni 3.282551625112423 6.319831821893523 13.50830025497109 0.8661722591373857 0.8555685154796103 0.12610669652380216
Ni 7.354816341551646 4.4079609502489525 8.174090379390645 -0.11077726525558343 1.5346336271504215 0.005406772837868107
Ni 7.366641844610065 0.8451720769458608 5.075662399124583 0.38019288111408717 0.19732265454699566 0.5425536748739173
Ni 5.540688593839225 7.81349968125817 4.252676727560195 -0.49701840944627956 0.5751735177914674 0.5744782914966557
Ni 1.14228549867711 1.4831073665383099 5.97799981993589 1.2533328298185575 1.0508466287927516 1.8228164963140996
Ni 7.726513829521793 3.645234743873221 2.801082171469956 -0.3479427628311298 0.742581644167218 0.18700867421549727
Ni 4.379962057112218 1.0259139277717917 12.598432743622741 0.22604650484424943 -0.32661314811541814 0.6259186095548187
Ni 9.055036945699765 5.956727033055364 3.5141731245172814 -0.269977916119877 0.42785419174579215 0.22848391064114842
Ni 6.298204832148014 3.8268902132000995 5.007912199272773 0.5712086196064485 -1.3581477068431191 1.4203738026628765
Ni 3.2883425608415067 3.666749288264767 4.942383732206343 0.09461222545994673 0.018981683308825374 -0.06274571576865323
P 8.15618626790592 2.1198854060295584 12.257254798807326 -1.0466500742129006 0.39170165308463506 -0.6436198834893238
P 5.760228777005398 2.5952200285687392 6.9072594696197385 -0.27871632443413935 0.4536068752298639 0.7246769959726552
P 5.029746275878496 5.876197418725683 7.329298742559024 -0.22263413672859075 -0.27301901693904596 -1.0230566031636767
P 1.1799453218084792 5.82958881950811 0.11898779947418585 -0.03471246378052086 0.3641240005766826 0.6052286853056351
P 7.58434542032818 5.113977216442786 0.9138471398340151 0.3426722584608099 -0.3457475549520239 0.5751352083543643
P 5.910465140345842 9.038507478667237 6.021131983626781 -1.3357827088843575 -1.2913329632114148 -0.37534249500032135
P 9.447096413183342 8.846928706853141 6.171718801653743 -0.7454610225975419 -0.5775409895823795 -0.40558329616273375
P 5.024695605396334 3.5900334455236576 3.4609742905128718 -1.0022530361547641 -2.236541190637045 -2.757136101851684
Ni 3.6753232465044294 1.5774583889592495 6.441416171999633 0.28971524664780424 1.7019337671933978 0.5236740643605949
Ni 2.633310892223633 3.761400164962941 9.194827135657066 -0.05463491373606075 -3.014058470339183 1.7022255874022039
Ni 5.966106849665093 4.791043530307832 10.301429975343318 -0.30966212208337635 -0.7355111104736817 0.4582461737740882
Ni 2.7193128471128354 2.5991649864036 2.7917295291541016 0.6797850205559712 0.2288790891970381 -0.7532756335459543
Ni 4.215548208726301 7.066684492468173 2.0524847238196493 -0.06443235944245677 1.4800082264960577 -0.39376110671682507
Ni 2.822659497850798 6.317386135444831 6.044131743735253 0.6598720836821281 -0.5061633091703411 0.6661964832382592
Ni 0.855474882502701 4.240782820244782 1.6728926349566977 0.18022816095855412 1.2003719613508101 1.7537643787114443
Ni 5.129119857443107 1.1516746857330025 3.808077168437509 -0.37361471367593724 -0.5105398409714821 1.5643182986990478
Ni 6.3492175410624645 8.398374819449431 2.1623803793813274 -0.5869807948390406 1.759470427957286 -1.2153442663899263
Ni 1.109835643612683 5.403861338958843 10.153956956576511 0.5630571941439076 0.807196551934126 -1.7885712019779842
Ni 4.114769060237155 1.9438240930623285 9.94265620672196 -1.2462157591578022 0.25757414313888544 -0.5851252296875407
Ni 0.37221848477684194 0.4267104403518237 4.272535514114639 -2.367096924071136 1.0189760053364 -2.839509619153594
Ni 7.713957431662616 8.057880917203956 11.877388155871781 0.3214233763843626 1.094545869452915 -2.0334705778626785
Ni 6.852241832014981 6.2211235420065245 2.9421504902839675 -0.4467931947421402 -0.634120942859953 -0.580915048260935
Ni 8.727849077006553 9.31529171744663 1.1015709100964184 2.003126932573815 -0.8728990363382579 0.7011953679109473
Ni 2.1771200911966155 1.6928835448020478 0.2585587209912594 -0.9374666358069983 0.08413009498170027 1.9311381009403386
Ni 2.428585384442056 4.189498368391589 13.184498865521391 -2.3714099496241934 0.6799182036997258 -2.834900402516356
Ni 7.313970566724664 4.422072842171281 12.402944621669208 -0.2852150447846056 0.9345394348578743 -0.5381666015498151
Ni 0.18594244844670954 7.873470536704989 10.181729084916086 0.9645069277542422 -1.0927872348905954 2.091210355776308
Ni 6.616040995569987 6.017306967502814 5.556934136352999 -0.8764648993126454 1.2457336773150611 0.36887874165284856
Ni 4.618739766252191 8.90532532734448 7.887606791787344 1.338195174980592 0.5792119495268993 1.7526654892203104
Ni 7.718192873328547 1.1056002019467515 2.8941363241418587 -0.2671635865995334 0.3868312123662112 -1.163003805114997
Ni 7.100436839549336 7.211504737926076 0.10809746694289017 -0.8912690542050133 -1.3325711439255954 1.0226699092482194
Ni 0.6535726901502069 3.138106197501063 10.553010525076573 1.250060586825189 -1.9157060826559849 0.9831265997379584
P 8.576610075926608 1.7362687105393557 8.377642707312543 1.9780226813070192 1.6985609940664232 0.5643921109052473
P 8.363694798198075 4.562470237039982 5.172514393626578 0.2715244346713905 0.2592150211764181 -0.8558634210122098
P 2.124814260711594 8.979239406682684 11.69719166501257 0.21645449028044011 0.10906542477079928 0.06368571108441935
P 2.8305868953051747 0.9484109675529423 4.176122056493099 -0.09998480262576974 -0.32930149358085864 0.888277061456225
P 3.356165850173393 7.1967275443261345 4.109701522951899 -0.5429367692449488 0.7358404687886423 0.021385664764627686
P 5.219891369429565 8.89394023525575 0.17354722226154526 -0.985016874782136 -1.0455470709567092 1.5691062070059945
P 0.7683578445200336 6.683180242331934 8.275798139094599 -1.1803831769337092 -0.4869137169121098 0.16029028438404652
P 8.285301645593687 8.109802559396272 3.0363290964954976 1.0690670084555203 0.20095768019642163 -0.30277516515555597
Ni 9.226188144877286 8.879640934410148 8.272396667137224 -0.10589602590388215 0.8230600013289439 -1.2338778064177396
Ni 3.14325057244486 4.930616325914138 1.900047242675384 -0.21162621565386136 -0.5506271959106711 -0.6610038832937262
Ni 0.24061150545418267 0.5973181536518585 12.45538913475745 0.5523218100042746 -0.5214855413497084 -0.12571254640917706
Ni 8.089440579882844 2.788063810614915 6.535031614396733 0.3770617916842732 0.18363435842662568 -0.6024758051508463
Ni 6.993698087300164 0.641083759503407 13.658817731696441 -0.6019489861130988 -0.06953317100413187 -1.3352726020171586
Ni 7.434868063126984 2.8744218424583337 0.46021821878811714 -0.6975107199705084 -0.04398746132454359 1.2838266275320405
Ni 3.749977591089555 8.313975210854197 10.27738822162146 -1.9376692171906371 2.57576097177288 -1.5140450043657925
Ni 8.298401529330352 0.8457802189018763 10.245721735856307 -3.145719006801679 -0.17331163634437893 1.7018327228391594
Ni 0.04699934682259485 3.7080542149537634 13.395950479559174 0.27722354193869675 -0.848523692817687 -1.499675880128314
Ni 2.4442340295352105 1.956689715644904 11.82165180504628 -1.3438677998853372 -0.3017428672362997 -2.0892935983695695
Ni 3.9525478962535114 3.9163311218313313 7.277362107652847 0.7315271861252692 0.2663801714662896 -0.20707459172743692
Ni 1.3793015639383326 7.942137166191596 4.629773466609789 0.9448127917594245 -2.126936605533324 -0.08432627015290639
Ni 3.74210641631216 6.286566738012866 11.022502674432769 -0.21286703003949792 -2.8649321729917565 1.0991165195427328
Ni 1.8047010788718734 0.3136269590053004 2.2793797701796046 -3.8708546875783076 -0.44496411195320146 0.7528699134671034
Ni 0.2279154879471679 7.594765356462064 13.147962558885034 0.7010639845394055 0.9427556521200797 0.4492938496768069
Ni 0.5966050626988112 4.203778928344862 7.872877387462836 -0.5069837481891075 0.31481049905353525 0.36683420041899406
Ni 2.6530075700594473 5.757305197802366 8.58367726642317 2.6580491284498353 1.745968536816109 -1.4924030006159845
Ni 3.793943724489004 0.49030203619624374 1.8152634457874446 4.52402081999517 0.2740222613925797 -0.16269760827395852
Ni 3.664059970215824 8.82511430818436 5.8700391615069885 -0.8005528213653632 -2.0347756698273476 -2.7050792332554443
Ni 4.665338995023602 5.567975333067528 3.858984928354927 0.3424403449556619 -0.1389141327011156 0.6673483374545153
Ni 6.426233238080807 2.608385505428549 9.272341340411312 0.10946625975364373 -0.648792943049831 -0.2864484029710744
Ni 5.656872755821273 2.8908013823522456 11.725951438377786 -0.48014143118528285 -0.47366019433631323 0.311056945548374
Ni 5.2433924484077865 6.724204055636023 9.219513576074979 0.10958015962368871 1.2206425386743882 -0.5412172154506808
Ni 7.327998124631521 7.761137628096168 7.384006218395768 -1.9720191554254167 0.6678594727629789 0.017999007680581904
P 1.375197308518691 3.6431919866095637 5.9884235042482405 0.5547445605131544 0.5371754412811394 -0.04038071780989174
P 3.5390019957168803 3.740119881725484 11.283614842003601 0.6816153888964905 0.6669068790417224 -1.199815831737024
P 3.7366996688757825 3.163575070173634 0.407231156867004 3.903143886629317 -2.165098718425342 3.108162131593828
P 2.3029089604963175 1.0157657345766502 8.146113038280088 1.5760317304812341 -0.20854783383885375 -0.40984387121130056
P 0.07682079173814166 2.235366784549338 1.8886640246758848 -0.23171964396962674 -1.1638766946382537 -0.2592512737309922
P 8.50471064251357 4.3221276633906935 10.140585329901104 -3.179003479886422 2.048203256087163 -0.973853916186781
P 5.782146250581978 6.026949156605123 12.153655146022947 -0.014463226613181543 -0.46042466948264577 -0.195439835701986
P 6.7599897895346786 8.53469607023698 9.472355387861848 0.13205648634933387 -0.08176185185983983 0.28881356076914133
