# total energy = -340887.66046917567 ev
CRYSTAL
PRIMVEC
9.10171650582034 0.00000000000000 0.00000000000000
0.00000000000000 9.10171650582034 0.00000000000000
0.00000000000000 0.00000000000000 13.32128212187284
PRIMCOORD
 96 1
Ni 6.523837133974406 1.8216083822655853 11.331654895534694 0.4137707170695325 1.4820088018658542 0.23166436525165912
Ni 4.835377758270076 0.589725678605657 5.936735480154558 -1.297377369633282 -0.4579047312742695 -0.8338501499659122
Ni 2.8193385141436975 2.0306019900760686 4.519018485602262 1.720082927298599 -1.2445933930630309 1.0621360856636417
Ni 3.286620624804364 4.375668275503249 4.639283102684531 0.2503660554262204 0.5251722461726761 0.2813452774165542
Ni 3.878796485416056 2.6771788085260706 2.2573839920640983 -1.2594903647795213 -0.16617631085117834 0.2266823386560354
Ni 5.0319748285908865 4.604021233710601 2.2858787350295313 1.7265942460545554 1.608902770177642 1.3009943975605789
Ni 4.942341127270548 4.799507894652747 11.206554536625507 1.1848787508112175 0.4045746523925613 -0.5408647172072685
Ni 5.870634266117295 8.020250297467202 12.317044010392065 0.1508741332764692 -0.10606083361652058 -0.491682856165979
Ni 2.418844797094795 6.474988223029415 0.40072308029761006 -1.1114932959405308 0.49995975146279054 -1.6455337911371144
Ni 2.542437001626567 1.6087283416297782 0.3460272268538194 1.705982740451791 0.9135990851607814 -0.6252683775653297
Ni 8.332038688250059 8.684083969867586 6.745910818162576 -0.8473810945728116 2.263060319973496 1.6525858128878894
Ni 9.048471178677477 2.4928235465192183 1.248436905118238 -0.8411744515414674 -0.1513014506218749 0.35072598200322175
Ni 6.994341252176441 0.8601349369440913 4.862480848825692 -0.28454655796267125 0.8770225715883283 -1.0492353184415737
Ni 0.9305230593202942 7.439670023317951 2.215342254678966 0.031005704352894986 0.8346998995607173 -0.07487386649075493
Ni 7.817700704739456 4.188254836846961 3.7224990839961465 -0.24480038841298488 -0.985783063524199 -1.128818931703172
Ni 7.887947750514272 4.029775754049464 12.43778737774743 1.2731817462236847 -0.696672283229613 0.07682790489333219
Ni 8.510050054052577 6.948359381840295 9.126596670011075 0.5396002486725481 0.7606940374972125 -0.22660520556119684
Ni 6.678884869757508 0.7157798973745488 0.264459466446364 1.5810222417172901 0.6875849762163643 0.6771624953314594
Ni 1.9644871234644778 6.772951106876285 8.955883970444216 0.35003229837030686 -0.7057660180007652 1.0419490691928055
Ni 0.427260044104432 5.124511977384946 1.2571982171502198 -0.6760276103960681 -0.3168013042313189 -0.43637894138735167
Ni 6.440328887669153 2.0853488131306834 6.943185056170047 -0.3851890487770979 -0.047110580334557575 0.41836527841875043
Ni 3.6056630834134085 4.123796482587148 0.4021584209452763 -0.18977569543767314 1.0752142590038385 -0.6466959513114863
Ni 6.46909941263601 5.924516426131147 4.474684936073298 -0.776158965902031 0.6476259193249234 1.0881620774137581
Ni 5.567929388120558 3.2627832300279658 8.8478484192732 -0.4244472229467723 -0.37490515035258665 0.6160239761489262
P 0.4548719205966654 5.843975339313145 12.453840074642098 -0.43912873621834697 -0.9985858717158221 -0.09083476069538549
P 4.268932449408243 6.413096552743234 12.536977881097254 -1.1471010178418115 -0.19178681233043102 -0.8944803620534596
P 2.4872168893285878 8.673680708229778 1.184318955044998 1.6440749472034009 -1.5150575047907067 0.4017356402818694
P 6.7019850255202025 8.045553068554788 5.587358821732311 -0.8641395449780731 -2.0098933047633705 0.6736380271179688
P 4.906088991572038 1.3746595056371729 12.574584352169083 -1.3137061887002923 -1.3990053642894293 1.276881306562459
P 4.181838126912879 6.228832307898568 8.085139162904154 -0.6621184565141436 0.6464432118707318 0.053695175530610754
P 4.861927464479605 1.519231166052717 3.7657531699815907 -0.32358207459857824 -2.863696500812442 0.05502083632056976
P 0.4943360519487025 5.725871469661162 3.458564786575593 0.3403163566341236 -0.3859801772198256 0.10111017447946456
Ni 0.6836954375325169 0.6664285716942944 4.624149679127938 -0.5700873615178118 -1.0418156289387348 0.4591607151685576
Ni 2.0145010540854433 6.5737509457169665 4.7611195861577436 0.7983704690020638 -0.041152048758277514 -0.16816120249169103
Ni 6.204030131203003 6.227621779641499 8.93969929866438 0.012107067676179148 -1.9654371313325247 1.0618360379247196
Ni 8.405444029552712 2.2703685004214904 10.042475067935712 1.4102426277661455 1.020715870845642 0.08033334694342939
Ni 2.2058282307157095 5.3358174211149425 6.812796600137879 0.9977201812814173 -1.2207273850787106 0.6115597697299855
Ni 0.6170717849843088 9.06250602508649 9.139105158610235 -0.7297659804597882 0.43255596809683566 -0.7447819942526464
Ni 1.3619262046474128 1.1049756540813576 11.27221522759779 0.7818097364299051 0.8897140510130678 0.2291220584457796
Ni 4.453515254320558 7.098264647959914 1.3805246515684102 0.3003642417212182 0.0727889589372682 0.7171009833976102
Ni 5.625679777527297 8.112714632531514 7.643538454725765 1.3610929055143721 0.41290399819386303 0.35807959415481555
Ni 5.4734353703395096 3.229152388600401 4.712269765041132 0.26198744171523264 0.8937362847985835 0.3288965448329561
Ni 1.0974303313361748 7.504920226888778 6.856130781226046 0.8239706860686712 -0.08637981024782543 0.5919648783171934
Ni 4.908328013761802 4.594054854451282 6.70159092120794 0.49312987302515077 1.0371493338113171 0.31153234252289574
Ni 0.7761797963725086 7.585133651922912 11.327778474597212 1.270386957087367 -0.4683313259242321 -0.40464715750170954
Ni 4.5961573508977684 0.5978098229509786 10.43854262038753 0.27387545140207026 -0.9466375036729889 -0.022054151586562015
Ni 8.842189882300122 7.297583131430072 4.948509360351863 -1.3896478343339291 1.2375696534470297 -1.7147972534196276
Ni 7.315486207231972 6.168251284747859 6.913998582772003 0.14213032564556813 0.4455726920714778 -0.7022235520651455
Ni 2.669251213699708 5.316958665110095 2.4590552691767535 -0.26968223925632906 0.7983069627539799 1.1663261846200106
Ni 2.402962302293415 5.360910852729501 11.178779739412962 -0.044268740010388274 0.532163846999161 0.9193149045986361
Ni 0.8209529587948294 3.021232783303707 3.7890790483065055 1.6381500970785337 1.4462133894337996 -0.6263657243945665
Ni 1.9550122368809608 1.0433479335655147 2.6452072099651485 -0.8919305990484122 -0.08881001695587286 -0.8338570919444478
Ni 1.1062225892032997 3.2476106690916327 8.361782186680678 0.3547602999735955 0.1426435178365608 -1.0642413049321027
Ni 3.6458198553696772 2.653559854938918 6.96628430176112 0.24934532747118995 -0.3871415445177784 0.5132662387637095
Ni 4.226955334208261 7.094769588931988 6.079566892429114 -0.3954680621056028 -0.34144712780445713 -1.5631764717851209
Ni 0.783949021336668 0.1445607383560817 0.16448075447201346 -1.658549486670492 -0.6565291353518242 -0.21522987384471964
P 0.21052997750817581 5.546567660155607 7.702924422536977 0.7685477292136765 -0.2813571044910961 1.133947511178989
P 8.504279565970013 1.595694684004806 7.900985048825731 0.4529288753262329 -0.35353259821408145 -0.1469089779811341
P 1.9315844193343976 3.435206142072291 10.326150987834312 -0.047102867025073714 -0.7540217676833595 0.9238451883688219
P 4.391987652683119 6.310784160730447 4.019097620581854 -0.8931505874984426 -1.2137311562665356 -1.5173180186901094
P 6.913463401858352 4.048880256392213 10.322474804653638 0.6572878678947196 0.5875268971504978 0.37485835627505115
P 6.893503338191058 7.9056505885593635 10.172570448705642 -2.012789909584875 -0.586023573132094 0.09355061696465178
P 2.3613310523097395 8.754749694588456 5.537190161935629 1.246271552096402 -0.482717162332259 -0.22566135359068876
P 7.31310155758271 4.359749373836994 1.4244176780323967 -0.3696392739679569 -0.4182992010675054 0.3186368147781609
Ni 5.856226249343321 3.3179214268799777 0.12073790632563317 -0.6427217971550866 -1.2649909828827761 -0.1295288348314737
Ni 1.5997267442896264 1.1299143565202012 7.041456286181796 -0.8966519157834817 0.39211302959044086 -0.4066623881595255
Ni 6.815619952508875 0.712772690335938 9.160392252502195 -0.27128017987106834 -0.24776075659288943 -0.7480380392960988
Ni 2.8062138393565395 1.6082004420891018 9.281536095371177 -0.34434116152280053 0.5039099943597901 -0.5344780969546343
Ni 6.309027529500265 2.24603961296929 2.355642479673142 1.713896853092545 0.3029379159856654 -0.03596279124785419
Ni 4.382949648478093 6.989189680796738 10.27389166382223 -0.9588983233182132 1.0351325604916044 0.2505766287751297
Ni 8.236315938779505 7.57405686328493 0.21325139065752408 -0.5479015694493918 -0.9544325742373755 -0.2859043575421463
Ni 7.92250696699613 3.7805525605529624 7.99143699443412 -0.5727409970905749 0.7534903206599217 0.2768437900017748
Ni 3.5068730555772007 8.580442727286888 12.28888239024023 -1.2654746073874141 0.009487370665144951 0.6864426350818048
Ni 0.03610013703765878 4.874651663753146 10.172476701028591 0.008609081825249689 -0.5181029980307206 0.4203691962226567
Ni 8.48652211762761 2.4405250851273954 5.706624070373781 1.147059623080915 1.277337420263271 0.9189325815585528
Ni 3.853420900598722 2.9248183034005435 11.662515932653534 -1.6683376764055073 -0.8136888445266891 -0.8448228469273321
Ni 1.4250466066230991 3.441722970884777 12.735771195541602 -1.094801694217463 0.7863729303205554 -1.4792944882584846
Ni 3.232419904722863 8.521390792460897 7.769450686721647 -0.43108735397110926 0.17174326341599455 0.517833803529734
Ni 5.812619926940219 8.271202817045229 3.59261668338573 -1.234486386536016 0.0304194928321218 0.16933568241576644
Ni 3.1952211905376244 8.034894958862859 3.3063822710580926 0.33866853661805546 0.8465120617042969 0.3295699167508969
Ni 3.4294356539897266 4.42519981516463 8.992264440341406 -0.09976728729832494 -0.3119519465588176 0.005067644330894498
Ni 7.110051370462944 6.132863812090113 11.546513649276415 1.3227662420200317 -0.03460370611679847 -1.777963601665467
Ni 8.094392877783559 -0.019365721598221666 2.2811494832823698 0.9045071501618422 0.4459179912260385 0.43387031603288506
Ni 4.534784478436045 0.46514866837903707 1.479248236876222 0.20940915339788452 -0.21680364608974273 0.3023419342728793
Ni 6.004966495786963 5.66378866333439 0.18004468920574426 0.6817244036705291 0.46681488927970566 0.9695403764130915
Ni 8.204814898947081 9.072317675170094 11.340726576089729 -0.796101727572545 0.15210672013198967 0.24269851157863367
Ni 0.07807179120790807 5.112361186233173 5.490926138396709 6.427757903214736e-06 -2.0333091125841496 0.9853647450398578
Ni 7.760487316589613 6.393236607954345 2.4547528879202423 -0.877163982262199 -0.13944403706265662 -0.3968469447310004
P 8.308920329054926 1.7940938941368905 3.416575839144529 -0.8103795776477979 0.3200660910255198 -0.6832174432762879
P 1.8741798951439648 3.5156471100118893 1.6394238795768583 0.6830806605881073 -1.6731564379503896 0.030631865953244023
P 4.711275857630065 1.0217859678437555 8.25365288783261 0.9517809955471415 1.2531443679568355 -0.751187640668674
P 8.682755119299676 1.7100668500071812 12.440545197761654 -0.6451756580122178 1.721440469767758 0.47356480640902954
P 6.436770116627699 7.942949421623006 1.5806768522441885 -0.09295154992807217 0.03699226095363307 -2.0464317660090368
P 1.7677626291166078 3.1928911511856737 6.003821499886669 -0.8010534151508656 0.7049520067399021 -0.1882983395611983
P 6.97701158449631 4.184268285143234 6.002209585944362 0.20687507412212114 -0.11214432080643913 -0.5868141873541894
P 2.4760399818122005 8.597981734440047 10.115581872946398 1.0363908583787378 -0.11545384479564633 0.7369771534962469
