# total energy = -340887.852364671 ev
CRYSTAL
PRIMVEC
9.13987126085230 0.00000000000000 0.00000000000000

0.00000000000000 9.13987126085230 0.00000000000000

0.00000000000000 0.00000000000000 13.37712546260658

PRIMCOORD
 96 1
Ni 6.453608041134354 2.1055155121045592 11.499150412829433 0.32251840922075425 0.6730075926228216 -1.3718488584792956
Ni 4.840850391752997 0.43707685488657577 5.575504993122137 -0.6944673051584943 -0.12186257653546755 0.7356260387849911
Ni 2.8926046391475957 1.960803935295692 4.564436016463568 1.142981082136167 -1.8368727172968495 -0.3480687468860328
Ni 3.4595234147885736 4.5356701006112 4.519769467113164 1.775030230068756 0.37475602636923205 0.3035922617402126
Ni 3.778285554167469 2.8848448887079616 2.4227046796923344 1.6053672462205577 0.0807138702112997 0.9326309049812519
Ni 5.532345608491989 4.682026854191721 2.768570192397132 -0.20573916074546506 0.7895006773162596 0.45742367787279287
Ni 5.659133898360782 3.2899970883405936 0.46915414598544525 -0.2196341735600024 -0.3413861926595346 -0.026068157841961554
Ni 5.9199218362807855 8.386087516344737 12.428004422285884 -0.8894260874590038 0.6042686353852109 0.2591710553123601
Ni 2.27028910565665 6.383715447951925 0.16371428250856496 -0.5889996250412823 1.377438436751931 -0.45837421471152023
Ni 0.5979596053737053 0.4901977848690892 0.39303364473521035 -0.39765375690301197 0.04359408254086686 -0.5077802759484739
Ni 8.108765551869615 9.038263008241202 6.78102563830634 -0.036782201825356006 0.01737962892902813 -0.20185628075129108
Ni 8.70934647223282 2.6875973336576133 1.3111071764018534 1.7444788396444602 0.07437352981556869 -0.8512590894709792
Ni 6.918589836029466 0.9702795605666978 4.633688818679243 1.8323254642457993 -0.8087199305571879 0.16426906652613646
Ni 1.0137944861769432 8.061878013877477 2.691597855174019 -0.12428018483802465 -0.16827201703794245 0.1396985762756239
Ni 7.9212885188687 4.229895717857416 3.8811054464474557 1.1336916864144413 0.022845537139605816 -1.051237436473267
Ni 8.052637604343355 4.287412925768627 12.32010458972987 0.1544695639372114 -0.5749722004139388 -0.014218714702543253
Ni 8.583435609975576 7.24552302004091 8.87263209479366 -0.20211261973647127 -0.22823502785513597 1.6087999260511903
Ni 7.091305977440264 1.3115166426205762 0.19501834052475708 0.003992151878528609 -1.4902219338042657 0.8738742557673337
Ni 2.2245257717918108 6.419763098993052 8.755608843051728 -0.601557664211951 2.0126814090314693 2.281912933903625
Ni 0.34219494052981897 5.0863381856966186 0.990543568457997 -0.2628611025694376 -0.7550517516097707 0.846702323338232
Ni 6.275188620248489 2.0573118326951 7.016034570201621 1.7657212939630043 -0.012924678481468064 -1.6722038442291332
Ni 4.062197365600163 5.014955793548747 0.9659171001605289 -0.09938162182413209 -0.6818377893199419 -1.071052414316665
Ni 6.528052290051693 5.875035930027495 4.877780954328245 -0.867904411337144 1.3789384183362252 -0.8184546413464485
Ni 5.559536724579045 2.9938287099590783 8.933659013151066 -0.4460331766476641 -0.0779213950678271 1.2260020032140886
P 0.42062234520875075 5.9441973335336336 12.248376710459949 0.5144893125375333 -0.33099533634351386 -0.6393724210668796
P 4.39314295296025 6.488632026628674 12.48940607535239 -0.09287647371576262 -0.4239042059591086 0.9317333328676469
P 2.432649773276982 8.930439950601198 1.271802075352851 1.1342997523120852 -0.37023062769505266 -0.2109664705826754
P 6.484391126506189 8.008711384540197 5.569044018345015 1.0087394152100564 -0.1703759507548227 -0.09929600408886126
P 4.765629253804599 1.3305184343331786 12.565187487390245 0.055728918131187896 -1.0709549695068523 0.7264556851396328
P 4.176930165681115 6.251342696930462 7.943136466396262 0.5316822793770521 0.8801392628404391 0.8880482332748706
P 5.085159142343599 1.3855952966997696 3.4881120171444415 -1.0384577682100955 -0.628900317890962 -0.054967357374815014
P 0.2916377443497995 6.007500079758493 3.210550588050332 -0.2352330564395239 0.2532279503550478 1.2389107408559568
Ni 0.6228026886127744 0.5165992161057528 5.015044450296997 0.6443243657555161 -0.9587134610009166 -1.6750325719271795
Ni 2.1190516609868895 6.727274057228025 4.845595812752123 0.20289423509750218 0.8126359777821422 -0.9642235921858685
Ni 6.5221205138027845 5.87633379170291 9.369017572298358 -0.6114723522225017 -0.6844078640399632 0.07708861475388659
Ni 0.06085508878347749 2.5408475656260867 10.210211079438519 -0.7047532604655347 -0.10582377790504999 0.0058970822107253275
Ni 2.484664778874106 5.24439397409779 6.861367845950057 0.12210348890168003 -0.6869501708458428 -1.3435096452149702
Ni 0.4613395563200892 0.014301156081149145 9.211528455896312 1.720147719098263 1.6244222059694797 0.19526860023144435
Ni 1.9144373699479131 1.2630204873406008 11.481866916856113 -0.4013083229364637 0.30581086665808616 -0.5334838513621651
Ni 4.239830757584015 7.360100442315649 1.4342815612955802 -0.0063213142323375 -0.03614379691040872 -0.30229076931996973
Ni 5.935121441676676 7.997588161589625 7.981889519239665 -1.6709478603348449 -0.2710318113056881 -1.1537452626312066
Ni 5.876251532864328 3.1050243799809745 4.69182570984111 -1.638002515757076 1.063862067215813 1.3669622198109554
Ni 1.1964456673143398 7.916764282746652 7.0114865704150935 -0.6895906937924833 -0.7006292109948321 -0.5506552209351291
Ni 5.336715810600434 4.8272319840320845 7.003085201034514 0.34768848072847863 -1.324128669585197 -0.20829123774335737
Ni 0.786613853753448 8.031177187344225 11.700262305318978 1.0438164614188474 -0.5470492487514256 -0.4083983970140257
Ni 4.721958950388142 0.31334402387758187 10.1008534374654 1.0178076960599114 0.11515199728451136 1.6570045107808753
Ni 8.821136233866703 7.466296602925907 4.933764491893436 -1.1628120008191651 -0.10496734344202566 -0.8837007549394522
Ni 7.505671166994158 6.48642931772885 7.083134018820621 0.07327695431728025 -1.4782202813576995 -1.8539073041816332
Ni 2.284373646796198 5.601698949288155 2.444522465645751 0.186584185083569 1.5483134386303592 0.9514521514528129
Ni 2.7191390283186005 5.455716930416731 11.378047122693799 -0.6320910569141178 -0.42256517543271094 -0.29693336166279827
Ni 1.4620228976140461 3.6388933822536162 3.5995032804047455 -1.9871634672660228 0.17680010911361166 -0.5042799761046993
Ni 1.6594166905996526 1.5190739721066218 2.513481878003815 -0.6066294223079037 -0.8819058678225586 -0.04328400749961578
Ni 1.3059047618550457 3.237360571518623 8.071289338998433 -0.07390918858464046 0.2706723710837403 -0.2734481340566645
Ni 3.811865440051116 2.7314047351383755 6.721778252823606 0.9972553258298567 0.30330558373772926 0.894311440575763
Ni 4.410773764029808 6.888364282785803 5.806809535319912 0.33266578206740127 0.6783454598959673 -0.32905003969168495
Ni 8.775701935356194 7.289047085522108 0.44073645921641036 -0.489983356976369 1.0412114196958326 0.5279009579577489
P 0.3401110499523907 5.562909336960937 7.796402236145356 0.6181127403571549 0.6650106904602741 -1.081243495917054
P 8.757102297965552 1.7611343144426312 7.8655618116773045 0.4701259559308097 -0.24666495242554937 0.12702817989680704
P 2.2214913346352048 3.423960176907989 10.245473615564732 0.21644574852969173 -0.5667523836073078 -0.10145341675149626
P 4.109742974300961 6.440592864896381 3.5342500857183796 0.4418003695132391 -0.0577120099994877 -0.38073924053586045
P 7.026860747346199 3.8777456298849007 10.297684214400263 0.36350436471481273 0.4200984590597732 -0.2807508383656649
P 6.46834151311161 7.977178829750163 10.053939393847498 1.1264406612789826 -0.43402252534003316 1.9127022628326544
P 2.8145592810745264 8.739425787541226 5.589444210313523 -1.4944778808671424 0.0786317908712904 -0.19292118304519032
P 7.403752465990199 4.373729867054735 1.5644680551849341 -0.9256992108584251 0.6047535454414296 -0.7804249402672366
Ni 2.8189281393903625 2.0179281287558966 0.34505389216411525 0.2662863262009027 -1.3090568628537391 -0.7959492611550808
Ni 1.9322966777913115 1.2048086492369137 6.856445111454431 -0.8153222663650539 0.09049897462252156 0.033102953201555894
Ni 7.202574766429789 0.5800637380464924 8.92615426511104 -0.4262536800278917 1.4073100275003827 0.8299986374303061
Ni 2.8892594463785666 1.338991094707196 9.038241072550914 -0.8704868273523395 1.3539920328035326 0.3459540145358752
Ni 6.731743454124352 2.535637839182516 2.5959646434248733 -0.4097600532482427 -1.179344965477182 -0.6973335709626958
Ni 4.194040004106315 7.117016434432832 10.315729975611115 0.567902180941035 -0.2965800920884376 -0.29792040816641596
Ni 7.409675102368153 6.735646179021553 11.702001622761452 1.3011597194938496 -0.5167228298537423 -1.0088913674068882
Ni 7.8627567852816345 3.929175683740992 8.18131601952536 0.16778325032698202 -0.20043780313720963 -0.24361331008341916
Ni 3.3356507437539893 8.567925248967262 12.410841572609154 -0.0228121127985091 0.04032801019508538 0.2895882341516367
Ni 0.6935270100519846 4.984392065079799 9.795734383458992 -1.0224963597848324 -0.2465585087546721 1.9716509734527208
Ni 8.796705358807642 2.490166981188193 5.603770958033342 -0.2660315298776193 1.517167352044858 1.2676574739713458
Ni 3.9066641815821948 2.9937281713785886 11.644413123856804 -0.514866493371294 0.7448601557887493 -0.9496027569489001
Ni 1.3551503865532188 3.6225055936337527 12.526326584069588 -0.0667977743508398 0.21213683674169273 -0.3658895771175376
Ni 3.427771503095654 8.394276840719193 7.7341450911575915 0.46535090313966954 -0.13155434990193474 0.33971420427375043
Ni 5.8105358607077084 8.326842872823292 3.1725460906380314 0.23733313350166224 -0.3398175626208341 0.8245347861022574
Ni 3.5048297551057312 8.800617223575797 3.4438741277417635 -1.1875246730744966 -0.1962178515185911 0.21883456047684244
Ni 4.020674931857809 4.685993558185597 9.49144431574808 -0.14234655542143226 -0.2273269142185698 -0.08036368596073257
Ni 5.68775997418756 4.632351655558726 11.847745091000986 -0.7888599584084672 0.7745288864977757 -1.2176086369440708
Ni 7.950499546436509 0.2051508014639543 2.5005727242689035 1.333570017503755 0.11968305238564549 -0.08652404913517357
Ni 4.6372597662608275 0.6175033914338581 1.3031691984786233 0.5327230619367406 0.373024388390106 -0.08139624099030499
Ni 6.352612467096712 5.86574068126765 0.3662373710733499 -0.44988443207295425 0.8678036240932216 -0.2301543563650359
Ni 8.092496581572147 0.2261880424379308 11.22887894480794 -0.3194994198887723 0.2669463283824048 0.3561106433539028
Ni 0.3663854369827987 5.195120929786754 5.5130879003926845 -0.5363436894084634 -1.0090952558875783 0.6447092598987606
Ni 7.291286353905749 6.524451180895961 2.434382692809791 1.5528691763218418 -0.5467528005569294 1.2019557608981624
P 8.735541342385932 2.0380449847248423 3.419701911030691 0.9264322323697076 -0.41943819976795504 1.101240250753955
P 2.2400178530582187 3.7784226522317734 1.3628479858703682 -1.7160488664385414 0.25804491212771685 -1.1903150913354403
P 4.846928405937163 0.9341313709450804 8.087301478922102 0.1425131629062836 1.0917055717906425 -1.1781573729269839
P 8.86820656927791 2.0614339144951885 12.385639292441608 -0.1516164107591324 -0.793402326363511 -0.040157288945176006
P 6.7985376310535 8.225691920979438 1.143781730879508 -0.8771845510874894 -0.29357730070637184 -1.3655866796196674
P 1.9950053324041856 3.4319392842505105 5.720767704149509 -1.2416592501353712 0.14101420976325393 1.53302720189525
P 7.220552892595585 4.244693168931348 6.02564546556274 0.5640550392808027 -0.6016432819472219 0.4045962496591161
P 2.500741811881546 8.529482951736282 10.05946444583897 -0.7841314425845464 0.3579199286484997 0.6751140974428632
