# total energy = -340875.98625256243 ev
CRYSTAL
PRIMVEC
9.16241220630339 0.00000000000000 0.00000000000000

0.00000000000000 9.16241220630339 0.00000000000000

0.00000000000000 0.00000000000000 13.41011641474234

PRIMCOORD
 96 1
Ni 3.2017133594154417 2.008923036988758 0.5199073432062447 -0.2713022913582554 0.1603864436422786 0.6586125002434141
Ni 9.015062400324297 3.075858463854171 11.30358836024669 -0.5168745249402582 -1.0280082907419972 0.9127462502421829
Ni 2.196202744710975 6.6859955146309415 11.698824591562786 0.8767816592221158 0.6468759285327763 1.3917437976310094
Ni 4.709470767588649 6.903282122685363 10.316067225881843 0.0015177221961070635 -0.02890896972486634 0.7036823959988591
Ni 6.686545259369852 5.091195189463552 8.92034229805123 -0.21931664231958362 1.4548008739924947 -1.3426912630787329
Ni 5.6288730313550825 3.738090138758217 3.268166503454957 -0.8435673772536763 -0.3252064975758786 -0.9303104843781913
Ni 0.9760717839358031 8.752843322276249 3.650260170546162 1.466488851853384 2.5761402094891697 -1.0571846551956374
Ni 6.590807213088569 6.985615559749544 13.385455194159036 -0.4461439911939155 -0.7521777724960853 -0.9419861209439067
Ni 6.981831483463376 6.706189471373592 10.950621085664201 0.9999637258999552 -1.826734086200951 -0.5754673948828024
Ni 6.48502716290985 4.018569904550414 10.89935372379586 1.0899420521323164 -0.026729445575044287 -0.5266853403830929
Ni 8.60513607334328 1.4947651075102868 3.0321482596633875 0.2731506574209038 -0.8729314322380901 0.08709997624330161
Ni 2.611718143204251 6.554826419926869 9.372182996409256 -0.4916787424009209 -0.4559761467929889 -2.442926469606941
Ni 7.020680111679726 5.544404752221467 4.4199880154555595 -0.6591115513670197 -0.03019992062214799 -0.12015742091890275
Ni 2.1714184193984214 5.452743979420436 6.481632489147077 -0.20177014879538796 0.472991707514379 -0.7092511483358881
Ni 7.61577879155047 3.2154020034143165 4.466574300872076 1.357831975374913 -0.9008633827616679 1.036449736641131
Ni 1.4548078274037999 7.8892584743338725 5.672894757564583 0.9514758056018967 -1.515713907427783 0.783990803241624
Ni 1.5297563601419475 4.683192969068722 10.69211370084503 -0.31522161844902485 0.2460833688904665 -1.2597171360783468
Ni 2.4406375804552662 8.722369138915969 10.300699111705596 -0.07185333449687625 0.36909060055333853 -1.0609405226936437
Ni 8.925618931303541 6.088294709662687 12.273877745770385 0.7784518757012657 -0.00843938901660482 -0.268358378238583
Ni 4.84799727938181 2.6795291567488757 11.604109070495875 -0.09160891985724869 -2.4680415195070142 1.208511816849125
Ni 0.7275166113733766 4.548441371149414 4.548671347698525 -0.22579068007970146 0.003624998347096982 -0.26152592869778185
Ni 6.502793080388979 1.0027252413606529 4.093840037960825 -1.1710097061386089 -0.8639968487526217 0.9727318867671958
Ni 8.879202150514853 6.99012346660861 4.286275435092793 -0.90714587333627 -0.5187627431019066 0.18345438120533566
Ni 5.055461781434362 3.3488800260218143 9.084589533695555 -0.08857373257535069 -1.22518104997469 -0.07407168230443371
P 8.112170803549814 8.391908413944481 11.769603310456295 0.980672481770511 -0.537882494650493 -1.295824166213549
P 3.8706061080726215 4.206344382537652 10.58921797806313 -0.43641210861813223 3.2377891825660625 -0.9696187950595109
P 4.4197369653581235 7.51374616800866 12.661040975595578 0.09812949458458584 -1.5051513014205884 0.6276577037331126
P 1.3690934601953193 2.551200409862507 8.903163691201504 -1.7451822934693881 -0.060670064186547114 -0.38555414542600047
P 4.207700419560298 1.0329703644130521 10.193365116398224 1.2962131741218514 -1.1166786967962123 -0.2110772851289268
P 6.975637692738316 2.0984672925449823 12.418291107476048 0.39750591847123795 1.8026716459351084 0.01982989024173359
P 1.5880109776418427 5.379243107828087 0.12523460024753344 -1.9805981553436793 1.6657580886037893 -0.29691073595497897
P 6.920562432311788 0.41362427659142326 2.0113703173181414 -0.8710866657198676 -0.15598008704446684 -0.22516873022498643
Ni 3.0174480853449177 1.2366782774163818 8.288980622719478 -1.0476520331148538 -0.9232700325916422 0.7719906934569544
Ni 2.8884321575349103 4.19152876182401 12.533390247220533 0.6869884802829459 -2.6025546949269565 0.024302067080474277
Ni 6.2861203539596735 8.697557326366471 6.659852403572047 0.6787663494834697 -0.7530725163962128 -1.6820141454513353
Ni 0.6613557482867153 3.155379040337592 6.686297874237342 0.42624313850493045 0.045991379128449826 -0.3546808528859118
Ni 3.885229318127644 8.239427548195305 7.1486249534900885 -0.08671456787942486 0.20903968587360772 -0.21674271094482028
Ni 2.5984234829349293 2.442772422524703 10.753519271940116 -1.4400016041961328 -1.2430407038639302 -0.8379168638361182
Ni 4.813189274996453 4.601216866084833 7.0832373980028285 0.8873260103968653 2.0882175916965715 0.6478776303244133
Ni 2.581014899536093 7.936591496354077 0.5573467924085208 -0.300547818486934 0.05821877443257715 -0.8179327074047074
Ni 3.887300023310874 2.1945168608449825 4.019226849513413 0.459581347645744 -3.2767511656515564 1.2292436500798378
Ni 4.741905707184376 6.146613464048788 2.9693353420366915 1.2058288707003233 0.6918080131587763 1.3886265921582666
Ni 5.017089598658401 5.316297335222821 12.236570235305448 0.22008720193702097 0.6253357404681552 -0.6240553310938349
Ni 1.044249293973035 8.964724107064715 12.333686308398935 -0.4701658080298096 0.03627158073752463 -1.0088178338564755
Ni 4.527028813568846 6.391662181418196 5.635319704660041 0.2030821827385922 0.8110195252246419 -0.8646979885847044
Ni 7.491289095424161 4.0275307437946575 6.9190707915868765 -0.13357909364144738 1.297651706340591 -0.8568589521562597
Ni 4.940070360737023 8.268930515850176 1.4103417241970146 -0.2691443644749881 -0.4679376900302393 0.6131859924794989
Ni 0.3165457693884286 7.255833423748743 9.954275631998607 -0.3725042542205778 -0.1327260016125327 0.3785779712184835
Ni 0.18396749567028087 0.8265971056672373 10.160603994924077 0.1603738452367883 -0.4778850310509382 -0.12093697939740461
Ni 7.2621463258339 4.404783908459754 12.984532769760143 0.22768635444051755 -0.31520696316100555 1.3522673368029423
Ni 5.209161248021457 3.3954250805829136 0.5102538255909742 -0.6055891539688474 1.5069024797837403 -0.38443005912388634
Ni 5.5020285952637735 1.0026885917113921 8.340730843716829 -0.4171355197767074 0.0867356509253474 -0.10682907924111279
Ni 8.560762510500878 5.57952427862554 1.235388209762405 0.32788944372468043 -0.26300405590520515 0.5331647774598496
Ni 0.28485573391392605 3.1344979026713036 0.5897606584559224 -0.09820225680405023 0.8523777764564546 0.05508819922339546
Ni 6.563283326493777 6.222899708984952 6.756043989262933 1.1848872354516498 1.0203078367739462 0.3423089615841201
Ni 2.7487145321407773 7.101639186896629 2.6595349405946966 -1.6172040909544856 1.8301269139325838 -1.2195994421218543
P 3.6989849629970415 3.4882494797479717 2.1773071017933856 -1.7668502653611247 1.0584946322563125 0.07718451690180254
P 0.4748374370278891 7.427271320578019 2.094888454294674 -0.7615751545505852 -0.34199400144686265 -0.7157493544657222
P 8.963853677894773 5.657844579095673 6.219826635894441 -0.33317177516954233 -0.23492452406016961 0.2882373765506972
P 5.690077945620465 3.658569562274796 5.312351084238673 -0.24625871812606623 0.20289834886256022 2.1560173249493646
P 1.566268573217928 2.0240776669580605 12.632303069369025 -1.5396717037949612 -0.9287477678767618 -0.339287401148977
P 0.6653129941656403 1.708643298183463 5.017019964324806 -0.4595746627775246 -0.3016284531456225 -0.22230940639932037
P 2.8045685976140957 6.204831431899422 4.43453792621206 -1.0939349753417935 -0.17832708728109933 1.6727347770319387
P 8.379090199115549 4.800215299158162 10.165767014263679 0.9389938710848023 1.4018495186064437 0.6580910805223054
Ni 7.3742850901593515 1.7794962326167263 6.645839410177215 -0.7520132218937629 -0.5486273918718229 -0.6130142427883248
Ni 3.7727332197219012 5.549709788951954 0.7995872304033272 -0.14095404594927982 0.64394024294322 1.0930068071005692
Ni 6.636903309446223 7.78430304126352 8.818533237369909 -0.6666325423344132 -0.07571847387923733 0.7235783635918377
Ni 3.2651172526364665 4.127373550793141 4.512141726039146 -0.34023948064960113 2.191962118475089 0.8388805133009681
Ni 3.597254699061632 0.26228779614041364 12.300563271638339 -1.401856203474663 0.5098021914745091 -1.576299382320324
Ni 2.621402813021393 0.8403471378286235 5.658572990874729 -1.1874141156385614 0.8077416258043184 1.1399651781279787
Ni 0.5367451083178454 0.8031569062413201 7.480511349817818 0.8756151497178403 0.34552438319762424 0.45265556706018817
Ni 4.096569520589516 2.653892727091011 6.87625209011436 -0.2185450542608817 -2.234889513966235 -2.3352286146076295
Ni 8.601727655962035 7.473816375139118 7.491803106755042 1.2234758943581252 0.32605341895720624 -0.2985001919292859
Ni 0.5934906765094309 4.943231392985759 8.40654720010044 -1.8464418490425234 0.8535676829994977 -0.06621721925702144
Ni 8.239922318460325 8.703247184414195 0.4582287322241678 0.03916998533124222 -0.54708215887189 0.9628385389128838
Ni 6.828214478587118 1.5322760235286212 10.256285234249006 -0.4219751072571959 -0.24203259585986056 1.0862568899712455
Ni 2.6939141440837036 4.06829431618488 8.211161506202984 1.384146702010042 -0.5004927411481251 1.5851344641134508
Ni 8.264074437323133 2.624362272199195 8.72873884795748 0.8829327664251762 1.416683755405799 0.533307730795617
Ni 5.953240752136979 8.685206394565611 11.549704498650817 -0.45538890683095123 0.7697417495217777 -0.8182165571937134
Ni 8.496359914337498 9.117498170007977 5.632892581637751 -0.1427234791448768 -0.14763402907261672 -1.791296057108315
Ni 1.66242809046571 5.020543828101223 2.222016008926523 0.11556388801094936 -0.7942687881288643 0.5843976074928968
Ni 4.899957319621178 1.617477295647452 2.1055223500276687 0.7742992869854729 -2.072767318579772 0.37368541901287256
Ni 1.56145830675246 2.4843972616725516 3.0034909826652085 1.1632552590041707 0.383855674677655 0.019234679859895906
Ni 7.08843615075046 2.6195428433214123 1.56501423897198 1.1445296575702095 -0.26433691578401575 -0.49419610950613596
Ni 1.0150211986876203 0.6839914879113599 1.1074864312899233 0.846180389396491 0.5229428426215252 0.7698695333488934
Ni 5.414802430023288 0.9013165780975056 13.35742829112814 2.3200915018558756 1.019521850537541 0.9576030015455573
Ni 3.8448688918792895 8.54255679723062 4.30964966515004 0.9504568774190794 -0.19761653163833062 -0.5934440339658812
Ni 7.154350544945843 7.263859696936838 2.196335599689545 -0.14143741334360158 0.1963345796021135 1.2836440792075892
P 1.8047111913080935 8.208504406631585 7.742921006042024 -0.20764743351177142 -0.3349098409065716 2.114857562881603
P 4.839292987682391 0.865255155707432 5.7778025460908955 0.04568104697688262 0.13935610533454065 0.24924633999948043
P 7.7720528959981285 0.4894038401265574 8.435164162484432 -0.9158261747190873 -0.9030513915519222 0.07711226890297042
P 4.6959745342483945 6.464237649366713 8.198448659115677 0.5360932639605542 0.17511269410885968 -0.4148248693656597
P 2.8981443145889982 0.43726238412334834 2.229070150167978 0.7634165786346981 -0.5595183277527138 0.6706874291300772
P 6.110815919133391 5.132875003085292 1.7396406552869381 1.9642505672235915 0.8481321138062231 -2.473885894102933
P 8.796328131124078 3.7253268984031758 2.7148511724651145 0.6375040003995731 0.46598570851019105 -0.7193031332552516
P 6.267154160467257 7.6235118675444795 4.191063311278399 -0.3897015919354708 0.012530528366842935 1.231339870487234
