# total energy = -340896.57524357 ev
CRYSTAL
PRIMVEC
9.01805288508765 0.00000000000000 0.00000000000000

0.00000000000000 9.01805288508765 0.00000000000000

0.00000000000000 0.00000000000000 13.19883195608779

PRIMCOORD
 96 1
Ni 6.431260407089287 1.914036610749804 11.29578474639663 -0.9779483979711288 0.22835586970371638 0.5725306808519817
Ni 4.826254428755673 0.3956382076350127 5.8897542940499585 -1.0682612247247731 -0.20312563438201794 -0.5230454296376604
Ni 2.7268337071566915 1.4889256030429288 5.006118589502657 -0.11655453405899281 -0.20652874652629594 -0.8204750142105869
Ni 3.4466005711600127 4.279670250200016 5.0120714061379426 -0.5616649417820714 0.48409887317113404 -1.0448487593381037
Ni 4.982221651460179 4.454773780888272 2.5844503773437615 0.29155847050413014 -0.18640857873765318 0.08265119644332862
Ni 7.2079582382469045 6.043971112711276 2.4845087092951683 -0.18909949530625497 -0.195243917641096 -0.3579016738160546
Ni 4.860360704342169 4.672550737297124 11.280473896399075 0.9684551137687127 0.2373038229256236 0.10098496175550996
Ni 5.675529548628287 7.965150021257088 12.424086535305255 -0.5784617016244361 -0.394240874566721 -0.14453327866010593
Ni 1.9011858855486523 6.398588001893657 0.4216354501682621 -0.0422077437163015 0.5655362518120195 -0.34648597577994517
Ni 2.733290632941972 1.5254847889836092 0.565139723940844 0.19800888198074287 -0.4368422541770154 -1.333842297328535
Ni 0.5182377332751102 -0.05817906565804277 4.740518899239975 0.4781912494374474 -0.25933689146626304 0.03164822303290033
Ni 8.563840508733627 2.2956896221448546 1.2848353453272603 0.5439438703532244 0.557073465756647 0.7331492951097245
Ni 7.1125292038057895 0.7611921912201709 4.8715566168595235 -1.414400615798577 -0.802152047531683 -1.055676188970911
Ni 0.8292974275651666 7.21967268879869 2.716266352917597 -0.12050657672820538 0.33992734872582103 -0.3716051394450761
Ni 7.411450599063739 3.763476909488485 3.786375549089022 1.8463739719190655 -0.9569494271219583 -0.21497250641827492
Ni 7.669691558263868 3.7216241265702075 12.495875646207915 -0.1676410683221629 0.19059279202232984 0.23540917700607197
Ni 8.03461608176549 8.793782818332904 6.984333074614931 -0.38768070485070005 0.3316777071225191 0.3966929356516394
Ni 6.818405412622935 0.7553701363500912 0.4620994529595381 0.37966709051760417 0.0006510033204375886 -1.0469910024920874
Ni 1.8143240012416386 6.732165773957241 8.93574139786024 0.22461131505961965 -0.16793931628887207 0.4325310283961712
Ni 0.06200632725479282 4.944562263081225 1.373074286292671 0.045562776231463466 -1.3850918395321308 0.3810889105657953
Ni 6.45162317025013 1.8221246168900571 6.946333705646444 0.46453792032007096 1.2947437886651767 0.2763357400171047
Ni 3.4304041483801746 4.225237283663768 0.39844372385261145 -0.6806967337369632 1.0146920332490654 0.32446550564479604
Ni 6.120191694746459 5.5156394729676395 4.5168513507599695 -1.379705635519553 1.1855883752837324 1.4614667160484442
Ni 5.04644822330762 3.211463863163639 9.213286400825691 1.8259912944976553 -1.6253909976406522 -0.322751865387799
P 0.11721214091366383 5.467879865483219 12.459551831444603 0.014172691955956237 1.639235102612596 -1.0745164616058656
P 3.8954561118175075 6.164966326763103 12.589679627539383 0.5450995812242225 0.47755798672882277 0.5025408819264054
P 2.3326365843547623 8.335205816786397 1.4523862568183485 0.23129206951390488 0.22541324213562466 -0.26356867015942353
P 6.445472858259122 7.825875214234921 5.663248764362373 -0.599996233262102 -0.5553659961472371 0.668411488611707
P 4.687042748102915 1.1679189965445425 12.612077765211032 0.44140261985418816 -1.1227976652097567 -0.26791434872262887
P 4.067520558721351 6.1017768309845275 8.190072882683058 -1.1202944391719285 1.517355299685948 -0.4900687176013237
P 4.684175007321184 1.1093737979439264 3.6981807965821973 -0.22991575799166855 -1.377198552826983 0.987918364699647
P 0.08281638583316332 5.312093003834168 3.592075289463438 1.1181172290149517 0.5802820426626264 -0.0026292100927309556
Ni 1.5544597925424166 1.0119247196817183 2.6117317905918487 -0.7919949044930231 0.016932771199596644 0.32181726938867156
Ni 1.9116558448178012 6.267501586789136 4.862462812443494 0.049093929313173516 0.17149592329187882 -1.1855112421888938
Ni 5.9222364183320835 5.816445641255093 9.182308487746058 0.362015438874112 -0.5925981410258181 -0.13585863370424345
Ni 8.475770205355067 2.5057200712219254 10.147723502057657 0.8584998301937925 0.1588394108701329 0.4282072042098367
Ni 2.3726857567184925 5.17206068037909 7.026067721041885 -0.4075908135110658 0.18086348054970788 0.1250044645985589
Ni 0.3900776762953423 9.178033028926503 9.357760115271342 0.471582228761362 -0.7065643455323444 0.042692653772520024
Ni 1.4431229130101917 1.1762336412010068 11.484171868819129 0.11284160398377986 0.3479484192580846 -0.1798833760246257
Ni 4.305128213177455 6.587831839329567 1.642726689471423 -0.6146967726970703 1.477377730851746 -0.7379094355025292
Ni 5.6856568218920716 8.011078964028643 7.729671529060627 0.016046769050217524 -0.6667004194578711 0.8273244330322526
Ni 5.3050138324075675 2.9223270551641085 4.801866908642358 0.21378002877207053 -0.8192956491905052 0.12493530192352031
Ni 0.516412479393908 7.171444142570088 6.584712494875477 1.117051506754599 0.42631075851807226 0.5070745081307009
Ni 5.045348020869346 4.589079640832661 6.952761773662851 0.2542355656839557 -0.1984526543863808 -0.025823388821007143
Ni 8.110403797267582 7.03760722136988 9.345089751125645 0.8713126656877447 0.4717881741245811 -1.0930831688644593
Ni 4.546144691581654 0.29331306823858494 10.533736741968324 0.14738668894850102 0.4855554031120024 -0.6044432132898623
Ni 8.112270534191538 6.994564055485602 4.623075896175329 0.31513651493438627 0.3496777432443655 -0.3152997799851279
Ni 7.0857185329124395 5.998096278256356 6.873437177863293 0.47328018528907523 0.7078938629770453 0.5226775047752805
Ni 2.3782048050154083 5.193072743339569 2.5066029385883764 -0.0032686434489427583 -0.7275134369801858 0.8644545051153306
Ni 2.363613595629118 5.2788975515777175 11.319212745694927 -0.2990131270099624 0.2441918082947085 0.8758180097572659
Ni 1.1224139022533057 3.238139263265398 3.690762546371343 -0.3645788287259141 0.5251272518673537 0.2578268825796398
Ni 3.597607864839513 2.576502767435147 2.6684869057170757 -0.2545546395862713 0.5292970669743271 0.09007731370407068
Ni 1.153291714947161 3.3731485313260605 8.207983637294994 -0.5336386317724745 -0.020696609117403064 0.2568514060402479
Ni 3.5255175509742442 2.7998438624047797 6.973101089886485 0.44615530404782516 -0.8004461205841699 1.092140859555848
Ni 4.096261092908067 6.81878417083939 5.854394509128052 0.5165911893718845 0.5669734984791784 0.5363701717710248
Ni 0.8793548348960812 7.399700076300863 11.256888081177255 -0.4278788743361406 -1.1369035084835195 0.8034494261868679
P 0.1686889897510076 5.586836999608407 7.945828843191497 -0.3127531023038743 -0.555627734449056 1.0965320466450084
P 8.483769218164484 1.5906312022138693 8.105032645036138 -0.11827974428021563 1.0923989983132412 -0.8503705162184386
P 1.7937718589725684 3.196511931666439 10.522346039511081 -0.7757499033890705 0.08416583331564216 -0.6659301169507499
P 4.165835370049742 6.170611627798838 3.74614511386456 -1.3037102538298453 -0.7095036306663265 0.6186313318647862
P 6.799774115594458 4.019887203975748 10.387823746300146 0.16959922048979822 -0.033672452551780724 -0.4897802398266275
P 6.303104859135906 7.750303931999375 10.256231418435073 -0.7954764352837203 0.5777384503051662 -0.02662351612479931
P 2.33793018133236 8.356912269810378 5.807287808664377 0.29445610376689935 0.18649933867924656 0.9686386905344286
P 6.874858422980276 3.810515072751087 1.6488246967563485 0.5359600808167996 0.7312906446344309 -1.103395863644377
Ni 5.2885468680445475 2.989412349740508 0.41564926673771857 0.8183507687787326 -0.9618808029853048 -0.02409843571010043
Ni 1.5265669553163377 1.064860689457691 7.284792047870633 -0.6327034936871362 -0.04277801439747471 -1.2852240221001996
Ni 6.741400259996524 0.7171417088411769 9.211148220513275 -0.16050188617422034 -0.31720342476574404 0.127060061576007
Ni 2.744725523857804 1.6323667504461015 9.329383008611368 0.548601423729894 -0.15388695196086402 -0.2967343582781148
Ni 6.393907632504606 1.8201226091745093 2.580569909235652 0.30779138742322476 0.1694596095881404 0.3009820778108752
Ni 4.011897209219102 6.940131088949355 10.525619592667583 0.07914395462101854 0.09033545246146378 -0.936320180907381
Ni 8.165233558125829 7.132738660069495 0.34347147776055437 -0.2106024023750373 0.125260546473423 -0.15232654945227958
Ni 7.687132472326344 3.7655510616262147 8.151558582901249 -0.5174964747949733 0.43809900940225194 -0.2453151232658743
Ni 3.0188923642545884 8.477122913270977 12.449678867269009 0.4312583323313347 -0.7013079822294115 0.17277453289398634
Ni 0.32942495876173744 4.953156467373645 10.142523692828895 -0.6137395509901237 -0.2966376847992504 -0.05955934762087162
Ni 8.698759596266562 2.174793606673527 5.722710197124698 0.8713869705691057 1.490880393323871 0.9250188969619488
Ni 3.6224255460700876 2.7800943268324834 11.634954612984588 -0.30724631355303217 -0.684827210965569 -0.5653017672037103
Ni 1.1752687095543237 3.619323335916266 12.646249872582768 -0.14623329207034816 -1.2068773665694956 -0.04164441501366376
Ni 3.2629569444959734 8.52663202299331 8.01389530190957 0.26547334338130407 -0.5648981040073885 -0.10648532274844887
Ni 5.6569343238109004 8.029638116634938 3.524470555047329 -0.5120848168610987 -0.11679518931488918 0.6149029751706055
Ni 3.10179532339437 8.27342313724037 3.6561025623446013 0.3677927076775214 -0.04627959979282997 -0.08903961646817568
Ni 3.219399749603648 4.376379848134859 9.336312480361938 -0.8259905447121775 0.7567443088208452 -0.9243650654280338
Ni 7.219780905431963 5.996923931395901 11.354664514755115 0.09841360148390793 -0.32694019243753375 0.6576923024219898
Ni 0.42995099663000397 0.1506898582218996 0.348789423480638 0.751559422185796 -0.6147191412945736 0.3378804934991213
Ni 4.657337282269515 0.2369060499503852 1.4631033107334706 -1.0926738492411827 -0.2386433676726535 0.48362373330692837
Ni 5.954448902836305 5.41301403241388 0.31943836712120727 0.14601037742626466 0.5059815321768383 -0.36614900142651136
Ni 8.011106018186963 8.803910091596688 11.354624835322914 -0.9301575037400949 -0.2515132816567862 0.2093273923173556
Ni 0.006282877366766654 4.888154342987748 5.8146528523638725 0.16272923284284233 -1.5777795664102763 -0.32042938790220943
Ni 7.834090660310886 -0.38337004864297963 2.493087582897874 1.0179413934242985 0.5916494039593037 0.35658604032842456
P 8.618273475269875 1.5483094805514093 3.569703304144829 -0.34387013542365297 0.19816443372200063 -1.0958992981570157
P 1.8067037466486748 3.1529367006685685 1.5074649159331237 -0.7345423188025092 0.8544076624022897 1.0024630952830413
P 4.761495791794641 1.2016735680729012 8.159333046196627 -0.5283321319578965 -0.2530978525350867 0.38021602104253877
P 8.49419408716977 1.6577976592652228 12.279546087269086 -0.6555261480086065 0.3414504702385668 0.7178201209518219
P 6.240267067415466 7.722311896192796 1.3511775523551857 0.6956929500354793 -0.5710199006344101 -0.23109358034985364
P 1.6479319095318474 3.214539019159142 5.986000364072283 0.44373898129684863 0.055768256009555574 -0.2803721148700074
P 6.915223227191051 3.9689802960736413 5.952488378163511 -0.11886955534541463 -0.6718876200857654 0.7221809690236788
P 2.3351526210783566 8.519192129455801 10.203832022799078 1.1208960773116696 0.620908300824421 -0.4407816984407377
