# total energy = -340891.4700075417 ev
CRYSTAL
PRIMVEC
9.08706422116369 0.00000000000000 0.00000000000000

0.00000000000000 9.08706422116369 0.00000000000000

0.00000000000000 0.00000000000000 13.29983702220019

PRIMCOORD
 96 1
Ni 6.357628273516394 1.6016132675806831 11.273473837067467 0.5027332004428697 0.858056829119103 0.6607974237098749
Ni 4.762912087784958 0.24508266932168044 6.065537311553939 -0.320050664406552 -0.47513292222709785 -0.1409833565253185
Ni 2.880817491668171 1.457074421870346 4.738678704549681 -0.16769660415044668 0.46140683089025697 0.06003423037476113
Ni 3.2373212006401286 4.367297653807514 4.664000300932673 -0.10604103612217866 -0.40259593139963573 0.3608998372124301
Ni 5.284773106916037 4.678284257400175 3.110419438146137 -0.48197668462180865 -0.994600661815829 -1.5443089454566565
Ni 7.35049001255557 5.973799762013883 2.5387131448810876 -0.44299336138007583 1.9691708873433442 -0.9043559692959586
Ni 5.0393224114877775 4.320244834551376 11.659129757212776 0.7423515304342828 1.1038517202348732 -0.6600479471383601
Ni 5.641204119373115 7.970900244670971 12.503189908650334 -0.17125501092566636 0.31762997078020133 0.8936470675188867
Ni 2.2429419218528293 6.470707702412372 0.4357065619338141 -1.4528293520884206 0.5326760107488892 -0.09311224387565255
Ni 2.59431143946138 1.6475483779205395 0.3778574015115472 0.8066694757860623 -0.6529835840924109 -1.0622530708574802
Ni 0.8606113304628829 8.845121271425842 4.417833544832844 -1.3606589033007472 0.0994628686840287 0.5456659952506537
Ni 8.661526223096176 2.443348039248515 1.6207715253708948 -0.7283287337926295 0.1879682099152892 -0.5714029950054418
Ni 6.750134931482714 0.8610965796997075 4.816602098849648 0.17620181340798038 0.3611461488952813 -0.6370753975025867
Ni 0.9942884081436988 7.305190996720915 2.4366363335122108 -0.8018265458714642 -0.1811650709505267 -0.32957120230247755
Ni 7.571541940177202 4.135214030052829 3.86330998156614 0.6486764720766248 -1.381213330413331 0.9013423792806154
Ni 7.465504986160231 3.652154775738997 12.624923857642788 0.4714960968054589 -0.07373975288631172 -0.17071199393800277
Ni 8.10959610799782 9.290705472318988 6.51822396195087 0.8735127586628569 -1.1276675917075483 0.7429940491142881
Ni 6.613056565611946 0.8579642686148117 0.4229019795441224 1.1819214679551064 -0.19584864110463046 -0.05210803354914897
Ni 2.0193910515321956 6.531672817203686 9.382077721871774 0.9991898238484083 0.2887294856957673 -0.4402417667768676
Ni 9.380394797552299 4.891630354444516 1.510941630690056 -0.4742744308815445 -0.23237218995196107 -0.3692857472832801
Ni 6.53517133698229 1.9444772929482637 7.13177164306159 -1.0008299305549926 0.4643738839383809 -0.02747737948466235
Ni 3.1082848867279704 4.126654015425698 0.20446894387104664 0.6646381376122038 -0.19439468226692327 -0.08405553299002297
Ni 5.827307197466143 5.845517674443606 5.030318039413443 0.7372409486805948 -0.36392062631662486 0.316459604621184
Ni 5.295232317994411 2.686336140235213 9.351913211728714 0.41875840009211107 -0.03349736042649715 0.041643129462083116
P 0.22211602285818827 5.647410584331002 12.677804211273 0.25072318165532304 -0.4167362274557597 0.014501278939968575
P 4.073894519751474 6.0299941680161915 12.797741647641478 0.7247369026763131 0.42592483593356323 -0.2737638655248704
P 2.316492620782759 8.80311177288951 1.3583789071498291 -0.170494478610558 -1.319094192485083 -1.1631665559451065
P 6.513943954637305 7.786569144128145 5.88206584729957 -1.5789419621494936 0.931935164465808 1.4234228739018455
P 4.716468101840942 1.061341856056221 12.596103324318577 -0.13260156021952646 -1.1522733060713704 1.5017661869984393
P 3.9534909169813264 6.1503977707863395 8.286290439652493 0.3246783929865505 0.7624981805854868 0.8288876637543143
P 4.805830292757292 1.116027809374768 3.8357925332711535 -0.5361601126427477 -0.4970207234391246 -0.6349853477427774
P 0.12851289900502152 5.725313987089378 3.724805855297286 0.9343036646979844 -1.5533070351902087 -0.6227646373068694
Ni 1.454511869720823 1.3131534965364897 2.610984385149129 0.09024083586512845 -2.4142908081481194 0.2138425065788898
Ni 1.7952495220281606 6.524884780126759 5.03002543594105 0.47027713679669336 -0.5295698610197396 -1.371843459162657
Ni 5.886809294895496 5.63743298766371 9.282674324837611 0.31466214640112905 0.9073513044788566 1.670078056135382
Ni 8.47606832657271 2.342917803941672 10.421233510293026 0.7302028108868909 1.211792544482926 -1.0432410485313517
Ni 2.6100138866754796 5.050126931011831 6.994690551071514 -0.2511810951283481 -0.5041007702143576 0.3452924696924763
Ni 0.8703717462919709 9.319693207627425 8.979797017479823 -1.744760118330305 -0.04063114325780099 -0.3242423338903964
Ni 1.2961970344407088 1.1223433191049756 11.56712141315479 0.8633972674954099 0.3572856374986105 -0.9332160880607605
Ni 4.524494780171346 6.914774363557396 1.7109978961078813 -0.8978528780701183 -0.5101081527507021 0.22543432518154724
Ni 5.661958974371381 7.70934727119677 8.123820089840546 -0.8202652121926259 1.5296433730246817 -0.05001155603143645
Ni 5.103395302290216 2.9404104597411242 5.032246314470637 1.2937125191871848 0.2006211227926093 -0.39925658261375757
Ni 0.562041291611741 7.45697223272618 6.9815370254103986 0.3356755154280025 0.013102855930545177 0.5143841544182367
Ni 5.130229403345329 4.36437161908359 7.5820774825961985 0.27706001977763894 -0.19888768504127036 -2.6711869513833735
Ni 8.37806433744999 7.269996796454592 9.488888893772216 -0.09006342974699974 -0.7532303821303157 -0.5872985831897757
Ni 4.5177521784162185 0.48218417001596303 10.372263320456927 -0.7591729728669957 -1.8400955951095213 -0.693355045930922
Ni 8.177612784732505 7.129483520255739 4.86324509150315 0.7888183065372544 0.6602904021664693 -0.1490720470707239
Ni 7.1812888741721626 6.073066853082644 7.2265061064275775 0.9449698861625789 0.922941702717946 -1.0867549126535863
Ni 2.480995746892041 5.14771291517399 2.406180128603198 0.9629115582426643 0.10586748665879187 1.2178312944778382
Ni 2.4789511574110388 5.260347077916329 11.365429476152164 0.49357698786489834 -0.32045381338224166 0.891650348803832
Ni 1.0402780408697152 3.250415660382904 3.8300204299896747 -0.8215080834607916 1.5075234011971907 0.5862557437475581
Ni 3.9784985181000767 2.676694764949241 2.3520766561101274 -1.2845542497266844 0.30548973587324163 1.0894681978196914
Ni 0.8878034618537802 3.504471805760096 7.997578048219092 0.5952587185771168 -0.5963267548303148 1.2444720369938183
Ni 3.76895990102258 2.613021704978643 6.89040649176959 -0.8095696801519928 -0.6467530298016667 0.4451836841631752
Ni 4.002779154070026 6.828874344162211 6.208124255839746 0.45059251388357235 0.7338455498458006 -0.4686503998265477
Ni 0.8553181154731764 7.352307425427573 11.440506801894575 -0.3545978062538022 -0.14925768071896875 0.5970582336797007
P 0.3917333487892842 5.683322662681767 8.341525251658386 -1.5209859544599997 -0.3280614505261705 -1.1839492970184124
P 8.55791551526333 1.8386493414115737 8.064728727720265 0.3438580512387949 -0.11283620466714116 -0.3816085305146912
P 1.902495055605012 3.2013182516457643 10.499250501355903 -1.0899983592915485 0.24788905464063757 0.1957231712703597
P 3.915343420797999 6.2489378967063 3.8429476877482265 -0.012058730936746974 0.638549668055268 -0.3515960433130009
P 6.946124735599435 4.028377414372178 10.34005149471356 -0.3766506722887836 -0.4681446638347228 1.1648675977966134
P 6.383381013912665 7.930844464972042 10.351329450290768 -0.08403702104726173 -0.715159286290207 0.05745978477936556
P 2.595011143417101 8.41975578873372 5.5949355137712455 -0.3237157719629651 1.367217016134239 1.8300927182605384
P 6.878098971800391 3.918005930655483 1.5099038879401427 0.7553494853558476 0.07241280654477206 1.2274119961877377
Ni 5.260683299297648 2.9607654839075495 0.449508903990235 -0.14778880948292614 -0.11040805484162275 -0.8645205824665756
Ni 1.4090583737920472 0.9810667294998826 6.737830137632824 -0.05868157300160861 0.6848308105099947 -0.08825157334924157
Ni 7.381640469181689 0.38206743842954033 9.059942199015815 -1.334853769312185 0.07538011670321211 -0.4487030101703433
Ni 2.747319429155248 1.8716262979740543 9.012208758639112 -0.027787711636229562 -0.9344062517141197 0.2954698897433944
Ni 6.3190082499863465 2.005324275902898 2.611942161732674 1.086950316493844 0.47137576917751073 -0.14833851133880904
Ni 4.337210383711517 7.026090901967533 10.82501721513012 -0.8069373847354684 -0.6488402513479987 -1.5321458277315614
Ni 7.933052621611525 7.28496319145553 -0.07190775769364015 0.21964265820043463 0.07636999142030718 1.0580066368763004
Ni 7.485487440687896 4.044061687457558 8.18128850226613 1.505356475452859 -1.4335635618802731 1.0713491196214775
Ni 2.8524385896718565 8.412486137245711 12.426968521504996 1.129740672186493 0.8447799095045386 0.21966425546698945
Ni 0.2759159874016342 4.807974839946254 10.519253856131593 -1.0212298343675832 0.09608726734357645 -0.6197181371710617
Ni 8.628567440662417 2.556027637312653 5.8249563739162085 -0.021784957085575388 0.38032889247131924 -0.10099858860226475
Ni 3.7525940981101997 2.500223975077825 11.461733275533126 -1.407826562125485 0.4015978291524245 -0.46138240541022474
Ni 0.9114507294378372 3.4429796412359006 12.677551590883793 -0.27461901443631415 0.048201499405891184 -0.02700892448867606
Ni 2.980202714573613 8.556079928262609 7.889995384554483 0.6101623751618265 -0.34218683418395907 0.37312697540624123
Ni 5.674535471445636 8.014036539187943 3.7301790364533605 -0.4483433128380795 -0.23488055819611162 -0.19684725757247387
Ni 2.979875580256653 8.437711827909103 3.3525297287156577 1.4751951213781302 -0.7041667918344453 0.840657916916365
Ni 3.492531403191041 4.23408129028975 9.259719491557787 -0.6157987475119976 0.15091887047147556 0.7790689404599743
Ni 6.95876484212421 5.995681412992789 11.531437420119463 0.7312932157375922 -0.19871002181282552 -1.3479288573285884
Ni 0.32696348015043275 9.075850922590886 0.3458127777524039 0.8475546440361985 0.05314007435808913 0.314704055382658
Ni 4.499050999963315 0.28419339432716834 1.6627991980359462 0.30374472815767684 0.5034893618826038 -0.6135438900395498
Ni 6.057791497893465 5.581965546810203 0.3845809204315194 -0.25903581528607644 0.003973125715135093 0.27572047503060904
Ni 8.172914772458379 9.034032252406114 11.231327123859298 -0.15751220741827712 -1.0485526905522522 0.6296549366687995
Ni 0.3658161325280964 4.971641956134414 6.162067378837466 -1.6378909298798758 0.07343353449980256 -0.9366888771007095
Ni 8.007339372754615 9.060493783822466 2.4144520832901155 0.5673905314119391 -0.7116129636998455 0.2583886686203808
P 8.612383379037237 1.4462335540888527 3.8272543275984874 0.04717665768580262 1.3457603889223597 0.23501554111207915
P 1.8637478131739247 3.1125103716553757 1.7341390142070858 -0.36474800731392665 2.4344382296302722 -0.6806381125848858
P 4.7426661083908535 0.9263262537951755 8.142306813574553 0.15081216969028222 0.49673713076043485 0.15190463142351257
P 8.46739926717326 1.6040304267004464 12.548263565288861 -0.3708682612790516 1.0134666454823964 0.7236272145519022
P 6.427571407895399 7.944129753066378 1.494409534499888 -0.15009380346701892 -0.5564576865495191 -0.34345284538057624
P 1.802173865070489 3.139353559774848 5.939574242808337 0.28731229363326644 -0.09992798124590532 0.06668644558395612
P 6.89305627973697 4.124727557781376 6.024493767959077 -0.3463239962807842 -0.42069444077255935 -0.2821844854883979
P 2.3188189092589226 8.55736120433737 10.216416531856991 1.489328475455719 0.11891480676105327 1.0676940393673933
