# total energy = -340865.90217085305 ev
CRYSTAL
PRIMVEC
9.33037367958033 0.00000000000000 0.00000000000000
0.00000000000000 9.33037367958033 0.00000000000000
0.00000000000000 0.00000000000000 13.65594500869176
PRIMCOORD
 96 1
Ni 2.3197641587472564 7.0288877335976085 0.998257614161025 -1.90209183430666 -0.3851070305862529 0.9355190251623242
Ni 6.178377519859625 4.035479924785423 1.065329005433643 0.5078931473772543 1.2325899408442513 -0.5208075414460773
Ni 2.6273305970738305 6.02987529220504 3.222229625342226 -2.1005439744724086 0.3154195933924439 2.3705748553174075
Ni 0.1444043275298121 2.477102250286542 2.379944136012229 1.7369444789406279 -0.4658005890825784 0.29227812227897404
Ni 1.0203323452748716 7.28047192978247 8.921032468782755 1.1561150484149636 -0.8214520334118757 0.8829250531156924
Ni 2.8100379746770034 3.7193855249059276 2.2459114518765384 -0.12710814120512304 0.11022499229653919 0.11077957924842856
Ni 4.248221775297625 1.9796906984837268 6.254340757259086 1.0936927774240002 -0.883984347618142 -0.8021654172681217
Ni 7.378907372214982 5.467664295123191 6.133253966618666 -0.3830897430459079 -0.9902141027123592 1.4087688714340965
Ni 2.185752001433684 7.856398576189038 5.028828829347988 0.39174176229395113 -0.7145244809196856 0.4500587528672894
Ni 2.1456687160602175 9.130097219023616 10.504303580287319 0.21501261562759097 0.38100509260273735 2.9579107195030216
Ni 4.333538712321596 7.508422289409837 0.1405331554857126 0.7896325749084336 0.30442118539941115 -0.468173203079813
Ni 5.572808276239019 1.5498217218248889 9.627427596575325 0.21849877440397855 -2.446203597696316 1.3401960074607047
Ni 0.1165792871106424 8.626201057506051 4.625418926400062 0.11530934879798205 0.3778835162546202 -1.671332497367773
Ni 4.84625207697648 5.2294598548102 12.942599873358592 1.4835774319045547 1.448751582474621 -1.080243851007946
Ni 3.314708557210861 0.6292599954576102 3.9373234605262493 -0.15873965206747498 -0.34651168681155803 -0.22154810275326361
Ni 1.0351023268265938 9.356405432881493 6.81218607249125 0.548215501145385 -0.034399046305160115 0.4548014097585974
Ni 4.718015420977195 6.440271778972251 10.357392181346926 -1.2545620742399686 0.6837301212466483 -0.1065017778086811
Ni 7.5645724782779755 7.31870780116526 12.317061763966038 0.5065790565515211 0.5308392146504664 1.157087182520246
Ni 6.894716959931302 7.633038760417291 5.457994295830579 0.8678653305690924 1.2146580389561792 -0.5522881285528617
Ni 5.8626656653014315 2.607354267002929 11.821063763777302 0.33105241483369435 0.4513504750955194 0.4739985515123386
Ni 5.577510784578923 0.735823126411731 3.195996346674619 -0.09367917212271608 -0.03625846811140207 -0.6704079502164454
Ni 2.769133616418791 6.467376514542532 12.049364012418055 0.21290302548375595 -0.326720877337876 -0.08778157569135848
Ni 9.210431736496975 4.058348670700313 9.935245954991538 0.20245354801565776 -0.03571210868962882 -0.5608568440584792
Ni 9.09989479938816 6.263722448004668 4.647637345268739 -0.3401641473269755 -0.9989429979449246 -2.7329741598935
P 3.7120705119327435 7.929725983020993 2.6828061999241615 0.305644516283551 0.8269655070309371 0.2696956089927678
P 3.7663173045680645 8.38996532604171 11.82576160693036 -0.19170402280863758 -0.32168100092112345 -0.11681781502270848
P 5.609961824273737 2.4390156648827968 7.839168175095188 -0.034578766416134 -0.20818685095500922 -0.6165515665176221
P 8.219536720214954 9.230053512367645 6.193189488092954 -1.1124754573481421 0.8447485420459709 1.307313140689755
P 0.568160976384144 2.3644379879763435 8.350924243409448 0.24404037031850875 0.5374973433969324 -0.6239946530592286
P 2.7463488438671138 5.02460217006629 0.09509983383823593 -0.27803626764797923 0.01308742931157746 0.19180815248666966
P 2.333918335635419 5.363248083155205 9.997681083577453 -0.08378556715808796 1.007773194642045 -1.1342545008964464
P 8.710762234261109 3.6637111850959934 0.8257287412165849 -1.2945874655929703 1.3530263264561537 -0.050482839240900156
Ni 0.45961047583399234 5.06938796377966 2.632647977039924 1.5188935907073455 -0.5563761825793063 -0.5746472129743523
Ni 7.094704189608883 2.7532253292768543 2.8037707626692385 0.23629877869987692 -0.24745248132385125 0.5731624008987096
Ni 2.068459873773104 2.4036628789703043 6.4151665424838 -1.6678545661215018 -1.5457788451339636 -0.13536061102190236
Ni 0.4879402894698065 6.041734197165393 11.397606619918426 -0.29364697760204267 -0.09525191592647467 -0.16313803824548676
Ni 3.9172920812505754 1.3179992571160528 1.6740827055947434 -0.732118539852365 0.29967595740494196 -1.5418437717456157
Ni 5.496616444684148 0.07280397286792947 7.293585770004166 0.21529286587217117 -0.04514497196775451 1.0697123553490029
Ni 7.241470967757076 0.3808182691316376 12.878321062931478 -1.6439150245867689 0.01701581783170618 -0.12424856026914086
Ni 4.316744039679082 5.735725931245096 1.991105477656422 2.083294186253025 -0.10103047028146471 -2.5045190456077573
Ni 9.277330515856322 5.732124407000645 0.23298689534538355 0.7407222223609758 0.3110386907159289 -0.07571795965860509
Ni 7.6555249610108795 9.027575072914757 2.914820870331017 3.4697147718989085 1.6592259439122263 0.6776006113101428
Ni 5.175847527585819 4.332167147389124 7.138781807959162 -0.9711172339819082 1.2257358940368954 -0.9111017726602244
Ni 1.0673107768054597 9.345395591926954 1.3323643004496166 0.7677000365014005 0.7335717273591237 0.4847992416722683
Ni 8.192814529965975 7.8492235188212085 9.211590568909306 -0.03301065059806573 2.7000578687814536 -2.4526002452512796
Ni 3.169770532305964 1.8211023368699424 8.641877951380469 -0.4975907370099818 -1.3424814610607718 -0.31345501346690535
Ni 7.155220993364075 6.432163684235393 10.343053263059696 -0.8476675154649789 -2.560479105913145 -0.06925292075955171
Ni 7.3699035616038575 2.6398612889398843 6.7158844865217056 0.7818297910345632 1.2239582333111825 -1.2394326747976978
Ni 5.8747298384829705 3.7472553511188105 4.8104840894347705 0.44932598846632293 -0.35679095725037907 -0.36179278134034465
Ni 4.755906068533445 0.49746193582074294 13.156028439374401 0.7802783873870432 0.6261263546902508 -0.6396871240938208
Ni 3.0651303913694115 6.687769271480768 7.922564921213699 0.013248380369473957 -2.1349353074680844 -1.5106439491040435
Ni 0.44898504627549507 6.839509138805883 6.581045658099174 0.5135871124382381 0.556097732106939 1.6928791131902974
Ni 3.9779675013585027 6.178246894627962 5.375772243759675 1.697205251369477 0.21788659474127636 -0.3128052956980484
Ni 8.510858977946741 1.5391571046968924 4.5376387707218555 1.8562421229623969 1.6571842308918492 -0.22559810445292114
Ni 0.530948646995178 0.3237751635013385 9.206797555944608 -1.3182971505050844 0.6582345480787051 -1.08664641210018
Ni 3.6388923910798336 8.342053857142094 9.218404540815323 2.7608078942763163 1.4405405074187383 -0.6148214712003928
P 4.46303496876907 2.578924618368629 3.409042367369124 -0.2378075020349195 0.7135963126784614 1.161340044259329
P 8.284504112220413 2.4943727719872606 11.15491333682304 -0.12498415288358473 0.4597276434156211 0.7382747892617479
P 1.3741774371052624 1.3547702598294684 4.110016548047638 -0.7457101624938706 -1.1124744289068775 0.33362557487750927
P 5.922473360656162 4.778233652774298 10.853785789380131 -0.015519950012470045 -1.108988527240806 1.215393888680939
P 8.237189787236973 4.013404260634207 4.671138690519831 -0.6524269402579925 -0.37618093174121664 -1.1845223959130633
P 5.53330347403435 5.588287366191203 3.7020991415699354 0.4956924915460044 0.13181737375533428 0.8132880095438444
P 6.383207213482465 6.623968176186595 0.5320598945016909 0.7691300840797076 -0.6559827759300508 -0.17809157423152555
P 0.41322079088326136 7.554421031702946 2.5520913966727368 -0.31270013757875176 -1.2501415765747697 0.2692387239610073
Ni 1.1630217501204092 3.3983926788390324 4.252037898136952 0.8042642087786794 1.0756703727046508 -0.4416437893307168
Ni 2.5291564051046453 1.016460240193403 12.849029287768195 -0.3228624228237343 1.031068931945192 -0.49842197466202554
Ni 7.657633625464885 4.827563338474837 12.384903844105473 -0.7257617443964016 -1.064319980688838 -0.5629893170204497
Ni 6.104173057900784 8.734246784839558 1.1994288682599037 -0.38208032794478713 0.8154788465475762 -1.018274608394001
Ni 1.2476482394912995 8.350992355137388 12.839647597022614 0.2194976479821381 -1.8275285570777882 -0.3484572405737031
Ni 5.5459741215057585 6.837531099583541 7.115102252570586 -0.29535830386619455 -0.01355562719724762 1.223197443885758
Ni 8.377751866881127 8.00776522856654 0.783589974519148 0.5163122246788849 -0.47059363959584755 0.27071942227159185
Ni 4.08800992866173 3.255899211840991 -0.026507591654101378 -0.8014851033716455 -2.4090298168594964 0.6748970963360507
Ni 0.07401505537292855 0.8504439680847825 12.264772483730939 -0.07153477481519294 1.0137250413501058 -0.4037056195240467
Ni 7.742969223236236 5.778832257694216 2.316567572720964 -2.648411862470387 0.8845787866690314 -0.3580006612877641
Ni 6.794751336213582 4.061241086544301 8.982989882235728 1.2011044686414605 0.36055813760229516 -0.40277513728997727
Ni 0.35668619061908285 3.990880738545858 6.2207747379082825 -0.6778160697550585 1.3773954993291375 2.7259241950252537
Ni 6.100524881787883 7.716853507277127 3.245567689053737 -3.0875675952719277 -3.1175199186596436 0.935868438081943
Ni 7.502394868005912 0.4451390662403593 10.610191192186262 0.5049597757805433 -0.17965557628453574 0.2405225869732374
Ni 4.429417632362971 8.434611164149727 5.28015270810689 1.8110560133440616 0.34304558263982854 0.017839599284582182
Ni 6.537652889177763 0.9091152239240363 5.146106028410665 -1.5260710822923913 -0.945546070381023 1.7063213547381322
Ni 7.80483893117652 0.9559061149434496 8.243615615597474 -0.2616249161694914 -0.46865194248844444 -0.8941471470837569
Ni 0.6846525579820977 3.5835166232279887 12.68836678408306 -0.5251203098888182 -0.5207468634114709 0.1587183119112363
Ni 3.4315248358132364 3.968347886083818 5.224696699041309 -0.42099577406306204 -0.6622400696936723 -0.9935657927934114
Ni 2.7463675046144944 3.9398435944599957 11.514064612171095 0.48348515084653504 0.26473672232559564 0.6925477195382782
Ni 1.4048183843041604 2.1493262225468093 10.498486092291424 0.14571367212145228 0.4732845561644495 0.003864110941096571
Ni 8.279885577243721 1.0911592119578295 1.0845206510771914 -1.2254906107953087 0.7212880248957643 -0.34220534612672027
Ni 2.251512475202817 4.053926073571118 8.065843072639094 0.11053558155842254 1.1598675734788604 0.6310178784545971
Ni 4.446520207337264 3.6266322800507984 9.607831012713618 -0.462704466655758 1.5762744426196595 0.13164356718163134
P 6.120109336163792 8.463274072126284 9.42040339906053 -1.1107301925222612 0.09373573639226437 -0.43679417454789937
P 2.1547938215293168 5.533135527307925 6.197531844008412 -0.8413114913399639 -0.4467929376318241 0.4200982019494572
P 1.801545873615104 2.3906656684197367 0.7587375911577035 0.10367742098600854 -0.9266944848921589 0.08730103651051416
P 6.059443246429555 1.967122685122912 0.6081378954975416 -0.052647965213019 -0.8906748722644402 -0.27264697831160783
P 9.406043020913812 8.14098430411644 10.955441143773161 0.2563086461629005 0.5765210329582974 0.8971165141247259
P 3.662106360821264 1.9725529626106582 10.90297458643795 -0.25666345839915794 -0.2030893818274438 0.43647690041779663
P 8.39225126759583 6.026460375434396 8.081505970952977 -0.5884756342170123 -1.3569781120150501 0.29492173054940823
P 3.30130081021792 8.96825255699192 7.056627867616197 -0.4991231144941082 -0.023886319699294348 0.028711509002079586
