# total energy = -340875.3286739608 ev
CRYSTAL
PRIMVEC
9.20060060489142 0.00000000000000 0.00000000000000

0.00000000000000 9.20060060489142 0.00000000000000

0.00000000000000 0.00000000000000 13.46600899622036

PRIMCOORD
 96 1
Ni 0.380266334413541 7.739922271352984 7.427567408526432 -1.5153081873489322 0.13786049462562064 -0.4727191705792826
Ni -0.13286679026918038 0.9640481092988061 7.885465648837326 2.4235665770230908 0.08623711402237406 1.3692078213120227
Ni 4.944752271550488 5.37960024770828 11.273297843019986 -1.2219887682896373 -0.8931462166230683 -1.7026889001918677
Ni 3.8841990647775684 0.7313069616932728 12.351966111897664 1.3667791572658718 0.7895464429525305 -0.9934704048661279
Ni 6.948587832545557 4.244356566982183 10.704493725507028 1.694340271116856 2.142002755837827 -0.810535643609688
Ni 7.5532052870704325 2.651843046951722 1.963761425943275 0.29414474317406764 0.7707704478966081 0.09568977479484164
Ni 8.634487446518458 6.567149341642531 9.604590470932882 -1.0016583399935588 0.17933110306558148 0.38596346504927725
Ni 0.17429065339795385 3.4970470010333354 8.093380816414792 -0.594193510537396 0.9320146115534916 -0.5860384855304294
Ni 1.2027208839747525 7.101842233215432 4.581014815734741 1.0682640529382506 0.5820321925845137 0.1391560735085926
Ni 1.1194462498591828 4.234585529369684 2.3387631768145636 -0.3484652109935031 0.9818215077732897 1.4816236506122935
Ni 5.94586959981423 6.5051832980265365 9.2889068308858 1.007587303883484 0.7656683507833523 -0.38872457273418215
Ni 3.6163327850691727 1.6990288707271741 9.686544818892715 -0.6889088372341102 -0.11503244098751157 -0.33117119979974574
Ni 6.505192498626926 5.442440348361173 5.940462406965957 0.7767233230459333 1.0194843124313862 -0.9378648996866815
Ni 2.4884035816518684 8.2699964615309 7.984198211665476 2.9624780271587303 -0.7538564457500888 0.23202303414265846
Ni 2.7157872196512263 0.8621210980157972 0.764788866566764 -0.7041292537282905 0.02563518406960101 1.9949477391971322
Ni 5.472415904426638 5.77630253465569 -0.13585422521529963 -0.07561871507657944 0.854487880820922 1.81096448207152
Ni 2.8045454115982924 4.096539721141863 6.778155910950505 -0.49350499697638234 1.1292688747563973 0.08972892922571644
Ni 8.365958723582096 2.4545361716221024 10.010469436707702 -1.6886661035502144 -0.40284404285469977 -0.8149425144281319
Ni 5.02522992314798 7.977058545764064 11.604696108530486 1.6813420590849752 -0.46841411544602557 -0.3619606743767766
Ni 3.467605079790398 6.299237058932193 9.614568522054121 1.4517276343838095 1.05419060556432 -0.669095659162925
Ni 1.7968772558579975 5.573806520707003 10.898606152381788 -1.1810259527240303 -0.922607716417295 1.4629358443948033
Ni 0.5139676191379509 0.660146758109133 2.0739266548140733 -0.5416460754579833 0.29079073910017017 0.61456796042869
Ni 4.262306938339987 6.090917064937637 4.830149593112356 -0.26935879447863936 -1.9029102164428973 0.1491347819878593
Ni 7.919876814350047 8.78712540696231 12.895656270590397 -1.0339004878567162 0.07889327206279315 0.052419137031664564
P 1.8813663692248381 2.3332262555008136 7.738242241722058 1.0978939599895414 -1.276369399923047 0.7989073153421403
P 4.593786169133903 0.6579597753968061 4.87562448059215 1.1382985890588333 -2.0621553473918803 -0.8320035836754768
P 0.28027604951229396 0.05488158131691221 5.147933730228114 -0.30167910387789976 -0.05220110748358752 -0.6452247660825985
P 4.1114446937711 8.232218796336054 0.6331945193313018 0.6583996129016596 0.23551382090473633 -0.5921571968336575
P 7.6275461382088485 6.447035503571737 7.562241196711898 -0.18108665230410748 0.5650294873789301 0.3235445364924235
P 6.4888338311363185 1.1444994847168446 12.017133262262167 0.40070925589988404 -0.6873196383701196 -0.17359111525801071
P 3.262661706138392 5.064203666393317 12.663798380622152 -0.7432665860493844 -1.321513857670169 -0.06926937581978394
P 2.013772209414559 2.252049358273803 2.3452532803285533 0.7297778075343303 0.024018988622416696 0.25147240111652175
Ni 6.862203395498702 4.202282221405948 8.04770443578649 0.8185042636374613 0.13199040899808884 0.3524985005226123
Ni 7.9357386494196795 3.4370314846996863 5.78833691996374 0.3548508028048727 1.4834655889170387 2.637314724115961
Ni 3.2120308022009287 6.063250859569664 1.2204375600826898 1.5880274693905294 0.10722528623826696 0.6596473692658317
Ni 4.581926595233233 5.437278811543271 7.462336477394262 -0.1079729630375689 1.3944802227255662 0.24658190579343986
Ni 8.465168797570405 1.911351125890692 4.304584617184806 0.7215983570473314 -1.8185939735923198 -1.1672435542279576
Ni 0.7390143046386504 7.785097219260114 11.360638222447198 -1.0397119523321707 -0.606804257322871 1.9113647749681535
Ni 6.4833686745055985 4.0583664301303175 3.9114576835483335 0.14513003170384037 -0.22006431911888552 -0.11438940808687395
Ni 6.889262361241038 5.0495839123761215 1.5979437143797055 0.9135877723068718 -0.3108358306765034 0.1341974439517366
Ni 8.72943764252693 1.8224641255381875 13.641201161384748 0.7427814188828498 -0.5288615220988053 -1.35928130622693
Ni 7.0146205415332314 3.6804149667745025 13.042569617472576 -0.3389657561435001 -0.7600995984463232 -0.14718948533603038
Ni 2.9541471739139658 7.196083982993996 12.559665065366 -0.29523257692160765 0.29972249437216125 0.1806012280272567
Ni 6.102252204616168 2.281426875314021 5.575977862398669 -1.2159366485582865 -1.705422754183263 -0.5856111681850237
Ni 1.4992010308911279 5.818303275428818 8.461501438255583 -0.5415887398574866 -0.33972268891418267 -0.1848808292392171
Ni -0.3069062672765304 6.273981410865987 1.9505107212638757 0.2572951784458859 0.7630733363626665 0.8959417770903344
Ni 5.541981643963466 1.105774157681994 0.9843069112940633 -0.7785387789881172 -0.25958346025943035 -1.2146027602382115
Ni 6.392797964282013 1.2318683860052602 3.279134461073815 -1.3386913978907202 -0.5546581714469351 2.83303995226885
Ni 1.2380327882655 2.9033782609706766 5.639254991570013 -1.7160771485733155 -0.6195497299139976 -0.3442079783790459
Ni 4.4425835023506455 3.386869811382032 13.604708820064165 -0.17300516084755366 -0.07996876451515905 -0.8339097995592542
Ni 0.13282814774754903 3.4456800490647987 11.928823139554018 0.5911467532912722 0.3263192710240832 0.8110786605973516
Ni 4.962500229699748 5.521464305097294 2.666498683310433 -0.9098527307444717 0.1493823792222911 0.6181952727686321
Ni 5.615006809246338 0.9326556607735246 9.341827764259943 2.6657490681972544 0.7662910719690157 0.3901150253238056
Ni 8.176711574192732 0.2164248028767132 10.488081803470859 -0.18135738946699087 -0.6744484388344062 0.25855296211238693
Ni 3.3638407086098225 7.9854770951194665 5.491438145729693 -0.07467074934101334 1.331550415970565 0.5835458010155626
Ni 3.3966684507956972 2.252859011107984 5.367847400772115 1.5943513547260282 0.9555373772657803 1.1176963394274493
P 0.45938229715354567 7.714215793867745 0.1145171128545199 0.5583708444118319 -0.23273420127707012 1.2028759587195865
P 7.257893616403387 6.199493350121355 3.5437014054829246 -0.550883020675219 0.5945010144754858 0.07073593306298141
P 2.3407063436165974 6.252129984943494 6.531606502282035 -0.5296647347263911 0.9229185627894944 -0.32845148687573755
P 7.21006889558439 1.8886992477344071 7.703877079211279 -1.5384239474307893 1.235584504696201 0.5887124328181669
P -0.016409270792743156 4.466587868764027 10.07137557115895 0.6375572222350117 0.6334902512544895 -0.5666294848761982
P 1.544523188404474 1.3310968611943461 12.441999507058565 -0.5780945480930043 0.6911104728711194 -0.2649820055671824
P 2.5263100552521496 6.068762019202327 3.307547755193327 1.0523198709041683 -0.5450638428902806 -0.5917931286260195
P 8.847913773728587 4.135485862586036 14.309923799115925 -0.5288954606605343 0.03999710921822789 -1.4139013075646554
Ni 7.572876170700869 0.3131727962010818 6.250342308288024 -0.8516678948736235 -0.5130510374291101 -2.116940670662877
Ni 8.000244058742876 6.144252945389296 13.164801433752784 -0.1183386225426091 0.005555639710906561 -0.6438808504601944
Ni 8.006896092823704 8.419828238856283 3.447487046981084 0.35255557901279283 0.6968386336041482 -1.2365651234419157
Ni 2.949169649103832 3.8781634709227664 3.7602080937030946 0.3782581259852195 1.059841376092194 0.2545011606405165
Ni 1.9002828036234252 3.43165833407285 0.3194310445852836 0.39018315955757965 -1.8696604532508316 -0.5472495376876898
Ni 2.576655740577572 3.807797279152147 9.232322218436993 0.5989855326094007 -0.11448582445542217 0.28087039466266467
Ni 2.8647357393393214 8.567424270287281 10.708412261212453 0.8359435421598312 0.8322331831877796 -1.681967094263484
Ni 5.843779737904347 7.64556091376937 6.879433359846091 -0.7772460283186227 -0.6834079620205392 1.3717969221954374
Ni 2.45734235474057 0.6177145091777889 3.8809034097184374 -2.0465996590454685 -1.0802279101683459 0.11556183112842033
Ni 4.898749269608399 2.8502355931271754 7.491975291485512 -0.4753614932981362 -0.3250056944189822 2.1554997618829974
Ni 2.8224037769522115 2.8724366418644274 11.610486966414957 0.46249954973380347 1.343679338023615 0.06148613232993927
Ni 1.930221557287337 0.6557313899827313 6.386429308693151 -0.21207641581740252 -0.3182709467983099 -0.16500003115489004
Ni 4.0052973670899235 8.272756641647424 2.7577842801841976 0.1124435972144128 -0.38301569527486296 0.9421311311622033
Ni 6.070151309860978 7.491184039852108 1.634948529141922 0.649488426454959 0.9238971246526798 -0.14407125142202284
Ni 5.829463603699969 7.9446632317964445 4.725343713967812 0.4049477194612639 0.5963118424319794 -2.1301666824348473
Ni 8.3190080598 7.278144137858294 5.290606520391269 -2.434292705191343 -0.4799956496360378 1.705215780378779
Ni 7.266974608986755 8.682376571540173 8.418571436843225 0.29252546240308974 -0.846787941073503 0.7671277089376981
Ni 1.263159627926269 5.653051291852446 13.630967333572709 -1.5895531620064367 0.45238200168382736 -1.314450780175801
Ni -0.0071654275824997865 5.45501756909214 6.38757386338147 1.3543597005555965 -1.0988157004728625 -0.2085401205293699
Ni 1.3548712125980178 1.6253044598147823 10.131716788746349 -0.6994321053629374 -0.8531645340238081 0.14083037588722197
Ni 4.421734941870491 0.4811380368319984 7.123222588398037 0.08051435260598393 0.22563898499318558 -0.3472711906854019
Ni 5.40594156662032 2.724095361801967 11.150111004419461 -1.6135418116115505 -0.5028884950738114 0.13523102742257356
Ni 1.6808208825584952 7.806203396551146 2.023146701150318 -0.0737189269507053 -0.14270625275369614 -0.0818639246553429
Ni 4.165259005442955 1.8898493227829596 3.0217853876694196 -0.03737278422150338 0.633255252425548 -1.232929326461541
P 9.271076987393087 4.077733693947937 4.319208971502195 0.0286945397212151 0.7367339271371892 -0.5443940705167657
P 7.409804729416552 0.35740928286859464 1.7451275589133026 1.866156296752315 -0.8380497898695566 -2.113975674497282
P 5.4603723185182 3.3550173328373294 1.9656871116045709 0.29074214525042186 -0.10342853819999608 0.8616226920934903
P 4.803293040578565 4.110644241537307 5.766764272233018 -0.23552127710390405 -0.6272674102732294 -1.9137517871430911
P 6.848439297317628 6.539455534473393 11.40274661024487 -0.17960955353794875 0.20838071213337014 -0.23439950479463503
P 4.622400036341883 8.37093624839223 8.862734100834249 -0.35305360169513395 -1.8593996947547722 0.4825405275450786
P 1.122243232377262 8.555767109595156 9.493536464064563 -2.389176015358363 1.0004486359561737 -0.9493636443549005
P 4.966198871055891 4.318798624724872 9.286550557126327 -0.38306891711030155 -0.43202169285992054 1.085914419030162
