# total energy = -340889.72879217734 ev
CRYSTAL
PRIMVEC
9.07257846650030 0.00000000000000 0.00000000000000
0.00000000000000 9.07257846650030 0.00000000000000
0.00000000000000 0.00000000000000 13.27863565600716
PRIMCOORD
 96 1
Ni 6.752293887755361 2.009703189980075 10.933774627469035 -0.41317319269484976 0.02708631469383077 1.014373216457066
Ni 4.751881018326309 0.7234800838795521 5.8263465093983875 -0.4989282248744827 -1.399076840957313 0.29050508953895127
Ni 2.74680484346442 1.927042925780483 4.405333916615777 0.06491315573361724 -1.0981636687111604 1.0431209780137196
Ni 3.531283502727524 4.567335695739996 4.914449833616973 0.28427453524820717 0.10781355464156915 -0.29688759602652737
Ni 3.813313683048951 2.633452045647528 2.4169902985822604 -0.270481852339489 0.9591189239694515 -2.0238939899178368
Ni 5.001567455713751 4.579737910772467 2.832293030433304 1.3529227109987538 0.2190621031066163 -0.07063026072305255
Ni 4.995298303857542 4.649932451888946 11.151438491207163 0.11786965332599054 -0.19173898981163107 0.624507588139905
Ni 5.763419103791058 7.783510396340395 12.156339078121981 0.4773687535361521 1.4436834239230945 0.5645494624187181
Ni 2.3970932263161946 6.778704164243673 0.4207843838792938 -0.8589837118087464 -0.4717789181532004 0.24982766642424714
Ni 2.95018483935535 1.6666780633065617 0.13939382035361586 -0.28295324533362237 -0.29486825160365343 0.8900297824812736
Ni 8.231741145191329 0.011989412703299427 6.5955777929602695 0.6882601479065179 -0.05847845585186703 1.3833216350055852
Ni 8.5990989278393 2.5752695986810057 1.0821345418160047 0.6259193808857673 -0.0920200392527383 0.37810360268522625
Ni 7.069679907126926 0.998437281875219 4.860140470481732 -0.39791960896988887 -0.5629697766364239 -2.57280960245404
Ni 0.9509060422591875 7.699026543829517 2.5193689052482555 1.6463809696287581 -1.0493389338989736 -0.022709268672057664
Ni 7.530058838807763 3.8559548027655666 3.6286259209776266 0.378522949610832 1.3904793290962891 0.22212120164791424
Ni 7.943732135530912 4.022599927649565 12.505593437305587 -1.0423915560468628 -0.08895039918847907 -0.005353808112745618
Ni 8.153943783155162 7.34846210428696 8.67975324489648 0.9137425527171812 -0.5603855608490156 0.6349418960993517
Ni 6.988961174761239 0.7109054898524821 -0.018319350836551042 0.1933202182558219 -0.7088677968545404 0.9484406183199989
Ni 1.6943675733863723 6.628453189003913 8.98452384363699 1.1380782455179108 0.3555596559464393 0.8525811507165123
Ni 0.5201635960392644 5.186756931385145 1.4494823446274487 -0.7320185239393909 -0.45910492222995763 -0.8807663549014767
Ni 6.881333174080769 2.0751436998770854 6.86607763305875 -2.3212274152325314 -0.6397904824409045 0.6587554535791816
Ni 3.297301699005925 4.332628085725348 0.17537203830004358 1.205166811636292 -0.07234904318637217 -0.06884540090848788
Ni 6.315757692801175 6.048180130290082 4.5937441577125755 -1.1115457464450211 -1.1979345555539112 1.3065348677628337
Ni 5.170018023751708 2.982247332350779 9.148475319915912 1.3334872279819614 -0.1708750018784283 -0.003083266911014045
P 0.373167862023829 5.745954389864573 12.464177115708491 -0.1565174476051756 -0.46316135168751843 1.0521267810567558
P 4.258976892138224 6.34532522666425 12.600442710939067 -2.3912308410048624 -1.185027874794572 -0.24065011369003717
P 2.613347211330077 8.75042953993997 1.3294702740718343 -0.679952656482087 0.26072220184956385 -0.9049488656849511
P 6.515027810557716 8.00397405785396 5.77082867878522 -0.6288452962833105 0.592945754173224 -1.2119491246654484
P 5.068976715180656 0.9756197465374983 12.1400592429689 -0.7268750320652385 -0.6512992544114525 0.41735894864142314
P 3.9648257467228825 6.428602426212933 8.211150020657534 -0.5203149180803748 0.21783080180267647 -2.138001090877602
P 4.741157230346514 1.307267859567472 3.6537896251576276 1.5692226779792007 -2.0478026782146346 -0.06477483038354005
P 0.09927487750534493 5.839420095251929 3.500209013548507 0.10339588518984774 0.17431128125348688 -0.3838790717164227
Ni 0.681974851011558 0.22169662495388154 4.5423289471708665 0.4407169066410732 0.41347452598535245 0.32919350724808466
Ni 2.0294360485723386 6.511689101609691 4.566987308719333 -0.5054752819643812 0.464446131937213 0.7821578637979433
Ni 5.84558037616418 5.497093557135475 9.113805367812704 0.6321681900089565 0.9498128160771769 0.16221706909311417
Ni 8.973950660463004 2.6073683819910873 10.09241362176183 -0.8235621377763429 -1.9129586018178344 0.23300982353596
Ni 2.1535217069476897 5.309536138433009 6.92734475677073 0.5105274996763078 -0.1767006074212699 -0.6457330731775847
Ni 0.8289941737315176 9.23407056331302 8.900629708739217 -0.6783793984576961 -0.12173967780435808 0.46980173982217155
Ni 1.774160902728422 1.3467789396453147 11.13940825189988 -0.4567477348516908 -1.3583618797364543 0.1366363924105324
Ni 4.75590924325273 6.781507591050573 1.5904747533415047 -0.6266282340273337 0.06772722814364465 -0.28275064240451303
Ni 5.998997681357364 8.037696832744738 7.844048991985726 -2.36516936803112 2.078911226693981 1.2113099484195524
Ni 5.331664157792332 2.915636459806228 4.986433487245818 -0.43823707764201303 0.4791019341771749 -0.3163963554834164
Ni 0.8921928494408732 7.5027413044531395 6.886512709239538 -0.17785503274068726 -0.22308767932624163 -1.1202101069882386
Ni 4.916829571000306 4.807323546536572 6.987045953405456 -0.5203306018096587 -0.8692084748605482 -0.5936574355282678
Ni 0.9526389047838414 7.3869661281331975 11.249474054467129 0.80031859386737 0.5430043892580906 -0.8017378428123999
Ni 5.094652112797256 0.15206639823024748 10.150640524363805 -0.8347166117312657 0.10960664198624995 -1.030779168618915
Ni 8.304430645440162 7.4434520028897175 4.722347960262154 0.4583608449750816 0.1323501063303527 -0.11092741768020252
Ni 6.781661824887846 6.189739575170583 6.936573383786845 2.2925693851762063 -1.9239716650988865 -0.26652929544964415
Ni 2.6643441759954163 5.201654105549971 2.5179218289514895 1.2525049346006234 0.8550157282999339 -0.355593080287536
Ni 2.2610317641055393 5.393248821757521 11.477840839254126 1.4005634528051687 -0.0576598166053136 0.08854107956520235
Ni 1.1372114451061446 3.8757693145657983 3.6541343831468254 -0.6616605430411185 -0.9938725254005528 0.29453632218553144
Ni 1.3944734856772822 1.2542114195456069 2.4167253792852983 0.03088331984241778 0.4498620634754511 -0.7428472391237787
Ni 1.1023727430398034 3.5763470009471896 8.304126714054949 0.4786211378860144 -0.39418842406223076 -1.040486882824982
Ni 3.598955866975659 2.7241596871212983 7.192000948952302 -0.37316014263702185 0.90562635136795 -1.4957076395091853
Ni 4.195350897973836 7.233077048849531 5.999288003874584 0.2770924156774712 -0.4594803032915054 0.26672264240737287
Ni 1.0886731492585078 9.129463731327366 -0.29952120472603627 -0.46022052389163964 -0.34865727239965116 1.1002909994668082
P 0.10478284001171881 5.569030033355271 8.013365084028143 -0.3641417411884954 -0.33332141337352916 -1.079502344856231
P 8.731086802230221 1.7757848943091183 7.8992084557417 -0.32762796253317766 0.5392505786426133 0.9790385457115139
P 2.0574793892200107 3.489032503893422 10.440872315796682 -0.2735293809165612 -0.684977106279872 -1.4109563660037183
P 4.282964790123486 6.516134665154615 3.8229723502936976 -1.1030441367319133 -2.4258944538253187 -0.36436388450163054
P 7.0625307151403955 4.136832765596779 10.452066063351225 -0.20570882172816188 -0.04088182581602637 -0.5998075142900638
P 6.397928037752959 7.475949979660976 10.022953052259197 0.6896058633011349 0.07506695633816748 0.27858828349670733
P 2.5154540875551232 8.673113024572949 5.635479413999619 -0.935706458582782 0.11887135511762754 -0.8415238644610863
P 6.839336207449235 4.01225718797362 1.3799691541685688 -0.14542930811181407 0.34438127073211655 0.008323946484663083
Ni 5.457800218945546 2.5892322972435315 0.1077758837126787 -0.2950400012948274 1.884672867499264 0.9560341143965405
Ni 1.4261821481048507 1.4086539261277227 6.74792362661334 0.9411661961457726 -0.27496071404644906 -0.273453019152671
Ni 7.450392525566997 0.4159858970243751 9.250003825961175 -0.4955117429937659 1.4243335586415726 -1.1945946925474007
Ni 3.0909186795775065 1.7704955809485254 9.267930334141612 -0.27427140128890826 -0.8947228170815688 -0.5090812541480846
Ni 6.556571148256095 2.076341280260616 2.464515187393228 -0.8855007842626684 -1.0846172974852932 -0.4287311950341068
Ni 3.8961735439791316 6.732270706645877 10.316955407384464 0.5941665139542025 1.2016310305688918 0.4600235773894851
Ni 8.692473907440025 7.4065810432028405 0.5201490799134035 -1.0238716428658046 -0.17448380227560917 -0.5862166629795066
Ni 7.506733239064907 3.787157438763206 8.215956672833249 1.0076148146873098 1.4408441547020863 0.7701744661838219
Ni 3.3380194320459613 8.38480461981665 12.143896943743393 0.17807177673718363 1.0116506753195802 -0.19233420019346875
Ni 0.21223392540825817 4.875177362357969 10.225863995833244 -0.5988268955443493 1.4794824358995746 0.0513205046508471
Ni 8.831320651300256 2.7396828692138793 5.63104473754909 -0.17890815659554996 0.13047165836071722 -0.523284285121344
Ni 3.78576933422775 2.714334084429151 11.487042248534252 0.5168963793171293 0.007701996629948026 -0.3171183212511055
Ni 1.0997235500701754 3.3493420102175224 12.325880170115244 0.27417189959656657 -0.024007675768507042 1.83418694293457
Ni 2.839671758660011 8.752371071773876 7.747074920429346 1.9767512707937631 -0.4565872980144266 0.2793786406084866
Ni 5.672865696154561 8.116637339692456 3.5200471140532623 0.6054711403337443 2.124519511451399 0.08588821532338757
Ni 3.2002069621533256 8.328128220908205 3.392545629811251 0.06812034981700527 1.4470698238968238 0.44248351162319277
Ni 3.396537564423019 4.548101828974203 9.09729962545091 -0.5482383839635203 -0.4656383524731013 0.07185950514446333
Ni 7.5102443270075305 6.28396737716564 11.516494560648306 0.7930202604337439 -0.8601057412283317 -0.9270680661814937
Ni 8.087378273503926 8.693145278261095 2.6834664500436523 -1.4967777326449125 1.8695097866055803 -0.3459123626646623
Ni 4.707026189415895 0.2496401672362593 1.2405472088210974 0.933425118747773 0.2723327895052987 0.3075203931500252
Ni 6.050058154073345 5.479229649747812 -0.11179412880256996 0.7125519305743471 -0.5823039581886617 1.875453662893841
Ni 8.162199829738592 8.636287427779386 11.28361416797641 -0.612314645618139 0.8374422381925448 0.6153115234629338
Ni -0.20429723359376983 5.242281112803377 5.589934161852942 0.3692893468277059 -0.3795413635730173 1.0588543295885764
Ni 7.124269612942856 6.1918171956844335 2.514760942545262 1.0394931514531454 -0.5887905943542698 -1.7518473641943895
P 8.607427555052036 1.9557848549852144 3.4401630589245817 0.09596591127436375 -1.2775847603873869 -0.14106126095110544
P 1.9066024060524969 3.328747256652264 1.4666649013575122 -0.8505337812691803 -0.5599222480593519 -0.1531189634465879
P 4.880493893454552 1.098789074467875 7.975666705167192 0.5861225606038035 0.45542541649584145 0.8317081639222451
P 8.680362014924775 1.544198251354581 12.190518203719515 0.7819688877155887 0.9428782937408728 -0.22065875816977482
P 6.61248545055684 7.932872258871169 1.2578876284198988 -0.03450291887287606 0.36941301688976375 -0.28326486303677023
P 1.884528822165151 3.371651481150109 5.716757924468819 -0.1949670098306255 0.894837231172246 1.3098906716089442
P 6.87401160309964 4.11810696323612 5.815232600536078 0.3879313874089254 0.6822273114488767 0.9403110472343289
P 2.6456728091067365 8.591468889183625 9.976757296222376 -0.41902245238677516 0.6606444430717784 1.074471210190227
