# total energy = -381170.1248675511 ev
CRYSTAL
PRIMVEC
9.18774428444387 0.00000000000000 0.00000000000000

0.00000000000000 9.18774428444387 0.00000000000000

0.00000000000000 0.00000000000000 13.44719247170555

PRIMCOORD
 96 1
Ni 6.568961347799869 2.521631474987427 9.33188043767993 -0.03970914566416387 1.24834308991345 0.024008189989139297
Ni 6.016088850906493 2.784244762543777 3.7365305429261038 -0.27172858026239655 1.0691333429170813 0.0468796952706741
Ni 7.736815491216854 6.611371974233767 2.8211537678536245 0.2843899777801489 0.6147569365110445 0.8839432099675615
Ni 6.785305156430502 7.894982504661298 4.799598465702141 -0.6090246620129576 -1.218262468477986 0.6359081166673629
Ni 4.131186412557283 4.890838276547997 5.037667613861716 1.5845976177733743 0.7222627301042077 0.08306900070703759
Ni 1.6623201515234691 1.8935481054796899 3.6846923723449305 -0.2971269657308431 0.10988406401735269 0.4461334496709542
Ni 4.586641259520282 7.522933997985762 5.497803616407053 0.050278693649894055 -0.9576284554668538 -1.0085974903155532
Ni 8.112428842575307 8.900525962077145 11.202129343078655 0.28322398249650577 -0.4585009700973717 -1.8357252339559673
Ni 9.115252727758826 6.571120467646481 12.725158701263496 1.644379365817697 0.6164412661920029 -0.2109613283763528
Ni 0.45432659199634284 3.0009377054474795 7.088001814858421 -1.1230234080673176 -0.22700501210277677 -0.09845036825911432
Ni 2.9065152600702757 5.611488167139254 1.8719835514712406 1.900937151876926 -1.0704836862973885 0.2062472107301351
Ni 8.470282284727366 6.346085053165227 9.57138838655431 2.131056798349285 -0.3465569382271967 0.3012630993864037
Ni 1.131112355048449 0.428815901927807 8.260785182946504 -0.5246474840174578 0.904598681434384 0.9384274570583709
Ni 4.17286201946893 2.2192628190213117 5.608151178508233 1.0349034751999335 0.5722249766861048 0.13566785784967603
Ni 6.798710074967558 1.829178770818535 0.3324162540357475 2.0893956711650725 -0.8266042670367764 0.4773080755015457
Ni 0.1307213844835825 2.44496893881662 11.335686984143724 -0.3006519481649661 -0.25827605430191647 0.5506284814622517
Ni 6.293861916109274 7.248183700568237 9.488755654314016 -0.3133675959594216 0.7051862342378952 -0.5209193844335932
Ni 0.08700977349529955 7.931512974917186 1.3377667688270045 0.13274297089339718 -1.536220512021567 -0.5064895821615084
Ni 6.913088300373884 5.333439469615627 5.759875745840145 -2.003047485486131 -0.06508156299068146 0.9747250059378245
Ni 2.800755138562346 7.332545566234627 7.119992620790005 0.11579194486135543 -0.894255390526847 -1.6014774242478484
Ni 6.490442887335377 0.925251762353925 4.99149001237628 0.5965954351106694 -0.33664404998885894 0.8055520743521676
Ni 1.906851958832438 1.9789941249414 13.032561322182628 1.0405131080772274 0.5462151828859044 -0.8286302963278697
Ni 8.378928545855562 8.460681092217959 8.71573011011594 0.42301049050024564 1.5654238730584007 0.6834467856782745
Ni 1.2860269071069321 6.7574938552573185 2.9189554654843786 -1.4327120125132553 1.1488789356778408 1.3245762986455767
P 0.5563096319343036 4.802507305461451 5.898086060481066 0.23270900446608958 -1.1115562879679823 -1.9791359689758559
Ni 5.394188833129695 5.389787903740215 10.991614239259476 0.23514949558678214 0.03804872724260544 0.2529638980603837
P 8.44263636294669 0.5666155244106692 1.7188201834245214 -1.5453044766007065 0.759623173030537 -1.0626857875195248
Ni 6.164452541472911 8.62894543634933 7.4507532433518815 -2.168615216219033 0.9469185252485176 -1.0352444034791204
P 8.302394638101148 4.602150171439784 12.910379945773203 0.2805137826541943 -0.9362525608942391 0.33190113598723486
P 7.423834990898235 7.09857966455802 7.4583643705047935 0.5662222221354506 -1.9152939348192308 -1.2894709703020115
P 4.463847060584179 2.3635655267272915 9.992043734236322 -0.8899858166172155 -1.6160494085247525 0.7863276789049167
Ni 1.3771693278660893 7.888477581889374 11.212873490945164 -0.6306306703185075 0.5067716321783015 1.6644470831018494
Ni 4.821323805231084 2.6923948854944535 0.915921608293348 -0.5426763164947106 -0.4216303223232674 2.1951685412275292
Ni 0.6020195772487071 7.840407305134141 6.605960393001192 -1.0038892862066067 0.2727400522460464 0.26497660625054364
Ni 9.09486512376038 0.6023135850576076 12.923504638117404 0.6239141775302803 0.0010153286383918 1.5407577377702881
Ni 2.0730949992776186 3.2119434347977625 1.6973713949908262 0.9224269678650565 -0.12669547914773666 -1.261009629637525
Ni 6.294174299406231 3.80473667949341 12.662844664941435 -0.16596162373721096 0.3821677454522709 0.6158208589991845
Ni 1.7055944258960125 7.4849151131973155 9.08482843218404 -1.2025136902841613 1.9850497633571298 0.541431645454332
Ni 8.689115971989626 6.500301336677572 4.870290805803464 1.7731723509244106 -0.9627914877250321 1.0021180532387968
Ni 4.873096742829657 5.798109623838851 7.440129454932142 0.3026797772282723 0.6678090791410176 0.06450435033097279
Ni 7.326095769926872 6.081496400642827 0.7832386404597573 -1.292471447691232 1.527528383564208 -2.8486910285425457
Ni 7.879905416711119 4.321345150707714 3.9358724312326623 1.253733407691086 0.9259054133319602 0.8010171625962914
Ni 3.803027759104176 8.172507500775321 11.462682738423897 -0.7298852796464721 -0.009380412773635457 -0.23415242178083545
Ni 2.9420442662270965 5.768598590020463 11.349914205771302 0.44812888283442825 0.3856618746484584 -0.25096846489690966
Ni 7.639048707013407 2.814904264365683 5.691241460401127 -0.0696270162695188 0.9226514251710369 -0.128591667729185
Ni 3.016143421814052 8.23260453446339 1.9971500259154091 0.5719203009614924 0.22263876471428107 1.170235546976746
Ni 0.14398021789059257 3.8415887207902837 9.341616690026548 0.2739304730097218 -0.7531555630283223 -1.151325083225488
Ni 9.131616099872945 2.889168799345146 0.799509216359192 -0.9936454969914111 -0.38474579059209224 -0.2873223209355955
Ni 6.772607694183611 1.6410229608662383 11.524149664746561 0.5589213175986633 0.4800984937624893 -0.9790470303519462
Ni 5.327862508990545 0.29381119117830523 9.692426807606633 1.4964239488499196 1.5068052920842439 1.797418367955969
Ni 0.7335531583043774 5.177982840659484 1.1285260051045274 -1.777451695026055 0.9762594403044801 1.1225552101816474
Ni 1.1507281885485297 4.4582057857509 3.371412351570995 -0.5088740232332849 -0.4026080155844937 1.5522706235058943
Ni 8.767202608484794 8.60770337215627 3.94368476997979 0.09471558380703042 1.1893781813434678 -1.4348108040238128
Ni 4.071512015094508 4.329430365452478 9.417027855460724 -0.07022376931325326 0.3054462842298159 -1.4681330723250263
Ni 2.2889977961949004 3.2818897300839986 10.595472711418944 0.4111471634037565 0.5150750098376742 0.5298999906656486
Ni 2.5437831258392745 0.9725318931227379 10.076801591670323 0.6276412486728803 -0.4744721487146473 0.7490968195779163
P 4.823593178006035 4.85840554012866 1.1295734079237354 1.1527474174943115 0.33589765874113764 0.23013507309132622
Ni 1.841701665928891 8.786313116063328 4.542784482176354 1.2371641904784951 -1.0768235124724874 -0.2147076827926625
P 1.0217506378814885 5.37409523694015 10.535323307589916 -0.0946757317080305 0.47030824714494485 0.8864004132588025
Ni 8.22282877481745 2.000181062670293 3.1969490365438364 0.2959085199427097 0.22368006149460187 0.5901890173636933
P 8.529387042060396 1.6855559561706372 9.50296909432555 0.7771328997795262 -1.350138206275081 -0.31853988418898044
P 2.278634020931158 9.149550576215876 12.97013978925544 0.44242334780921866 -1.7328857354902218 -0.4753267834054588
P 3.6480672683255526 9.240573556302666 6.263043466315683 0.7369663548629695 0.7382405935897028 0.39835386829383007
Ni 3.841156896820961 3.9359744151913745 12.847824271783203 -0.6609252075369908 0.9489743793362818 -1.6426035048641967
Ni 7.358491755370097 6.70292784347419 11.423026597649635 -1.6061635168696082 -0.20866456192237612 2.0550164223542544
Ni 8.60829138777407 5.356794714935162 7.521606368973695 0.8814811215803141 -0.4518047890241187 -0.5181220241941141
Ni 5.677768552558262 5.367305494103354 3.2055285519173142 -0.5463149416885623 0.31868592284854147 0.012701249616752319
Ni 2.0413145926842793 5.4818858498782985 8.55699988796257 -1.6647440455169782 -1.3328143702846529 2.785634980622325
Ni 1.5206359508655087 4.2189293680260285 12.723894467685223 -0.9119684915358938 0.9000444864047984 -1.3296629691398647
Ni 1.4516084299820866 0.7499771695290819 1.637545399751587 0.21563636525451899 0.3052701636632678 -0.5220552978102493
Ni 2.2239026297555227 3.299070811416622 5.391705385918888 -1.1604689545082851 1.5377505755128482 -1.079964114983998
Ni 7.571041025717108 1.3376436530570273 7.435395929208844 1.6222275123110061 -0.35104428457458897 0.487260044507935
Ni 1.8997773959307696 1.2516739321857133 6.308925222443412 -0.14176728587919454 -0.6403085597279037 -0.7580213757610558
Ni 2.3896403442791554 2.605736083821028 8.18291262088719 1.4711065531310537 0.41480301498878885 0.9067964604166512
Ni 4.955731312618756 6.471470195917266 13.007792083057165 0.027527258885991304 0.10138425407645765 1.0019553024086874
Ni 2.8962801132229266 4.757165788682577 6.894348058879686 0.9710107903110309 -1.5882835512653937 -0.6461688751634226
Ni 7.260881162815128 4.236193139054905 1.8820018675595254 -0.575404402855351 -2.462537816079965 -1.2504112852963885
Ni 4.611429792908206 1.4070938101657442 12.439621073582531 -1.1261267295829898 0.8107444171863845 -2.0256150863740015
Ni 5.960420309839987 8.617028932344832 11.954110359580275 0.041413529949780294 -0.4179287051019641 -1.4432062271763595
Ni 5.55763879939032 7.836373885505787 2.71371045163974 -0.5732487899649289 -0.5400483919535602 -0.11825146214544151
Ni 3.7500879780140286 8.599526279971222 8.551271329561024 -0.14774047274349394 0.7367097587674731 0.11320824329457922
Ni 4.635345490613457 8.867661401688485 0.4572326754324438 -0.5657313985419612 -0.46853701417713506 0.33079119075250774
Ni 5.27653977084935 1.7539403349720895 7.6424426596574015 -1.9972092815377989 -1.6978179452528113 0.44069402382293776
Ni 6.971797984713705 8.526924726660853 0.4387129397949203 1.2275660052670987 -0.4632521116291119 1.6496544981737076
Ni 3.89878242736546 3.591948527801668 3.2042505367230003 -0.7900508933927748 -0.09193339307620296 -0.4365728025657126
Ni 4.405266004660753 0.5416937687343371 4.026681336883597 -1.223167619089087 -1.3696042854194928 0.16634857476298445
Ni 2.0652762291096707 6.179299935822387 5.2787089972143955 -0.685229074389678 0.5136094810357413 -1.0154062857072705
Ni 5.80641534444029 0.9876824830251422 2.2490026276660005 0.7750402789165556 -0.6196572020261393 0.07098841539341967
P 0.041166605892487926 1.1707482827858489 5.1276431911293 -0.4555663129490799 0.48945859482115056 0.2563929783465907
Ni 7.5017562480008975 4.314748350495509 10.682919821529984 0.5281303003597355 -0.5973009458181262 2.3624337142675116
P 3.491857244359102 1.592079848428332 2.368951382276588 0.22152881947955397 -0.7556839858771308 -0.31052035631861363
Ni 6.660131331791111 4.904215631852971 8.727792699250486 -1.1205921729180055 -0.4851782222782419 -1.0972283013810846
P 5.682527803964838 3.620053836783751 6.916926021054438 0.48742690910310255 2.116187594546936 -1.0172579942040287
P 4.280027865813165 6.656998311077514 9.596561886417014 -1.6435877231543372 -0.10109654763270977 -0.23590360014398726
P 3.3620527967295275 6.846054519944569 3.709582889691567 1.3764557611236874 0.23165510928027844 -0.5211574685863283
Ni 2.2968073786188206 6.961094262920921 0.10972371428166938 -0.27658230881027207 0.5791492146097639 -1.2471069035135038
