# total energy = -381172.2575276521 ev
CRYSTAL
PRIMVEC
9.22781720871460 0.00000000000000 0.00000000000000
0.00000000000000 9.22781720871460 0.00000000000000
0.00000000000000 0.00000000000000 13.50584324701174
PRIMCOORD
 96 1
Ni 0.1893686471934137 6.4488230205651815 8.109232123529212 0.29232825879061913 0.5382689314556341 0.6182502943762836
Ni 8.171213524960331 2.0340692524206223 7.3560244773505055 0.2673664466389589 -0.10660745014860995 -1.7400907378790935
Ni 0.6661459608401249 7.678900258560906 1.9743791179581998 -1.3291919430407173 0.38073486966048625 -0.7053970646971206
Ni 6.5760930730511875 4.129614221899087 7.268007712949257 -0.7544413717192814 -0.1654540879731731 0.9126416063435185
Ni 6.978324389597917 6.331740478080957 8.40591474609826 0.0015922841877843545 -1.558922067384141 -0.5731397751908904
Ni 2.0905804039160034 3.523475832427237 13.25071800800999 0.48077700788675265 0.14384885099857164 0.2630127976559535
Ni 4.264986297737957 9.261406284589222 3.0832222185876317 -1.2925074431354902 -0.2644762695753574 -0.8209267570360249
Ni 1.2741954312190118 1.2752197189094083 7.839439359787326 -0.09956905524458981 4.269097998436203 -0.9693794253551951
Ni 2.3941848120397027 2.9711817553289253 6.05362976006769 0.6935869594360701 0.1765111171182831 0.30569490990551224
Ni 5.362552083174296 0.862281366262076 11.050899628867473 -0.3718684204087918 -1.331828609332616 -0.2872541867018214
Ni 2.0896207109448213 3.633056159665586 8.93191323578618 -0.9335991824317921 -0.5925420909769021 -0.6044275295605784
Ni 8.491917078041729 3.8693620981851358 9.02573891100819 0.5418491926077249 2.1310349439724137 0.24704830390689708
Ni 6.147571705784285 7.646824366562548 9.97280915127421 -0.1141865480474485 0.5047576870720661 0.7546889689537132
Ni 8.755518899337787 9.071654682989038 8.536098020420825 -0.5768683889953872 -1.8298446068054743 -0.9031539785680576
Ni 2.043020234940302 8.664523395599062 8.633502243087301 1.3170370528457382 -1.323980574043107 -0.1042860011042849
Ni 0.6472769205759584 0.29627936696481116 11.673262366242518 -0.35654001758183756 2.9052164744330997 -1.6449768901923798
Ni 3.3992232761102366 0.8985466871923254 6.704679012245757 -0.586679461548538 -0.1451017495690662 -0.1805528912878245
Ni 1.4408221233405172 4.373191680238747 4.286754718113137 0.6009028042367716 -0.9420593973840032 0.18960445996713152
Ni 2.6232561420072638 8.093921329512044 5.293290856887737 2.2742230214585346 1.9775449703396522 -2.4136670585211917
Ni 8.720794623851647 9.099199716825373 0.10677968476956298 -0.4094579486267916 -0.3863910395049991 0.7626848426749961
Ni 6.860660494640764 8.779077516216903 2.4985541910008737 0.7876386844068565 -0.7530210943329869 -0.20004133902973936
Ni 4.960376133529749 7.597104888401686 1.5165169836608083 -0.12614706284343438 0.9938822955925657 -1.0085802639243726
Ni 5.615468092348921 3.1944580162012706 11.192427581447454 -1.307288972320039 0.37747908172734984 -0.3679186917324244
Ni 0.9818766433237331 2.8513585511866117 1.7347308641101675 -0.294235503115661 0.2300088319261071 -0.7241908003648561
P 5.797745162154321 1.474236048808312 2.5784818509931 0.5868468403643378 2.028218842545436 1.4638673550701369
Ni 4.398863467217871 0.5225832746048958 9.03466590120359 0.41015343203191945 -0.5705583876169593 -2.0032040656686534
P 3.9678505893527065 8.765835598777995 13.19329053428347 0.22112129962849014 -0.4584873432506168 -0.6242970147909958
Ni 6.575456353676077 2.845720354980917 5.209365706557856 1.4818640487578736 0.4440189744311127 -0.6178304332300457
P 9.138593267728995 5.518612924795767 10.467298336929453 -0.3704496856843943 -0.773591462285171 -0.7914619148076886
P 1.7985476783486731 1.5458162255146592 9.890193428180972 0.6025927903446848 -0.31489714523007056 -0.17829134894715745
P 2.08389023656882 9.01686913327838 2.922097150979769 0.0363854806075696 -0.3277614027872484 1.4148130207456473
Ni 8.935876583200821 1.7362414577580765 9.771666732331457 -0.7224087687637687 0.1918426052690309 0.9890434794430258
Ni 5.677349833356111 6.2001610350416625 6.171049117873532 -0.20450837366215746 0.21401142805658627 0.1313142088666706
Ni 3.064465757691239 2.770836619777615 11.027264421107002 2.5300441864620553 0.16488844527769023 -0.9129827917330211
Ni 6.3122513285123345 8.50613714408588 7.472323578168833 1.4463691982853737 0.3208297086644217 0.7365061273970992
Ni 0.5984728418645325 4.476653964785811 7.00696661087919 0.9417732336021523 -1.3214272114936338 -0.06893050442312645
Ni 8.28557386142053 3.194005853166771 3.0659209844369637 1.101296043692555 1.901042824216855 2.308080593437928
Ni 8.303162080680849 6.690850205643702 0.5141564320925538 -0.8374900607113447 1.2277526673566082 0.16133595203974152
Ni 2.6254154511924237 0.7092444802815321 1.0063294356731143 -0.4642607553992843 -0.11746958967409447 0.0851719059826533
Ni 7.146519810614624 7.450465647968456 4.526591219428594 0.05082608151293182 -1.3458192671847533 -0.05728314999218522
Ni 1.167863295575433 6.532196347436634 5.63897318788926 -2.6765374170620095 -2.670772746664091 -0.20749136754988137
Ni 7.770477114772559 1.8089935672273099 1.4188829883502707 -1.4112828961052017 0.16564306405552764 -2.2819368451630244
Ni 8.841116130113612 7.567898847499844 11.101154320416109 -1.7103351038832155 0.6306173005820688 0.47188613315502603
Ni 6.182665093951648 3.3069174223531665 13.432587208302637 -0.9586561254004199 -2.214673444029676 -0.06589531714122845
Ni 2.8948123415836973 9.132087656722424 10.6960337743571 0.7765433458246433 -0.08486388782393126 1.789422494234686
Ni 8.943738683310892 5.659290995427231 3.64660444062991 -0.9875044170906799 1.3616834879105193 -0.677325246161569
Ni 0.043040384194114475 8.170825956645047 4.403958145000464 0.2745452237755852 -0.3233468186593205 -0.8601880165294927
Ni 6.632936425959671 5.10068509147999 4.225154425525382 0.18131676603704258 0.42138735307452585 -1.1583503655033858
Ni 3.931059282851713 1.7545125354786602 12.72585361703513 0.8263134752692349 -0.4149315701468531 0.9875810359648863
Ni 4.468330473824211 5.423917066427772 1.8614020312708872 -1.7706830088436536 -1.009780711990377 0.33583903758906036
Ni 7.071700670130537 6.022128761070338 11.564499623593083 -0.22109764547940633 -0.9370213207394635 -0.2814506926461669
Ni 0.9985513086980236 0.9372416923467315 4.789739032126747 0.37338382861205377 1.5953777391080137 0.7647484100722443
Ni 0.9340027285689916 5.30550571829114 1.4529723900247054 -0.5249110220914894 -1.0774377490177185 1.119089106009918
Ni 0.23978943944860034 0.7373893222248555 2.274410515327652 0.9533966767736936 -0.6845096797251501 1.1524026325603831
Ni 3.8400637791129877 4.971218818540702 7.914531643655518 0.3049960840662747 0.7004746876948388 -0.6289885067293941
Ni 2.512005579886376 2.0953604131378527 3.5252549555507358 -0.00757729812662566 0.47455570956738913 -1.1253569412965008
P 7.6730221391124145 9.221016129446296 5.971298253738993 0.6370352882932707 -0.12997543545058907 -0.03862979655705605
Ni 0.400957877796507 5.411791714849566 12.722598965968439 0.987450681034609 -0.15241679517324072 -2.230823314316661
P -0.20487507093163032 3.206057382208732 5.47062273954644 -0.5648482246060594 -0.3316345125894095 -0.8434971861373731
Ni 3.3095381223898563 5.651235111159519 5.490962693845283 0.6138593643974396 -0.5546753978381157 0.1584025804430304
P 2.3913703278453706 6.912400864731326 7.303041120305921 -0.0458895634432629 -1.047634549613357 1.220834857190852
P 5.695021102969705 4.767883870271478 9.699802338860568 -0.05882118390326644 0.5654979423749165 -0.9326105932662777
P 2.7562289854181787 5.899509528367754 12.289696231175409 -1.2245773549524201 -0.11718676832635301 0.7830052993999032
Ni 6.308274139372147 8.217223420674893 12.865936493468121 0.7398511326099323 -1.2248180102083166 -1.0175457006477764
Ni 6.0449214691359145 5.846763326220857 0.24661248736102437 1.2545944701398006 0.4576900441603021 -0.10826092659163289
Ni 3.9737010253501057 7.191173217225687 9.317316705195912 -0.45995132939065303 -0.09811921017194068 -0.35319938324437883
Ni 0.9994740904010834 3.2665918619294536 11.206837740522436 -2.5539045380194207 1.0683275591863344 -0.120515832699586
Ni 4.0378158980787 2.739397447154368 1.4309169845398733 0.40176623640948866 0.292589997092438 0.3986040366314232
Ni 2.1985643188080592 6.531596539329645 3.1703752593148162 1.0298749116370909 -0.4776335771617645 1.9293738099510642
Ni 4.230695729652256 7.959601224814662 7.057100418024725 -0.6971029430091285 -0.40565991503694004 -0.3388508278321906
Ni 1.6241234808363125 7.023642199035183 10.134001581946396 0.5114302139962353 -1.3937816539966448 0.8130985192408577
Ni 4.475961878508516 1.8017035917731377 4.606667447275012 0.650414537813654 0.31902119470077317 1.0021890156860482
Ni 6.7121941464354755 2.3318785914491063 9.15763671373504 -0.5160633418928725 -0.9616686869744986 0.9025513119870521
Ni 7.8816261709061095 1.1470730238054958 4.080479787337966 -0.7857615219888016 -0.7888797559028092 0.5021181925666901
Ni 5.5923154994191515 1.6538831907599907 7.054452957318647 0.1427684734501993 0.005683166427706342 0.06016381397408994
Ni 7.937888171341665 4.3218019671953485 0.6460902233058234 2.199041908140006 0.11049058725310003 0.7093277672100945
Ni 0.8768511665716868 8.699496822145028 6.631706357949493 -1.6634132425206964 -1.0321259124547966 -0.5695448587507804
Ni 4.589390205448624 4.1453015108511035 3.9009867499306976 -1.969486104590918 -0.11151182942876278 0.014676628175568272
Ni 8.01793025626507 5.5286251062739655 5.979914266500462 0.7027375155870865 0.6725568782386482 0.5792258334839703
Ni 7.277480989912869 1.2994335107976969 12.153529640290202 0.9924221661072715 -0.30952096851982175 0.12574314253679636
Ni 4.481821542322946 2.902554480072369 8.93815308566227 -0.6912480268902482 0.5769411512148516 -0.02648364811282536
Ni 2.4973425786247563 6.824385945893484 0.8438312688910987 2.365810601159545 -0.7017083029916238 -0.050499294301132376
Ni 5.678650955557425 0.6764478957730843 0.649909616774788 -0.9470838471817883 1.2361537469361097 -0.477872689755764
Ni 5.461280497584662 8.850233213339843 4.977511266973867 0.10916646912503782 1.2121668971032091 2.045154699068826
Ni 4.654437087697309 6.876273961056536 11.653030377402935 -0.6141403859729682 0.1839961126414186 0.8935771335128997
Ni 1.8007623544360167 8.024278994382122 12.660809503131556 0.6919895330419632 -0.8936781778671382 -0.12668030963908508
Ni 6.194993457504528 3.8200394161565905 2.225722707110812 0.26254562821154787 -0.791534934137469 -0.07245034465092684
Ni 7.8158872023801305 3.590543606605622 11.575547166142114 1.3948355491824558 0.5412010175007648 0.12422619167163768
P 2.648678777926561 4.163711005827146 2.386050491327231 -0.044455916320529885 0.4248274891043264 0.15052009237116012
Ni 4.419201575953308 4.5520267742917335 12.91670425164366 -2.112715833948252 -0.0350284523590429 -0.7873576628313278
P -0.044502993193464235 2.142265407104382 -0.628979082185986 0.26514449928697564 0.5636043248966294 0.8219086613333201
Ni 3.3124633403885557 5.065139540278127 10.4244581963649 1.0704114382985563 -0.06676332156847857 -0.34461678378169036
P 4.689918044179958 3.6841136712958837 6.006723843319458 -0.7483717684864337 0.24088331274676578 1.1752132026969955
P 7.026392088510302 6.225657493497204 2.262538928717788 -0.2178156322940249 0.09041747065230879 0.5629468938182886
P 7.313875500281547 9.320095200903825 10.01265117408552 -0.31012774886588523 1.7112326759968204 1.2890583082446252
Ni 4.652619207742281 6.981166557243341 3.8567153749447014 0.2658420395746325 -1.070478029870434 0.0020391419172158427
