# total energy = -340883.2971866311 ev
CRYSTAL
PRIMVEC
9.15661558386024 0.00000000000000 0.00000000000000

0.00000000000000 9.15661558386024 0.00000000000000

0.00000000000000 0.00000000000000 13.40163247186606

PRIMCOORD
 96 1
Ni 7.164264322587802 0.9668012695330516 6.657823811376713 -0.8714875007027119 -0.32048055285511906 0.373412367857144
Ni 0.23971653659011677 2.000244388189194 12.61298633088854 -0.2697781414042451 -0.2517979027767405 -2.705779601756579
Ni 0.7059183000722373 1.4875288482333888 3.5396930788102923 0.40427768997743274 0.26300662700836636 -0.6248834834220851
Ni 7.718257886155436 1.8644700904704263 4.324372008895208 -0.9980449116106876 1.1537527188303742 0.04924768128221841
Ni 2.8761937166671054 2.016671356769412 12.537428685050532 0.28432621442174905 -1.242788478643808 -0.6358885762833372
Ni 3.1971422538494987 1.9990998112256892 3.5292929946891043 -0.2766864384883041 -0.11401685523880363 -0.13155923499794117
Ni 6.969356600626533 0.5505277845221427 2.0927454357333515 0.3679703709059663 0.5665569797670501 0.6041868743046821
Ni 0.11638058564914605 1.3272972299584551 8.054863320537 1.0648961649072823 0.9063105219191682 -0.48636890015223344
Ni 4.331326458525461 0.08137759078203428 11.267113990304761 -0.9486303657333017 0.613250270058531 -0.44975099181888345
Ni 5.265749934914895 5.960535621609301 3.2967213653359684 -0.1375535049081631 -0.4920798344940816 0.8438432566228822
Ni 2.8128299359674918 7.11786775079518 11.382784022574963 -0.021424488422363105 -0.8472707942471924 -1.3583271698437767
Ni 8.618930077045047 3.2968761121414345 2.2779022776271316 -1.5688622093159885 -1.707226640161221 -0.5995732867920706
Ni 1.5272227773277278 3.152760137512645 5.568552806748672 0.3525013287360897 -1.4528900301230268 0.5798647526195497
Ni 2.1644133512185837 0.43686579807671266 5.201414637288658 0.4354913965760757 -0.2999081280204061 1.7533296051668708
Ni 3.259480493589813 4.489149886869181 6.9435596671922815 1.0485786586941812 -0.03225731737180896 -0.7972060163803173
Ni 7.750983630695958 6.3194749573643385 3.4741051561551965 -0.9472975058544914 1.0061572563051768 -0.5621225981447804
Ni 1.330941563010254 2.956176754876806 0.9666520166970106 1.8805128225843033 1.2515104318978383 0.9653967865583631
Ni 2.750152901445981 2.1998677672401015 8.08989561657438 1.2449703167864752 -1.3381344969459856 -1.524725366897774
Ni 8.072490721436543 8.69768612874987 9.0297388938014 -1.2975509190966688 0.36287598710219443 0.9606854971256228
Ni 0.8825695616348223 6.874237676651448 4.138652035135383 0.09525037326457789 0.646053689741797 1.1617498781032378
Ni 0.7444896280807709 5.28909014835468 2.365816776363133 0.9316919381067502 -0.1967958355092482 -1.1002624602217181
Ni 2.5687878141168987 5.3753637815558015 13.376746056726873 0.08561387861607836 0.783004785179271 -0.010194166924182443
Ni 5.322594205230387 6.1848910196876155 7.613695744400653 -1.0067861481384273 0.023135300465882736 0.9870179643725647
Ni 5.360612473650154 2.552104460296856 2.4763005014963038 0.3927234094809301 0.9400647355514776 -0.6204781552655378
P 4.286321692320461 5.834183481454104 9.855628088541904 0.3133807085855442 0.7036443436720721 -0.17024585293486164
P 1.38995595124855 3.7916538419251955 7.803207472725175 -0.8685374169354526 -1.7447287508717368 -0.192788514122068
P 4.37895001682296 5.912252786980823 5.620242818082109 0.3852605254449816 0.21722042191218716 -0.2352453977346981
P 3.7721410938513698 1.8856951256816554 10.079515583557537 -0.2921433964733227 0.7534880066670765 0.5423837249549561
P 4.338486932009145 5.905257132579884 1.213870568536722 0.6761602793191903 1.2388762880735953 -0.27706824730775503
P 3.921833447446353 1.7521550421956484 5.929632959256248 -0.996060019970175 -0.4655691897980627 -0.7452975004364841
P 8.552242444843417 6.326772780083644 5.791086953962658 1.3408197570876328 0.3222088484001354 -0.7922463583821968
P 8.902006851659001 1.3231401264270064 1.082415446447435 -1.2766316524454981 -0.13656440152201643 2.2870463984754483
Ni 3.518704284284331 7.354840965319169 4.167076917277841 0.13222772181987552 1.097143454976762 0.13593139592370782
Ni 0.09873029321033457 8.254835566646385 2.1529190515202847 -1.1430073073884122 0.012429741122920529 -0.05850776642790569
Ni 9.284167364849619 8.89520348618793 11.479503522975813 0.12190911350268681 -0.49921181755317245 -1.7686767770469025
Ni 2.286324532755384 6.973412981385193 1.996266754325623 1.6701909275641622 0.1891601733408613 0.10121636104002568
Ni 5.567964036358645 2.7846733426652794 11.363002985660891 -0.17439921298160288 -1.3272376475278238 -0.8030041111193332
Ni 4.093080474418055 -0.19326410944167594 2.4267540539001176 0.315417793620231 -0.40524493898670855 0.9801353783201184
Ni 5.401780617873488 2.923991250663057 6.759367932594128 1.0886410739327057 0.6434579039901628 0.3456151431392177
Ni 8.592027940094836 4.494396627669886 -0.014757717536642697 0.8770829925126186 0.19762193095496935 0.48661726871761357
Ni 3.380732398795634 4.287154944349892 2.0355468043899587 -0.3975205737592573 -1.4064983302323648 1.4872116862230322
Ni 6.517047254496646 4.6483376509533985 1.596362551215971 -0.0973062273523421 0.9083578913665001 0.20267106334310256
Ni 5.037878396404694 1.13820395897179 8.444717222245512 0.3682691330933077 0.9499038331290866 -0.28486588897530296
Ni 2.079613933146456 0.13612499610038553 10.068097283769616 0.33544077370937714 0.8350619108858264 -0.6505790884159762
Ni 6.925212556298088 2.3510160227326624 9.416067498462315 0.898266311458453 -0.18764142270348974 -0.30879128944264883
Ni 5.383787868007196 1.0441197325717133 4.2373814126841465 0.3187571424061091 -0.08369120767206877 1.048754007929781
Ni 5.669602470717852 1.0215669880828189 -0.02432729661311182 -2.5026665657800513 -1.0366862781319695 0.8719577554709113
Ni 2.3260184618497224 5.0882123129517725 9.10662424891707 1.5791371088794353 2.2650141012657574 2.0238731639822305
Ni 6.6818938070884295 7.550188204834423 5.981818343499491 0.24138570630448106 0.10079032924620061 -1.2833206344298997
Ni 7.021311238153933 2.6237732914436593 0.42047637162089785 1.716237842520896 0.08542001743771742 0.21643057902104015
Ni 2.5714615459036456 5.19268929818047 4.3898656184085105 -0.3300370861953026 1.4141874713465064 0.6957358874582728
Ni 4.434347541856582 3.8669486928923815 4.7771327761795 1.2912568585578408 -0.84995733994042 -0.7248713713716484
Ni 1.238368178202003 7.441819657929808 -0.076113452411484 -2.378343700629549 -2.2166213117846665 1.545719452650938
Ni 8.750867752782147 4.388482053775026 4.206772677695321 0.5634731986354038 -0.09475672145761099 3.389151825443176
Ni 7.733567747619273 6.589109820118895 7.89653719399091 0.291504220227427 -0.6425539041186547 0.85202476399241
Ni 1.8138340056049835 0.543762876837045 1.0863875863415813 0.3375313376898187 -0.16181109190394713 0.4832367822811549
P 6.667408041038316 3.8461448620037224 3.9756477936240553 -0.739446698082662 -0.07741385930378925 -0.8625410901427017
P 8.961671359612566 1.5910443888127435 10.191446053972578 -0.9160562884520224 -0.38089710626996337 1.044983228033439
P 6.08399427120076 8.244946421681705 3.617984890098718 -0.13242569676329452 -0.6877873220351575 0.207814555217255
P 7.972921682227351 6.84913939299572 10.375034367595571 1.3010062246351208 -0.4258906402615182 -0.2666989882582891
P 2.1680943107332142 8.552114252223504 7.762962315365212 -0.4256548701016283 1.4030242556408352 1.987327503647713
P 6.827163515296432 4.079894947798482 8.069806917372517 0.1372765970976926 0.8417650339376149 0.17707264604870793
P 1.6546920245993064 3.8585246064409873 12.292205359773602 -1.7016362905576372 -0.40013924232902703 -0.9386760827340673
P 8.393659017395928 6.338392525417142 1.2621057887635172 -0.4224733870498531 0.6717338681167205 0.1800975489179608
Ni 0.27650232453558327 8.25980760897585 6.734870322928847 -0.4524262246582015 -0.04845449595696171 -0.1495091346081425
Ni 6.779713932697385 5.162774634662315 5.9446965077575395 -1.1500421027480066 -1.8013362149531364 -0.8840504249693871
Ni 6.56207949054877 4.899183138275063 10.441157952269586 -0.32478869331216964 1.0339627085532193 -0.97157669011683
Ni 3.582379389918018 4.260509192639505 11.19047036984378 -0.7352509148337595 -0.6596553396856316 0.0949248716043591
Ni 4.735581885419571 3.8163675477211867 8.974738765889507 0.08031457789035201 -0.1704512840774484 0.11048184550235167
Ni 4.77620978931613 8.786963131903228 6.137961532860786 -1.9942131750239525 0.8007551671841564 0.14144358399118864
Ni 5.780855351570497 7.345922421619541 10.505258840533697 0.9774400908761424 0.5899455338943195 -1.3188550798910836
Ni 8.487963002572998 3.740999443828337 11.083364520245306 0.28781931517667203 -1.4570984117774195 0.4427506492416504
Ni 6.050004913692527 7.463429271000775 1.5090642927171203 0.04262786197285562 -0.23824844622708 -0.6996516775729111
Ni 3.747454857902503 8.34500991813913 13.626511979056561 1.4892621409941578 -1.205762279128446 -0.07084777605049733
Ni 1.0965688273473473 5.769684280406692 7.20679497122849 -1.5739787046069473 0.746846847201475 -1.4007300602900197
Ni 8.14549641847672 8.634926684686986 4.486276540859999 0.30468060970838495 0.24017600226709607 -0.4496216653298708
Ni 0.9061496784061583 7.243441578615195 9.084511021982163 0.23162374182171075 0.3320145216366476 0.8282739414297153
Ni 8.690681317733222 3.8066065953764197 6.889296646844885 -1.2856917057652373 -0.5095126852585483 -0.5018561971545551
Ni 8.174522890271195 8.728031153206304 0.0021014433049944153 -1.452354726444847 0.03429003153112159 0.9372246949995213
Ni 4.053194256393847 8.191160461012698 8.871639851324868 -0.43699009260878935 -1.226920915483932 0.17764214539893278
Ni 0.5689444856957168 5.909908693359567 11.567056335391348 -0.2500382397731565 -0.22414208873268493 -0.5827207340111061
Ni 2.5811675585541645 7.179033943724865 6.33485807175384 1.3798534739513268 -0.390559826170708 -1.1686070102343875
Ni 7.2316295443518275 6.480301755660294 12.890346630315966 -0.10258084548772012 -0.16027074400002075 -1.3752460570863023
Ni 4.556588361558871 3.494512505583698 -0.050611362003031075 -0.0005656426954828968 0.6778381812422455 1.7367868703168412
Ni 4.811416976713531 6.141415408305857 12.289779772272544 0.021255824054982747 -0.8897958120935967 1.3671643085194325
Ni 1.528779401998094 3.03203931601789 9.871857274222828 -0.3991146577192546 -1.1328928446622295 2.2485459284074047
Ni 9.108323716792482 4.972353654397984 9.22227963060214 -1.424739792941056 0.018857499026135264 0.09151456037122949
Ni 6.741997832595983 0.5423289508171666 11.38169804795199 1.5499450606965113 0.3093168229288157 -1.071559950080703
P 5.76135176011238 8.172133013571399 12.59246910207154 0.8319688737827995 -0.43540192218606305 0.6165363970089703
P 6.07163283999491 8.5113215292442 7.843520389041378 0.926460514504482 -1.1074083272378799 1.0919559972385517
P 2.164120339515926 8.860316780340309 12.3941514564206 0.2894645640895789 3.5953278166157436 -2.9462638792927125
P 3.777442774346323 1.5528338314631063 1.2915433926032844 0.4902114138267751 1.7979855533133486 -1.1569943656961235
P 6.497003422711754 4.293473009188437 12.581667042520772 0.4874081400500251 0.8853028093192495 0.005515787611906629
P 1.7023613659753452 3.6057928562834674 3.466131575196638 -1.3362863879936535 -1.484338478440295 -1.7073508244439113
P 9.15543450461033 1.1035370119011632 5.845229106982708 0.46557561755596594 0.7846155813098165 -1.1899170845660734
P 1.8512662506194375 8.772834473865727 3.247188652663344 1.3121612128106757 -0.5446239271393847 0.15339921369116807
