# total energy = -381172.8042125174 ev
CRYSTAL
PRIMVEC
9.21767566780912 0.00000000000000 0.00000000000000
0.00000000000000 9.21767566780912 0.00000000000000
0.00000000000000 0.00000000000000 13.49100007677130
PRIMCOORD
 96 1
Ni 5.902289871598033 8.514745133752559 11.46548817888327 0.6916462907699313 -0.6318223766337635 -1.6844991166567183
Ni 7.535542207495449 0.7490430901745694 10.272371570279613 0.5798331280506659 0.3870474421420753 -0.27359520115749014
Ni 2.9157905399667348 7.447633232641461 7.87042037216415 0.2864987965930356 1.257948474213698 -0.24169243891162245
Ni 4.113157418918004 6.3530803104398395 2.2675003342153635 -0.7446210431947499 -0.15913405929241625 -2.3795194661052053
Ni 4.4262173447821125 3.930352470894065 1.4690219265363975 0.15439603038679858 0.3878300859443708 0.7055407893638366
Ni 1.863095083929732 0.4778212733557331 2.573623958980843 -0.00028924910564466315 0.045228789930812426 -1.2004190125386618
Ni 6.355753436444627 8.31944101723727 8.61857764368679 -0.28324377999084766 1.8685579642152725 0.333982958216928
Ni 2.246992848920705 3.1956760503438457 8.650712305334684 0.7949136208017149 -0.30202388881182823 -0.37817405091184547
Ni 6.2615027005861785 6.201984167438207 10.797954231200192 1.2191865229541519 1.294956418896615 0.7327075795866156
Ni 2.3780497645623124 4.676246802988513 10.896802743786877 -0.15979380436360222 0.3745369683798905 -0.3794164079593788
Ni 7.095582537810971 3.8874165366516538 11.451376838880757 0.3936947722552639 0.24158805212327425 0.5254668945949595
Ni 8.069457647410262 7.730910847741888 4.056878898841352 -0.42355273615696093 -2.004138918778097 1.613804064134001
Ni 1.0747164837109233 5.862027063360411 0.784315448691532 -0.5502654416958782 -0.13743137750800202 0.9041415392923073
Ni 8.295816113960477 7.219136265287417 12.707402241820525 -0.5427189968071879 -1.0824922807224906 -1.6935067194719675
Ni 1.4471013715295538 6.892572444261192 12.275812221833794 1.169579658560302 0.5306196424404926 -0.9319148527508339
Ni 8.754192700050352 4.05734439147322 2.24096264536094 0.6023865878711496 -0.18618386432135678 0.5540760736912199
Ni 1.2628769014203147 4.515001998844566 4.785446765586838 0.37141462070082487 -1.7986411846194765 -0.5747040343542167
Ni 3.5784031704982393 5.631483771961322 6.343306808705785 0.7740588888398927 0.09082730449621777 0.37003496674447883
Ni 4.826024818339509 4.788075646747409 12.063719952240854 0.9668607726983992 -1.9298106403781667 -0.41814262088498305
Ni 2.255297974887303 2.20505242367318 11.264661752749124 0.11823577841615768 0.6364837866651748 1.2195655035601254
Ni 8.02050257081914 0.2132260437260058 12.532451675412721 -1.7338565840439235 1.2666385457885283 0.6399115813998012
Ni 5.000358722231036 8.61177039005046 1.852557436865343 -0.7876710803066886 -0.3730968934992542 -2.3961994978640475
Ni 1.4134476368968694 0.40728208692733503 7.2310408936845985 -0.018404727759432818 0.052863937878567024 -0.5437479522923345
Ni 4.342050746334826 1.5747661824478447 2.5520794851498456 -1.1331278434911711 0.9087309584352028 -0.5262623939130614
P 1.3914542622505848 2.427843649658385 1.6144279982181855 -0.5325415420535539 1.375687001278463 0.5961586046835669
Ni 7.803601439720346 5.0604395336076 4.384143263234348 0.40121087812665096 0.9405496456076963 0.034040634524476865
P 9.042862655539746 1.0314026247574901 5.542358985658948 -0.0862222016240386 -0.4037459858436789 0.41359099695855867
Ni 5.586676649515559 4.655838868593343 5.322914697785254 0.364066922086502 -1.722893914384833 0.8565943856409636
P 6.806783534859277 4.756827725519033 7.41036340376161 -0.5623483410023412 -0.6530146944406624 -0.6447709663746315
P 3.163985680673298 3.5641342082382024 6.0796379555018545 -0.3036861070055996 -1.3931329646690522 -0.12836823886446924
P 8.268596317091038 8.005026093019008 10.32598433849218 -0.46862828833936065 0.293265683003224 0.07027184894236929
Ni 7.820313086088206 6.507531687461275 8.25848913549018 1.5828191857167127 -0.1948669939176515 0.704697981747567
Ni 0.18952647727459657 4.96023417913159 12.387747068865293 -1.3394768699064932 -0.6431002635404279 -1.0918094443583584
Ni 0.8741297171496223 9.250398627945906 11.663145568050359 0.8884202719023088 0.01609279179680454 0.10175577848326346
Ni 5.529785153992981 7.001460849414823 13.416920859595344 1.0431248346684614 -0.15771198213390902 0.1403374954112035
Ni 6.623176649033902 1.7994101612846438 0.9326859249358702 -1.6502329963849967 -0.47727619382234576 0.13578021505782423
Ni 5.104960908101127 6.529313055562352 4.189576560789345 1.0441298788942082 1.0813129157024086 1.0727742821037785
Ni 8.846092928559765 1.189310630233392 0.9078295401616997 2.218441909933173 0.960949292309971 0.981847990135851
Ni 2.6271205844773404 1.4579137053351245 5.030754008440643 0.9968876580777929 -0.7487350653631235 0.40683773739512513
Ni 0.5014747514277494 6.180165928633615 3.343987533462561 0.32600199689398046 0.27398986549274745 -0.8217762495205138
Ni 0.9738935449510485 2.6434543061341786 6.459031964058554 0.12689268276020726 1.022534669221936 0.28549375236728897
Ni 2.077535095568946 3.9482071090708684 13.130277871031648 0.4097999053472426 -1.3187188114235353 1.1483354044695449
Ni 2.1703847446938522 7.796301040424512 10.247008213332121 0.09446412991785667 -0.42341749613067725 0.1286942547453203
Ni 3.4181077869697867 3.489369639187065 3.812610488059062 1.1326524465166492 -0.030517708972882925 1.23768586730992
Ni 3.8144770674244746 6.792155083239975 11.343664609169231 1.5344315384419442 0.6745631100353995 -0.9614637700525442
Ni 3.6915777949354074 0.3250862275828886 11.559804360240458 0.2301499854896617 -0.2408941113800432 1.2720409477510222
Ni 5.186896828985797 1.94556563001536 5.070497861526303 -0.23692278543712103 0.5465450554214974 0.2324364675309932
Ni 7.7805849030515395 2.7311236214153243 4.233017623669903 -1.1460738621288777 -0.191526873800825 -0.2930283701814373
Ni 8.005957078282746 6.391656283991684 1.4253513435264638 -0.03688530306212357 -1.51753116314218 0.1535611931903291
Ni 5.78507790512605 4.338999695619017 9.618246575697102 -1.997123406692212 -1.7131257792544754 -0.18855056478132043
Ni 5.814758821455067 1.8992836794290253 11.521516899943611 -0.020825678496099616 0.4689501904551536 1.1967503054378228
Ni 3.378075420629127 5.390441547736534 8.714269102285058 1.0124065796489983 -0.8207166979077478 1.0592127413692598
Ni 1.1249067288697747 5.587579981751659 8.570333249905906 0.018478261309845596 0.6088415994678741 -1.858542488960799
Ni 4.114484764244518 2.660396394399003 13.21450254083697 0.5652575442293363 -1.337435671106748 -1.1060718678146433
Ni 2.9505780487324844 0.6921220980891809 9.410971463518305 -0.20602815274079356 0.44421232138884137 -1.422966503090717
Ni 0.6679330730486194 8.020898930881918 8.724778174554224 -2.262974702238225 0.14576792239815542 -0.46098491286149
P 5.348408945730223 0.31874907541636693 13.14499665587456 -0.5678415029064285 0.8419331840843629 2.052592129183478
Ni 0.981488909874996 8.466370770741786 4.3672666204682615 1.4477743061630162 -0.4865504200354202 0.941366742192353
P 2.137016758013403 7.208978386469226 2.111516979462908 0.05442742571094498 1.158285059483089 0.2753898311640677
Ni 5.589460387630888 6.238292592723921 8.445676166626793 -2.124034087174548 0.07890561335796734 -1.1204371353973799
P 0.4652391457814755 3.944575344774709 9.676757616871544 -0.5744590082229462 -1.4033847243040476 1.0643996848868378
P 2.5523836684538384 8.387753213173404 5.821096895389177 1.2643867736398742 -0.3355441320564609 0.46887485713252797
P 7.103076508300254 5.378725881694863 12.939366898840088 -0.21096364236919796 0.30540283258639017 0.7864014695656456
Ni 8.85492346205144 4.88846535474099 6.618077430737873 -0.5496830868298468 -0.48625088651713033 0.18213463395264762
Ni 7.555802659076561 8.5975106454663 1.544652035352534 -0.29833821243012487 1.6980498587579596 -1.344181474471014
Ni 8.688756418988334 7.5501983121423875 6.388608920346227 -0.18209529607427993 1.3739643621604014 0.08778131858104238
Ni 2.947536215692554 8.383337946427565 0.18787835682750698 1.054560587309229 -1.5560879403694556 0.3645325488690109
Ni 3.790059444022124 1.3940167761448292 7.265483661372489 -1.4221856590606343 -0.5277621183870395 -0.7646509652624315
Ni 2.8331632933911712 6.4721265944116615 4.261726075193731 -1.3074105854995677 0.012526928822417136 -0.7294420214614664
Ni 0.5666280498402949 8.175276566496326 0.7044120253380876 0.427517891452296 1.1662901891757527 0.6414796972178695
Ni 6.368123557473678 6.901578113594562 6.060076203752339 0.8894155459360424 -0.942440691982822 0.871357659993067
Ni 5.2704642785009765 3.0137099108248577 7.628378030106537 0.29518372596154324 3.41392671839501 -0.4477727850465902
Ni 8.601925912212138 0.5419080866691273 3.436670342654065 -0.6135639446442078 1.6091513958533383 -1.4421399906953745
Ni 2.278498865073681 1.257097418644447 0.08907316731745273 -0.9098637864880653 0.9997559807645234 -0.3656553496195445
Ni 7.652025977573026 2.6778823255406636 6.604897075999096 0.1837102059698836 0.9118659045197586 0.1089353269508382
Ni 3.609346908422623 8.738061767262842 3.834951369085969 0.47104203998717586 -0.05218156709956174 0.46313589776622177
Ni 8.967535808260015 2.5282886637072384 11.420658012247811 0.6012969543513967 -0.20837916947147336 0.0011050601387206775
Ni 2.2646354805523017 4.509075033254641 2.1959167851099224 -1.1162187264406584 -0.3841264118405385 -0.09965852963460256
Ni 6.181410314877223 5.152302891413498 2.3878933206330446 0.7945441532774381 -0.5859904059013133 0.33751642529148324
Ni 0.8443981036032724 1.4567614958503026 9.656088822249012 -2.302973611228666 -0.5278230535319619 -1.770373705133351
Ni 6.871159783195258 0.05831562644581713 5.549563521125644 1.6001376223905022 -0.26402092720549364 0.04582400031265012
Ni 8.316666496797819 3.2926460005864757 0.03271353169306963 -0.8104708518100237 0.4301815543273882 0.3610541034021072
Ni 9.050845162850594 6.066760862299483 10.385695521066014 -0.15587852846959604 -0.051281166772479424 0.7395755103510424
Ni 5.289968880660045 1.3765308450031686 9.336582053875425 1.099466960903616 -1.5588971276834767 -0.8431696275946254
Ni 0.8555883621198647 2.310640900862279 3.8930844855493905 0.4549783016560939 1.049853925862179 -1.0488877052941679
Ni 4.734732956438083 8.519252577257182 6.341997898731027 -0.47447600536938933 0.027307943786333614 0.006296888752305284
Ni 6.13005864255767 0.4687695156429705 3.416852339515124 1.4871126987513228 0.16907034456952172 0.5390973408942007
Ni 7.641739051292534 2.9833561041567043 9.276115021879548 0.9713920849098495 -0.26714301777424315 -0.9813368548273875
P 3.9810865589297526 2.799730782979572 10.145191609112535 0.11009746557973944 1.5372957473636168 0.17589533791115514
Ni 3.4644450436113927 5.946940293553861 13.322767831101206 -1.9516645030284643 -0.6992243602275054 2.74529102958764
P 4.359204841144858 8.297235636045778 9.707746521407733 0.3330984987294457 -0.84963723759684 -0.2659885924548258
Ni 1.2726384201757277 6.307388291109734 5.974678123807674 0.797483181301104 2.143440259615302 1.29093547066268
P 5.878056601713255 3.05806536715257 3.1752284799423984 -0.48988771193876923 0.019192513768050815 -0.4116757822137168
P 6.136566321727946 1.247640083193027 7.052892715514518 -1.170657465005513 -1.7522453709637567 1.5432285679082842
P 6.533073867320812 7.387312761692053 2.84511677547051 -2.436495112159301 -1.494303302962491 -0.8518792395534812
Ni 8.157394275291887 0.6572700655922815 7.978051486327942 0.44670783411718556 -0.11710963523151445 -0.8349559814355814
