# total energy = -381166.85576726904 ev
CRYSTAL
PRIMVEC
9.26348226867452 0.00000000000000 0.00000000000000

0.00000000000000 9.26348226867452 0.00000000000000

0.00000000000000 0.00000000000000 13.55804266733930

PRIMCOORD
 96 1
Ni 8.332946694360242 8.875805265757098 9.03964847165956 -0.42299172144716823 -0.08384315986890077 -0.8898107244919321
Ni 1.363334434459395 9.245955478990018 4.411895407200301 -0.7790087766460003 -0.7411431119484784 -0.3386286845190555
Ni 5.667537231820883 2.893846928336541 7.345882855682518 -1.2620673814780783 0.08032846184742294 1.1844048964985923
Ni 3.1250634387297964 6.98881545805971 1.4656783097989672 0.6132361289911438 -4.622147486366278 -2.4185788940005124
Ni 5.778939866195453 3.950810223042887 1.246922109026304 0.09515010024128776 -0.6374428081443345 -0.5528571136824543
Ni 5.194377098893533 6.120632662764588 0.4951803559584326 0.26934336785967167 -0.17379448951806845 0.48551349413047346
Ni 4.96189149146807 1.5971539832909716 2.951057266739494 1.2666089781021734 -0.29654255398228285 1.137508746167686
Ni 5.051673158885196 3.537297650629245 10.28255486124454 0.3990737771789902 0.058121072512448295 -0.43529239319139224
Ni 2.883638571186967 2.4402697963295172 12.536810233884125 0.23332889743827556 -1.3551084057961629 -0.1057355890666179
Ni 8.285721463190978 4.072939969558298 6.499685082186928 0.31814907650846497 -0.7395369438036231 0.5948609689180658
Ni 0.7930800414344538 2.839238702023711 10.994283930218156 -0.6070194586574708 -0.5889996250412823 -0.5241679732778779
Ni 3.988327325089869 6.606854305293481 9.94215339406438 -1.696135929564698 -0.44894315120560746 -0.28328440342079597
Ni 8.309167336099847 6.224216918342207 5.7337905813394565 -0.9851539145806324 1.7215399714600996 0.013633017402402327
Ni 8.67400031067228 1.362204289656992 4.5722055210729575 -0.07410407820426593 0.3008923463105463 -0.17555492385260088
Ni 3.163618050759313 3.7027712293614043 6.8606672272974025 0.3914478852026162 -1.2386140355511444 -0.6319997827518922
Ni 2.758544510435745 1.4168958873077044 3.622749566565688 -0.8691778787329288 3.7737284374472555 -0.14757695058243617
Ni 3.704170015141428 6.03529746670118 6.393308813138454 -1.853141886770518 -1.0297581835535685 -0.455118426778384
Ni 1.355201097274889 2.7726527935018077 5.400507173718038 0.059061067828214416 -1.0891046438326857 1.2735715254629358
Ni 4.672833799548554 5.035406484516182 8.267274165162247 -0.4741592454599189 0.06342037323817465 1.1034549990170868
Ni 3.4656816713884493 6.709410314370553 12.349519302376397 1.6758532680562621 0.3697950828195309 -1.0752641384051678
Ni 7.304413025871721 1.1440678158292532 7.067644910723711 2.8312489218066985 -1.6383701835091395 -1.8778100789411596
Ni 8.45940248696354 8.108983490362737 1.085485555744039 -1.2302309536937717 -2.9404336457641813 0.6962357099128267
Ni 3.2776422505361786 4.603153888043023 0.029893256371756147 1.7444556997160088 -1.058583592425693 0.8918804625367671
Ni 5.7432847240278395 8.556696838272048 1.0280464093360095 0.7257581448519759 0.4839132395228892 0.6217814474579937
P 7.517445321124673 4.945383966567399 4.2035087481637845 -1.5439731593837924 0.3029973084686911 0.3516454084936976
Ni 2.517619870920209 1.4715967484404036 1.2835489904543442 -0.7317369881432301 2.129170379959849 -1.6591863489235426
P 2.357982285839802 1.2093753638369633 10.812389903316001 -1.3586249035898537 -0.6352712544143124 1.2334366051152628
Ni 9.278488827728042 9.370289934218315 11.103846837070128 0.9259853746402763 -0.3811141073767759 -0.1100576134807395
P 6.762953240254888 4.567906339082834 8.58933115896373 0.29460497063993774 0.5839908589727814 0.18696342279985864
P 1.0811965635841 7.580501843009564 2.383910771921161 -0.18835079006568853 0.09384732226946418 0.07320264943591909
P 2.3936374280074153 4.948663239190765 8.45042987831102 0.34983175232372654 1.3911455019253782 1.0505434957300361
Ni 7.7024463198852375 -0.08733147643158695 12.847966888431612 -1.3273662026858881 -0.39714390714612896 0.3239471712474808
Ni 7.751829942357451 3.7442345747348105 13.436087759164705 -0.18843409380811418 -1.0903022636852127 -1.4842826855016953
Ni 8.528989763649202 8.197551641639578 3.959246476088365 0.9044852957849714 -1.1608137394422138 -0.6463154280436159
Ni 3.3507125964489184 1.9994392155364795 9.21740820655096 0.9923707440440457 0.6504392204040024 -1.4231467374223232
Ni 0.8995239339014319 5.484694624363268 10.165507987295348 -0.0021522704563124223 0.9927319840382064 -0.32010928555862933
Ni 7.3944448073024915 3.1594494838652034 2.96889965939448 0.02046392428130669 -0.17574261438337474 0.7559608936876013
Ni 3.9806293715587473 9.147225287973539 4.604108026687674 1.2213891870324256 -1.2118002577924096 1.2433410087131682
Ni 1.1129795702811858 0.7811644245546924 8.880951130000826 0.6228127169359855 -0.16721992162434426 0.26063478434208015
Ni 2.6680402914236416 4.265796401043762 11.09085850897628 1.1823600981544218 0.8659472876107732 -0.21749578706076092
Ni 2.635506942685616 0.9379182876925747 6.724422713278538 -1.3847066882785701 0.7441358760282153 -0.3779948450215038
Ni 3.048908353315415 7.053669095450062 3.7645938554456397 -0.47920554963457473 -0.1289747621002166 0.748058351011073
Ni 7.519010849580461 4.434623360255183 10.955047525914402 0.227433357889447 -0.7394035035495524 -1.3457385345454889
Ni 6.766816112243429 6.325059183251701 2.547285245635087 -1.0752425411386126 0.9937514264416564 0.7407952416907565
Ni 6.81596814766597 2.6485221348772234 5.450983887064706 0.41943074356878735 -0.6324278714282463 -1.7298685459304528
Ni 2.715237732146944 4.780290190596702 4.578903018549494 0.9041950182380621 -1.4701907261850036 -1.4099065845829652
Ni 4.358560909660671 5.094924356282074 2.6594910238979232 -1.8901922546555965 0.16529750779065083 -1.8192891998871312
Ni 3.677565294875025 9.193005415952845 13.47120284033248 -0.015704555219450373 -0.21780123411632168 -1.0744660679839044
Ni 6.096936675842074 7.326182208540958 9.540821374115325 -0.38672271181280493 -0.18768847389134127 -1.7784559679208534
Ni 0.40917818919196713 0.46407914153558355 1.6596537699084495 0.7971815909002852 1.477113678557082 1.9322053658625884
Ni 1.7504275562463718 6.186560864065421 -0.12478466045285974 -3.7329183454094297 -0.36024909100230856 0.014910598563245288
Ni 5.391114929331511 7.350906441964018 6.304693418103482 2.2864028513541785 1.864134124115964 1.7129491444672948
Ni 1.355895858423907 5.410651612841903 6.2506502641918535 -0.8256408746822426 -0.010142744860956726 2.595863656060026
Ni 7.820713194412108 2.721388684186252 8.825499000478988 0.08905607152840792 -0.30774973555201196 1.0996808766866353
Ni 6.072508873842595 1.136119748284485 8.794288476968694 -1.536194029659006 -0.4725808452292054 3.6830613126779856
Ni 8.259904138893463 5.117332719208408 1.4768232049774175 1.3455469873599728 0.022185277847787597 0.41366015963359726
P 5.482415807794489 8.22634254365489 3.1457098873822193 -0.47455622378802137 -0.6157779215763912 1.1016053474028578
Ni 0.4789461037763742 3.980999910838224 8.382259914369355 0.7841185870687399 -0.0650252558314493 0.07551509961917963
P 2.0175122688929394 7.701992409267879 5.646368322784398 0.5241052383607425 -1.100358876590266 1.3417417546812698
Ni 1.163391439253946 3.572665624855264 0.23985285464965037 0.15931300807244175 0.010405254493724016 -0.7111779330449558
P 4.359765162318969 1.986025693619435 5.567623167806477 -0.4572593843807867 0.6289262860328911 -0.6682189129849266
P 5.593549801191439 7.71538740422095 12.663983946341409 1.0764681860155978 -0.5045129180511118 -0.43685562391345406
P 5.921792021915581 3.348961798353393 12.35650118874993 -0.16495323707735463 0.38190497870918744 0.027729861815100627
Ni 8.087205044211514 6.909964699387139 10.51260787830024 0.9367968634334833 -0.1602974834728981 0.9520687019908893
Ni 5.328697587703716 1.425399763771687 11.519685469810682 -1.4682991655892454 1.8524109221417646 0.9125662730208929
Ni 1.327725609701716 8.560281805800983 -0.21147973567194603 0.06102924729817876 0.4284799982552492 -0.06635940126184056
Ni 6.715227781058331 9.167373361295066 10.741766042996003 0.2658636368411873 -2.010749225005763 -0.17570019118121355
Ni 7.142811582610089 0.37346190804323987 2.7937976174851267 0.15884558151771996 0.27976404897236334 0.1528860215001754
Ni 5.623415267117235 5.616097116347575 11.504636016974748 -0.951084226590433 0.47839359525624053 0.5028424723272242
Ni 9.463480563006621 8.659326955205016 6.568736003265548 0.2717581479487513 0.6001834095722437 -0.16398418829586597
Ni 5.040195704703415 1.6881676938123549 0.7308136945630459 -0.5805880039388194 0.5457978928428278 -1.7744874701914082
Ni 5.246159963200355 3.65396194277238 4.257171172965751 -1.1970002166650997 0.34486566656770284 -0.13792245821180762
Ni 3.207749278944948 7.951837781936809 7.523167373947987 0.4779313109078414 0.6406723708252257 0.8722889135580848
Ni 7.328173857168143 1.8356793809718976 1.1231545788956068 0.7945868335899154 -0.6094532649099439 -1.4172730522503658
Ni 4.348491504740901 8.646061648999762 11.298255828136595 0.24950987807351224 0.01704898506248677 -1.7503898058122562
Ni 2.193935283333626 8.232298962572473 10.678422353169518 -1.2325179499557355 -0.1884549197437206 0.07346773017184767
Ni 0.21984836529891982 4.129947437705738 4.060741816477936 -0.8142879115632685 -1.5052438611343948 -0.2695901937631551
Ni 0.08679326812814753 1.5261864477892597 13.001593400050714 0.8948629422038589 0.9385673250703449 1.1913594734395545
Ni 7.455509680560198 6.473599116911791 12.881536820803973 0.7863719018792908 -0.014515420007355645 0.4043455671008907
Ni 3.1643776562822388 -0.43336606700798597 2.135960707666753 0.751783365271144 3.385591618895744 2.69873580753592
Ni 0.4897343548983287 2.8073537970247697 2.1745746059809856 -0.46859794932205745 -0.8343391737871889 0.8034401702154873
Ni 1.3375541640898265 5.19914779211679 1.9975605813895343 0.47523268102975574 0.27972548242494405 0.6828690587979337
Ni 1.1563048755339602 7.270897748043083 8.465682201402466 0.6453908593468175 0.03507498932626218 0.25610270079968156
Ni 7.639315690144452 1.8223492303927353 11.382409930246673 0.2559867440471075 2.126600305239828 0.037533221058767614
Ni 9.384370426838416 4.813916630209182 12.26259819819683 0.551118790835109 1.5480162191049145 -0.004039974397328527
Ni 4.880363586501282 0.419368945725766 6.900799410309291 1.1314183169992322 -0.6181055412683032 0.08817983957104168
Ni 5.076573398466007 6.167579989474245 4.442807646590618 1.2509309052452842 0.48172291673978973 -0.44183713628844545
Ni 6.614005713387375 8.95121000913054 5.026331977561806 -0.14462995213897029 0.5817234030948433 0.5779752489063207
P 3.5317025075091513 3.1058324501249723 2.22335610212405 0.5641619971723122 0.7885059175031581 -0.12266167539799519
Ni 8.367397583869558 6.315619695107041 8.192243666461078 -1.0056003553604422 -1.3875652407732877 0.2956385541107747
P 0.1258305075691818 1.9687122457859014 7.403965814088637 0.46658297577455776 0.36390674235955395 -1.4618832347605726
Ni 5.880977120281258 4.9703027331121845 6.310902730079306 1.399362747628848 0.307130099690142 -0.7335493587616205
P 0.41257510803656683 7.177188364263509 11.970191757539046 -0.23229634240870317 -0.43447143995199367 -0.5030859557965981
P 7.523438793970204 8.077302381967508 7.24703131305201 -2.1002824932809054 -0.5581242756186646 -1.3711389768964644
P 4.2944946682392064 9.219971412016738 9.137917341273093 -0.21532603310295173 -0.7214044958689705 -0.5209019009320964
Ni 0.8287685321372203 6.1515634291188785 4.209053868481148 0.2878403982225946 3.5833364485818224 -1.433545564158144
