# total energy = -340866.7581475184 ev
CRYSTAL
PRIMVEC
9.24752891589549 0.00000000000000 0.00000000000000

0.00000000000000 9.24752891589549 0.00000000000000

0.00000000000000 0.00000000000000 13.53469332295981

PRIMCOORD
 96 1
Ni 8.304669331897925 7.753220689629815 1.7574660461160367 -0.07391690189412431 -2.4204185183124123 2.154904808611476
Ni 4.433838692634022 6.29504259299106 9.205634801516663 -0.44078786908832474 -0.11649334180375422 0.5064566720410438
Ni 1.9734411583931273 0.8320427121112186 1.2711431259966597 -0.941256956087366 -1.4633927294265636 -0.09488630505693982
Ni 4.906905280101613 8.47401932830683 6.418760658133667 -0.527701440352433 1.534094209707184 0.41392883991395163
Ni 0.1342935391716143 6.383587682032466 12.42939642512373 1.110833550869345 1.41377480928912 -0.34780932257705904
Ni 4.587255196779916 6.693093226171039 5.049956229124112 1.0414628735850064 -1.1911591845032905 0.41735612042794573
Ni 2.764604244330305 7.5339802749046285 1.4579838985322406 -1.6631628170727872 1.61493714929718 0.13500528456501265
Ni 4.611825881018351 7.0957768713207034 2.6185302781164093 2.4094139396717926 -3.137356750879913 -1.5844484937900196
Ni 6.865957283554956 1.8446970613033664 2.60698473830772 -1.1336675180447249 -0.29427072722897063 1.2593468972231214
Ni 5.566725713333297 8.776089859224587 4.172678304735613 -0.011556851599663968 0.9933359361707925 -0.17963603590050997
Ni 5.616440428600828 3.131130051552878 7.905153890143099 -1.1132056506459473 -0.6751032988095856 0.37379597644880785
Ni 8.56465435887548 3.289549468823722 13.42293705687048 -1.1419487842169107 1.1669036543900355 0.5260163393405263
Ni 6.039422399645624 1.0633825936251022 9.979778735300126 0.5780541817733721 0.4531458764330454 -2.553104410715629
Ni 0.459354351641941 5.205212066764557 0.9021158622116109 -0.11517976519865325 0.14375680550539757 1.1221543751988028
Ni 0.8772390847671945 2.3573153297975993 12.047595549694515 0.5695934526005286 0.005348665906423047 -1.1008949515993944
Ni 6.187743515377751 8.57103515380379 1.7978805215873326 -1.9627611271622587 1.2089111091700728 1.3930134083720525
Ni 3.7173124123003105 8.52132043853626 9.357805663522203 0.8495817017685561 0.7784727016368722 1.4422027256125096
Ni 4.106531655398353 1.628554568753519 5.533835027360079 0.3197375040415074 0.1260845850366151 -0.6632140035711674
Ni 9.065389552756844 0.7578433146238522 5.08924805458918 0.6616394599951959 0.26803879011563514 1.9115483517338692
Ni 3.1818897375840303 7.284130539581317 7.358000725040497 1.1441817873124875 -0.7330382234531568 0.9240498481804601
Ni 3.2043982228818666 7.786937179932162 12.52097192937964 0.33940875721818964 1.182170607851435 -0.8760368106362911
Ni 5.290474283052992 9.22490017843572 11.726255018093259 -0.2200226672476727 -0.9909759205790482 1.5789730724977453
Ni 6.661549905155871 1.1004189467959464 5.638282167066301 -0.068199796904689 0.16258062308012 1.0555368351795693
Ni 3.2666433397839767 3.775599586841092 3.76498619794367 -1.050913477474945 1.904435651948488 1.2908066583942996
P 1.7809815873090804 3.6380333471982764 13.680732269008871 -1.0032218278259366 -0.36616057139073716 -0.6914231190155318
P 4.715472184723424 2.4735382727816613 10.892991632169668 0.6349177277296355 -0.4439030176785387 0.2418449053290867
P 7.693065514254949 8.610263171319575 4.062911986416691 0.41993956488440587 0.4407138213172797 -0.805588841127374
P 7.074100663622212 1.7834876676359965 0.5784014899464465 -0.716268974414618 0.31547641477230826 -2.0665293080898604
P 5.317560295147224 6.335038155404019 6.996340042762538 -0.2682992428658734 -0.12308307920612996 1.3890559663862012
P 2.0487715286627144 0.8035427528509878 6.005816879689857 -1.4589946003588679 -0.5166328412430973 -2.229166238329212
P 0.659884241180968 8.26223242186022 0.663464884363927 2.596942490946502 -0.9343681993873327 -0.5285897564946574
P 8.69086463305168 2.694017856376983 3.6875677356526153 0.9295854332867087 -0.6361919664563689 -0.1408350038729123
Ni 6.936053552477553 6.548748547858003 3.9826101446203506 1.4924765341663975 0.4490112854393815 -0.8491577268572601
Ni 6.906396727354233 3.3701046929114185 4.528275382325901 -2.5691835756656785 0.3420351390974432 -0.02640291547356098
Ni 1.3347790712425638 8.909587186159495 8.842188421411665 2.3143653980053758 -3.2850997947265683 -3.10693931493032
Ni 5.116186106221306 3.924253613612957 1.0901245976449392 0.6681142690862623 0.8266585173134794 0.5866882032992864
Ni 3.162654877510284 2.812293750772763 1.5895688364944316 0.2999202122052641 0.07971551085377239 -0.15624311089786638
Ni 4.997854726652237 6.326770864583861 0.10741467172432953 -0.3231904955871144 1.283687273740699 0.4051930027028505
Ni 0.5027973928219638 9.132110473637654 12.166741636558054 -0.14495365402697616 -2.140711547830229 -2.152019002423249
Ni 6.145510050975442 3.3583048460584854 12.465642114575196 1.4722676633186904 1.147381782307024 0.0046398127648565254
Ni 1.7884350955876573 5.504480596431188 6.581217546514221 0.9254660118016965 -1.6728044539276097 -1.9938930726803727
Ni 1.2105015306026201 7.58904930939461 6.542941099720354 -2.5616836677442074 3.0430445731588884 -1.5323198914155804
Ni 8.96357425977033 0.8816982431939063 0.30057890450915503 -0.9085262986235644 2.3745420674952715 2.117217578473347
Ni 0.4192949812796989 4.945994584684175 10.49951112776298 -1.5175386193413478 -1.294154234710294 -0.4138887307046356
Ni 3.9527729926838395 4.507421279944985 6.337389801998613 0.4395485973645849 -0.08201536263154262 -0.011651725306315417
Ni 0.7390597339595281 2.7751926648997474 1.896034717889619 -0.45038836829256623 0.27357437522188366 -0.06590200200944779
Ni 4.944514980063117 1.7983576940776238 -0.10997161346009442 -0.3575327205124101 -1.00078493624967 0.9418272267685391
Ni 8.678297241301573 3.250811570338662 5.863202414030571 1.3911524439039138 -1.347224889283028 -0.12682866229149126
Ni 2.8700815587539377 1.061570077964307 12.624891035186721 -0.025481432100556114 -0.4164462070191666 -0.964754524988674
Ni 2.402868657068405 1.8431342289223744 9.769341968070233 0.08064239354341596 0.6379184622291724 1.0170034549910616
Ni 0.9026975317782641 1.8244819631681692 7.6865284360885395 0.2337220191116362 -1.585330896394973 0.2790600809268033
Ni 6.583232583057525 5.6024489174029535 8.73342361047062 0.6058190105914664 -1.0322218146027127 -1.4077779682757368
Ni 8.507920769186809 6.78597540625792 7.823945790516361 1.4217254315947645 -0.29496261108967264 -0.9054173206809374
Ni 6.184469890153661 6.741827703377119 11.481534887040576 -0.1461877835443934 0.9441185939058773 -0.26736336131516536
Ni 7.1590762065153175 7.783339891197216 6.08630829582827 0.33731845034806424 0.18888455108197147 0.2826462556161648
Ni 8.201929286023248 6.930246104339902 9.962386907732487 0.7390160383031465 -0.36769783397086997 2.1279437066415996
P 4.379324509876937 8.98409452635862 0.46723417100196 -0.2970372342305142 -0.34048656366340074 -0.18829114047234669
P 7.304678548756251 4.2021048663897815 7.184756594219546 0.556653604610409 0.25016499515900786 0.01538419576555415
P 3.0352424245794745 3.354457874043736 8.189761387520827 0.49790672558850374 -0.528994962352876 -1.7483686616171696
P 0.2651312768001713 2.8216614975298326 9.916937152785152 0.5134498155294254 -0.45781088600888253 -0.34653585518127417
P 8.524529331058178 8.961817229282824 7.568369985309555 0.44936635478595516 0.5231248767253442 0.0002288281813544446
P 7.657869419331544 8.549839817607142 11.15491494120081 -1.2801594630930984 1.695125743132629 0.8069741515106746
P 4.710293568549723 2.4493744798140167 3.585908725904199 3.344216655493383 -0.7591925132510217 -0.11599583334204538
P 1.5211537683225118 6.175166876098763 8.556944694046884 -0.6081653993364559 0.6358458959708598 1.0443443088978595
Ni 5.674413187159635 4.596456488017116 10.588244866393573 -2.5064576573913673 -0.10548156407428284 0.24284532156914307
Ni 8.652385665375304 5.625687957482437 5.829568226735271 -0.00910839005917141 0.0021666686340156235 -1.196482910709049
Ni 0.5428225473273439 4.064196468178347 7.758911618903557 -0.8565445062396346 1.0822441692674265 2.060571547844529
Ni 9.03506690555405 0.5991658912972114 9.806061131000437 -3.485982141600364 1.5516692424764695 1.6778466443372073
Ni 8.077022913419356 4.567696673195313 2.4950933378518036 -0.6544488557840277 0.6179751863380261 0.2927854009326957
Ni 2.504600722294986 6.401675848524895 4.275054922725243 -0.7113427407575943 -3.8847697549975027 0.19201666895304995
Ni 1.3372019238095454 8.184405218792598 3.8158901454253744 -1.1151231793836345 2.5139287689574314 -0.5643124067072475
Ni 3.772843823234373 0.7579848018157409 2.678908318937322 2.0050503748487727 -1.4767606660930372 -0.39871048030230044
Ni 7.167084566526791 8.522198953780013 13.435253840587896 0.37937989829448854 0.1768996108059534 -3.5065769350325797
Ni 7.565967477306114 5.899997406697605 -0.009428780447688554 -1.765080832165528 -0.32813215586310585 1.8398220297331602
Ni 2.6841045054158985 4.70619691325517 9.834903248829288 0.46692647515690555 -0.2684473384079634 0.18045056138200535
Ni 5.399326945518411 4.96821639658668 3.7056503536277137 -0.8855565772012685 -1.7957234967520492 -1.1558782498138094
Ni 1.7476997308641695 6.768368111267336 10.76541364847188 1.4339839372471432 1.632865965861459 -0.8620530947626895
Ni 7.458095052902145 3.3908006625484597 9.787207269116612 -0.01911178112878644 1.032604137642796 1.1125765017023808
Ni 6.381035364061143 7.952856343125991 8.666385499349172 0.2091600135015559 -0.03603298236415729 0.5699500646089991
Ni 1.916753806348864 1.5736334947256432 3.746741748213143 -0.5500641243183495 0.20592170906991633 1.1642605603402336
Ni 3.168850721860961 0.8555101661540778 7.681723420081655 2.1388693524151683 0.32335221797595926 0.658320422924292
Ni 9.076948963858856 0.5857135110331347 2.767777071489585 -0.3912427111703456 0.23440516122158989 -0.5530774572233764
Ni 7.66479581846387 1.7149912212099185 11.62352699400613 0.5938631237811708 -1.0485496052284586 0.6799290023330032
Ni 3.2560086815701266 3.500642810604212 12.052102795271413 0.3187023779087737 1.1484626740760286 0.24224908274604087
Ni 2.491330518349877 5.796591538743453 13.54525042237597 0.4179521021407318 -1.5440124972621603 -0.7939746539272133
Ni 1.879828423524599 3.0238217264106875 5.847867236886199 0.6996084830398016 0.3678479863954891 0.46022695164954286
Ni 1.0495667854759785 4.2520045322349445 3.9316257436373756 -1.431823696371031 0.8656678086971413 -0.0842769049722097
Ni 7.888928175967427 2.1914516517770597 8.000492213900934 -0.476870730853811 -1.8035051975799972 -1.181704981068926
P 3.9635556113597956 5.804784849332559 11.88163384786783 -0.15511851037511995 -0.6928297695550714 -2.5289126439607736
P 7.6667285520001265 5.079417931388029 11.582490159841102 -0.030969708908636987 -0.8735826926688439 -1.0361206354364867
P 3.5035280396152735 8.160241425824955 3.810327756803087 -2.10119934866822 3.138911239851226 1.8408656405063264
P 6.217122914634623 5.791301952223172 1.7128291489573984 1.7666054963401703 -0.6712911241523472 2.0799365826347014
P 5.608247118011722 0.4761737571718115 7.867094760277949 -0.5777489918281276 3.1818121529798105 0.10759115421811793
P 2.052627748206345 9.119857497869521 10.794987245835264 2.0324115404705445 -0.5198001832274854 0.7391160542161207
P 3.13355290411986 5.217631498052557 2.118518240993586 0.2541550901550074 0.482601205579685 -0.0618730833557128
P 0.28488954700861713 6.335796452772311 3.5814967298747833 -1.2802193697967563 -1.2689437968829371 0.25935951717408234
