# total energy = -340868.2763352513 ev
CRYSTAL
PRIMVEC
9.22923448392824 0.00000000000000 0.00000000000000

0.00000000000000 9.22923448392824 0.00000000000000

0.00000000000000 0.00000000000000 13.50791757254586

PRIMCOORD
 96 1
Ni 3.382736017840965 5.7529142386771825 13.726611230314004 -0.4826328301485688 -1.2471164165952004 -1.704271157077323
Ni 4.232019423832778 1.8532580147289655 1.1428385969017385 0.5234868880504533 0.44689449620669486 0.2121260381084153
Ni 6.623184924368472 7.585046535186228 5.592615352930349 -0.8254904651473073 -0.4845824976757719 0.5754216292465315
Ni 5.484500406003555 -0.15674009284792567 7.039867335362255 0.17886496206244035 0.9544441442016014 1.1101869184242814
Ni 3.7352558663023308 0.4992609884392774 12.82509220178785 -0.8834300177765689 -0.12828622067362422 -0.058592098611595866
Ni 4.8626899475724095 6.119813234795444 7.7156014433537 0.4773003621920618 -0.3519765665808713 -1.3476208391698663
Ni 5.979602701288662 3.8669016700109107 7.57495713581619 -1.109997685231611 0.23271517511367665 -1.2224682790292172
Ni 8.669195505730476 7.419686337131922 9.182466472438797 1.7706958643594601 0.4519461996979893 0.7073809278963689
Ni 7.57523585870402 5.4849526385036755 8.648012566255439 -0.23791497414706125 -0.5771666369620964 -1.036379545524828
Ni 1.0381781525217844 8.567452422438036 7.414617641436692 -0.36104639009262335 -0.1470799563413596 -1.0657299736624872
Ni 8.088639726391968 3.2229225898391585 6.879447546640899 -0.6904432716007658 1.5717480155042156 0.8811605050161019
Ni 1.0743013771232552 3.3897963823836643 6.520568755473756 1.054272880865481 -0.1313579176204125 0.03863545298401088
Ni 7.339604267671787 6.686663600609891 11.217853281741847 0.6830073841480109 0.1671916394895701 -1.1283476484937083
Ni 6.224786550231604 5.64426768783188 3.6020623199351745 -1.2919358869027364 0.01929818610797967 -1.3881763919947254
Ni 1.7716531215439355 8.392982969738442 9.867263688902048 -1.3458012694626242 0.6068153130664645 -0.8950647738020198
Ni 7.125255291849315 2.7657339906866123 9.499997369242871 0.250591026952833 -1.1187723461004475 -0.47233093400192855
Ni 8.04864945245273 0.5116724632589141 10.612063851820077 0.09441553606810836 -1.0495037416116118 2.6666430407664334
Ni 1.2093527684347842 1.4400467189044746 3.650785295744088 0.984279482395479 -2.41472712435459 0.19408666410820122
Ni 3.871304014961064 2.8089175798307826 10.977398492657308 0.3852489554807559 1.3902332745237542 -0.07160033794580571
Ni 2.490813547552065 1.1664829732702895 8.054689986561485 -1.224041022832976 -0.271789515407319 1.4290237650283903
Ni 2.307216381737793 8.026693103110139 1.9403044646909564 -0.4056614576988368 2.6773030915834406 -1.8427173490030848
Ni 5.769951405926625 6.732283707713894 0.43883349718846726 0.3555401155624135 0.17785066186531306 -0.6056688581668472
Ni 4.274750780476828 6.801945971201862 2.2854316961605545 0.4734959008443071 -0.015691699703643945 0.6904088188184045
Ni 0.9664208527577484 5.17148168204252 4.748681211368534 -0.37895412361097963 -0.8238516439923037 -0.1584385758872884
P 7.149675846855827 4.305834842934098 11.23342761529192 0.40508398792881206 0.9069365855389413 0.6102212534242201
P 3.794885951675377 8.715000197528408 8.603827605146718 -1.316938579594661 -1.4016723695986313 -1.5630368608834628
P 6.673438107290037 7.7334895460421444 8.363562015373454 0.6816472705756906 -0.8844111507429154 -0.20755564512891353
P 6.639742171413703 5.052193823592339 1.4664331009013079 -1.1654849196656378 0.494386114029755 0.503037876167482
P 5.98361741838157 1.1563031274002276 10.299774237400053 0.66191148270966 -0.5701485537730504 0.666252019066543
P 4.944036422185941 6.087178660909189 5.32669895116555 -0.8357357970243993 0.23666233268688272 0.5346771003393179
P 7.277500747400123 5.532649323414355 6.378263185690904 -0.2775305316561543 -1.0733183275327065 0.399969292410066
P 0.3209060279325257 7.498836253887726 11.562831922532833 -0.4331514355889895 0.15726512440447754 -0.5350277988105173
Ni 4.610648777250087 2.2813099199451696 8.978469929175207 0.34411336178271057 0.31818892860746495 -2.7748198922846923
Ni 1.311132768666011 6.96762919247054 13.516697824686592 -0.9762121320063123 0.5193497259536282 -0.3703530122055299
Ni 2.020039514926508 5.958467753834046 2.5538473746811214 -1.592305013719961 -1.801957136366587 -1.267475954088159
Ni 2.477911077446583 3.088295743323661 0.2667101159486837 0.6563473583583213 0.14545913290848497 0.1660395281629979
Ni 9.065452697417793 3.857893936947283 9.84771801566214 -0.5502644132546137 0.7702395150938025 0.28873205679892855
Ni 8.825870993935528 5.255301591554671 12.552867618108106 -0.06906368756688107 -0.2853891084686246 0.31934232548561775
Ni 1.0681823945195825 1.5486840405150812 10.28533417679416 -0.5591486031181209 -0.6505274092424345 -0.6777710754497359
Ni 2.8925159877102216 6.284019778512708 9.125139081122487 2.42849975265865 0.41813516468581535 -1.728004753248837
Ni 5.426393144355404 8.397846776423414 11.744513099224145 1.7219773161078342 0.041844189729295676 1.05863758559208
Ni 3.9413539063062775 4.214465419440342 1.8250682402724674 0.8355229096826449 0.12020241522422526 1.6207229027410217
Ni 3.9483035200326206 0.5528062393770276 10.35060424749014 -1.310600296081459 -0.8076084426605641 1.1656782666233667
Ni 7.044601009838007 3.2637896410745477 0.39703706201915673 -0.08624225622869663 -0.12898144696843591 -1.1236319881855938
Ni 1.5942580014456034 3.5121114298142455 2.528290700883489 0.0523556307835808 -0.9951346799424281 0.399109515512932
Ni 1.3394480607143793 3.722196499207011 11.897544885571083 0.09605821387785392 1.1866682386114726 -0.7051533241174306
Ni 1.2512904108949487 5.784948912308176 10.308891798356568 -2.9541965038762283 1.351973459711607 3.3821208867383232
Ni 2.0723323587159648 3.737498570333541 9.481315552370543 1.232981005635083 -0.8734572228345732 -0.47287857897528235
Ni 6.928940240623486 2.2083805073746983 4.5623263502269955 2.0093343469361074 1.065437639233049 -1.0739978700982342
Ni 0.6057239023554265 0.48322427023091874 12.663348940811039 -0.032513142136356914 -0.3743469638562714 -0.7549537925793256
Ni 0.17986209453266383 2.6227916037097136 0.6283909027696352 -0.5997884881266703 -0.5547810701780446 -0.5525277553674937
Ni 8.614383080868919 4.324440980081918 2.1469488753889263 -1.0996135137838094 0.4463185690985668 0.3622856618163631
Ni 8.243460138423055 1.1094832197856996 6.263877896711418 0.3612813889215649 -1.795168652689844 -0.4774911380466293
Ni 3.181326429062758 4.461061341291824 6.0422812028819095 0.4429956753729209 0.8218680379033717 0.9291969395990384
Ni 5.462664036712018 0.6021641865330487 4.757218253462647 -0.8920606968683733 -1.1838276838388837 -0.28333068327769917
Ni 8.287834298843052 6.7662842083352075 4.266921620683924 1.1733779492604695 0.18846777525952704 -1.6385177648305975
P 2.3388357398074504 1.8373560433471732 11.902650498205096 -1.036859313374724 -1.3719216206987597 1.210520876859354
P 1.0774300876853142 4.911549516054828 0.8792599602855227 0.14816599031668676 -0.850799119115425 -2.2158882902733836
P -0.14851684473348759 2.8153688148835236 4.210512538219899 -0.8375299128103447 0.7499730515352826 0.9928127166774708
P 8.7243494122758 8.200258090809491 5.804743774884883 1.308632630832127 1.1429404587062189 0.7816017341841571
P 3.6622433906195924 7.810129110960545 0.18457177299820562 0.7529442183484646 0.018402670876903792 0.4166513810514373
P 0.43429917418215586 2.302214136532377 8.356659470744061 -0.8505504934397287 -0.7230196628748903 -1.1609986017595102
P 7.695797351542296 1.1413056210186765 -0.1376364999499735 0.6218963757693031 -0.8943523211160275 0.4445180255547183
P 2.8957831367927254 4.197788192344057 4.033220785550166 0.8174549964373405 -0.767069344895937 -1.5561460473009006
Ni 3.501405517566492 7.864600054138338 6.518475565044626 -0.29507085453276277 0.7717533806351677 -0.5584184098203157
Ni 5.2685732310480065 3.834147116073603 5.201494230351545 0.5246698526149609 -0.15435900650127612 -0.8912238027893749
Ni 3.118872197872632 7.643984427957049 11.502437656526931 0.3430018738860867 -1.7333295078958602 1.1046179089769363
Ni 7.366664383801454 1.1019337058040943 2.186378011858626 -0.794608173746154 1.8922393669926123 -0.14381054156146844
Ni 7.984109414221231 4.58285955157941 4.432380571549481 -0.8963742366420626 -1.9312951953434934 1.8467267272727939
Ni 3.633042092040376 2.181015826500053 6.470913626960512 1.4805905813620888 -0.4734375368025459 -1.6105017392336458
Ni 4.710389116613422 3.813159836374128 12.747787209047846 0.4910467652438769 1.1656376431934186 2.050284049875591
Ni -0.04077014427107765 9.116776471564135 1.4287326000902325 0.6178571727029231 0.25054680397845885 0.14249825050794815
Ni 8.234867720920763 -0.041909954756075514 3.8675874021488483 0.5328428753440565 0.3367710624850265 1.2500258769325117
Ni 3.3815731342692263 8.743952306770824 3.7801634764877767 1.053688212006605 0.31968865308144295 1.2845565637195295
Ni 8.015488812188783 7.716055521700761 13.251740340406743 0.11912203767585292 0.6801233777319964 0.41186218719291007
Ni 2.886350858933067 6.321711973012556 4.519262741133877 2.5441762549880638 1.8897811352601066 1.2982021795274223
Ni 1.8908209999430652 6.201962652827558 6.758754075746465 -1.2110659507295465 0.45517293416540316 0.7594691639511759
Ni 5.08453306196831 7.370226868394241 9.685271487001469 -0.020626932221732217 -0.42085719160266877 0.7851352012587124
Ni 7.7935995516194 0.30188088352949244 8.51071754798923 -0.2515922145238377 1.155983665043422 -2.1620902706163214
Ni 5.64247721630079 1.750481257150534 12.44535810897739 1.4902103638400401 -0.7729394305234688 -0.5215950703443791
Ni 3.7269587843103213 2.0848472009642007 3.664116925262949 -0.31165961212937937 0.8011426324305623 0.0694616943362481
Ni 6.031286415588161 3.0747103098506496 2.5024903752898733 -0.4053390413624116 0.7031792311101954 0.8232145246289372
Ni 5.278199322836288 5.89233105800008 11.68143128007467 -1.4697991471735397 -0.40751933684318203 0.7352766258653723
Ni 8.47850105843472 2.5360091098600375 11.791858150292896 -1.0710750400244844 0.5456536539554796 0.48357951033255425
Ni 5.6129159775684165 4.4716011273150436 9.738830581791264 -1.705692977125514 1.2638676679116103 0.9481518834349864
Ni 6.048046705796712 9.169604610965978 0.7732502017929637 -0.9204865563092341 -0.6943354075663203 -1.5584839514054578
Ni 1.1705346073019822 8.01759307769955 3.9965742633414125 -0.9541448677936276 -0.2906493284262995 1.0817844560221888
Ni 6.435757626155218 7.907719038639633 2.9785232258454046 -0.6372057524328639 1.014295826251911 -0.6229052766497918
P 9.216673707917309 7.112961951233791 2.1791515210913928 0.2112004409703524 0.33242512681150493 0.5981378398971247
P 4.951465956116495 0.4838675478892535 2.581592300025256 1.0194768562322183 -0.56809244257497 1.200807506226332
P 2.272874399432715 0.517692693051336 5.465641387825055 0.6333902353415156 -0.23282264722581839 0.6448249595410185
P 6.045610187836878 1.9318264896988995 6.56228120460733 0.1571378547979939 0.1367225243664355 0.09001689277978045
P 3.1964439154953617 4.983362191227043 11.232482541659014 0.5906844689428731 0.6857080709086255 0.23777279214224212
P 3.6052251786656098 4.19629305632325 8.113679563046604 1.9251913964386005 -0.11258423655733515 -0.0027485092794146213
P 1.696277961778935 1.3109297255026915 1.4979740104760464 0.8379078649750539 -0.17816356512004156 -0.07837545188611018
P 0.6588981380583838 5.285998026154695 8.273315789742242 -0.8980953330982274 0.5223280918556618 -0.31648891519722266
