# total energy = -340889.9533897696 ev
CRYSTAL
PRIMVEC
9.07308450134562 0.00000000000000 0.00000000000000
0.00000000000000 9.07308450134562 0.00000000000000
0.00000000000000 0.00000000000000 13.27937628915844
PRIMCOORD
 96 1
Ni 6.498996029328548 2.040473205169644 11.279967205541645 0.5543151862852196 0.3388523704940874 -0.4081561990962325
Ni 4.688589029258603 0.6645363029394342 6.047162769572998 0.041708692592695905 -0.9245301302509884 -0.7009896796580444
Ni 2.905047432560516 1.525684533601764 4.5499395949165855 0.4019025048770369 -1.5106292938160242 0.08392440672879739
Ni 3.7746300026265875 4.544027573019555 4.7039397810197805 -0.26138246114138214 -0.6633970661162509 -0.4871993664733287
Ni 3.5534463473077222 2.867503008665633 2.6968156054460843 0.7376528394070329 0.24719125724266464 -0.7694257609432554
Ni 5.370957572585422 4.605307186114298 2.5232937706110787 -0.9202896098070795 -0.5483633395771588 0.13078533294639413
Ni 4.993072673890885 4.796540589312087 11.365778624660308 1.2894833115971855 -0.7518728396611568 -0.9025279149482844
Ni 5.930939278329333 8.304458198315189 12.49572061454339 -0.8074379785209708 -2.135850877303818 -0.9032000013146445
Ni 1.9570643388415478 6.383949317151862 0.30876795515987243 0.8939301459769444 0.5073444739626359 -0.7513226235846415
Ni 2.738429307764567 1.4674988423407958 0.06967584554334623 -0.48798998069542404 1.119621324364304 0.5472245979870254
Ni 7.8095214357569755 9.210904710934404 6.862024659370237 0.6440556854751618 -0.7067247823696087 0.0472555905528541
Ni 8.502995434580978 2.2560496942325794 1.3544699841694816 1.5464123649529042 1.0337547063074712 0.49553848246664334
Ni 7.014864397958654 0.6571771240556401 4.684566023566241 -0.6125874396635514 0.4862084633149691 -0.49328388210451174
Ni 0.7048534614747902 7.0250171795774 2.2074705849000558 -0.7047702297463991 0.49580844829857834 1.4863999889550141
Ni 7.934485029353937 3.783993425888917 3.869105310188272 -2.0988989826698177 0.05416543029880994 -0.41260703577873453
Ni 7.709653994043351 4.028213642896788 12.407837810220474 0.1903894177622721 0.15208435153448646 0.47289734802835975
Ni 8.56821276637325 7.457558339640419 8.784945166408685 -0.6460392915640938 -0.6590369893753424 0.6837180370617901
Ni 6.851058929375226 0.9482099208328812 0.28967909256140817 0.6491991773493143 0.2928247388110634 0.3356019818775898
Ni 1.8523518699747408 6.782702310326398 9.235647012520037 -0.1105378955512677 -1.5293168429231985 -1.515967932420118
Ni 0.23756329486875244 4.889086051788601 1.1363494021968976 -0.738765098634605 -0.9271660252119387 0.0388208295219396
Ni 6.476776045249627 2.2721272000667345 7.103656325354133 0.5283498725697094 -0.06963627224089942 -1.7152675081878264
Ni 3.618854213875681 4.3782169527491375 0.21011177023454294 -0.625822964517219 -0.014138496283911135 0.20612174089586438
Ni 6.1371251248762695 5.678698454573497 4.665071594088101 -0.024299495977312992 -0.5527169885601643 0.6497203399601068
Ni 5.607647129411382 3.2413594578170746 9.01486438753857 -1.2403526155088056 -0.42060213816906916 1.015958558666315
P 0.33178546337131015 5.761408693390742 12.339355982604767 -1.1672098727765445 0.5316028322893683 -0.24166569943874508
P 4.219229292065222 6.3903821341024365 12.585183950196054 -0.6131140015909827 -0.11168075090645928 -0.8898513479218805
P 2.0019307419735437 8.439093700049401 1.2646836467066067 0.8228985360504151 0.7466624991048109 -1.3842420899373258
P 6.341732254710372 7.784171237506056 5.73002398660128 -0.9643853145747133 0.14520999301215637 1.1701093058115266
P 4.752390959860057 1.0387139392841767 12.469294348464068 0.08019836402746187 -0.4660867528644296 0.38954372620136785
P 4.013433588154216 6.463148272245733 8.055441948810738 0.7504484485098044 2.0184357950167433 -0.7366904754937635
P 4.795279430558732 1.0439309629041762 3.5310920815773663 -0.3912493960385649 -0.5268907715256796 0.8176791966330048
P 0.14096307090393057 5.621184171569712 3.800530937110088 -0.20843521952038943 0.021830979832162405 -0.4183007437294021
Ni 0.6799133666458257 -0.04447988972988783 4.533432932182906 0.06164965449099705 -0.38817692776082824 -0.053955114060216754
Ni 2.024568087942063 6.498705690622738 4.557070132069554 -0.4023542477024748 -0.26403506827288076 0.5171210937334255
Ni 6.032675775461602 6.089917865928691 9.292602393515141 0.23395650371994547 -0.7877266161349724 -0.8409312251824099
Ni 9.105384737542067 2.537161073047265 10.009303488803836 -1.364928220100062 0.9883870768059494 0.09341332005583913
Ni 2.608375713731397 5.24320854202961 6.817180031641177 -0.7166165875620238 -0.49594883053118455 0.8825321885526478
Ni 0.6153592773346355 0.4185813121643556 9.019365544787059 0.015574457399489304 -0.9483339175388054 -0.6020230338841439
Ni 1.449352673227754 1.2218450779729937 11.111385665247663 1.236944104047889 -0.5434774722397673 1.402812139630029
Ni 4.216634389882057 6.76490999151106 1.4494833256453679 0.4989374808458632 1.4512735775655263 -0.26974111751872254
Ni 5.718284322493598 8.259428479661175 7.872798034762608 -0.3126500010671067 -0.9707359393830894 -0.06961544630529301
Ni 5.415615294772619 2.8246780495588544 4.724815133967423 0.270945679349785 0.2059422778952066 0.2208528764584519
Ni 0.5765573239202184 7.64041728579254 6.6632188598015745 0.9714460780762367 -0.5007897035632537 -0.38314502176387566
Ni 5.209629056085925 4.738209728698215 7.202149194757445 1.163543736778867 0.7873247527108633 -0.9182167864384508
Ni 1.0974803079567623 7.6908727090113524 11.373241236708047 -1.2161585347611055 -0.2915924090658591 1.0134244793905514
Ni 4.872681914910411 0.29091666129491767 10.320239911172715 0.06641776530360174 0.6768729891154988 -0.6214736864095878
Ni 7.9855846415762635 7.305838219686277 4.588435785381447 2.037548347476478 0.1999464653230879 -0.5549903579753732
Ni 7.560492483934148 6.0914330710496305 6.930878483452762 -0.921827900828477 0.22666511226485478 -0.5124082616387885
Ni 2.6498306370701408 5.183797984353511 2.383568268440657 -0.10962875347343701 0.35974489767238044 0.07409405090193691
Ni 2.6812598019739293 5.495812289167707 11.27064461115982 -1.8659968883563156 -0.747192660576668 0.747630519445035
Ni 1.061659770127618 3.7107827066023504 3.230261260787538 1.0758999722169535 -1.6502386528119515 0.8607433748123305
Ni 1.7983760899479981 1.169121383615051 2.4851822789314126 -1.4755188232661363 0.9319945569488336 -0.9914724005994925
Ni 1.3847795304389952 3.381874318343913 8.104164412879257 0.09095945919870786 0.1316682497719797 -0.6718235996170494
Ni 3.8108951215990015 2.9411220167572427 6.987196026603543 -0.36131121371823577 -1.0289035488627571 0.27778352820722485
Ni 4.189533086311729 6.582740599785234 5.8169114735483465 0.9005090847460427 2.7170340916244755 0.19635386287582313
Ni 0.480863501102593 0.3690640458886874 -0.1026020693989604 0.830628300594505 -2.0725436326047406 1.5539585527312787
P 0.48766740721152796 5.600397734850722 7.8453229201085515 0.27973679527885376 0.9947441293722286 1.865350513021568
P 8.680800672635117 1.8716321746573474 7.831697869030024 0.40610651565605543 0.6785244086759927 0.16704045862368652
P 2.3342506100252325 3.5347376469521765 10.160395751306666 -2.224866068291962 -0.2220983188297788 -0.017083180734531873
P 4.173464653562131 6.361402702028909 3.51368355423877 -0.5827672709783254 -1.123168161175298 1.104371597294085
P 7.0233023665962175 4.045153091763813 10.323971670850813 0.4739525287657515 1.301636659130268 0.25758339911026606
P 6.7709073004029205 8.048724237005091 9.845927177119933 -1.1312134000772776 -0.8562205472413125 0.7272632686425926
P 2.5445011984534904 8.35611126869546 5.7001327095298215 -0.2171250339849035 0.21716540030453566 -0.6649944925103579
P 6.9131460469954975 3.7596140476855457 1.3145266367178543 0.5434072811234641 1.300747057436463 -0.1550236366684685
Ni 5.420179056304549 2.9587963854733452 -0.10653525155421219 0.16301025441837086 0.6659745970354402 0.9614815106643569
Ni 1.6711714444655756 1.0536936018869927 6.604059626567691 -0.6553425712428907 1.198876093531574 0.8527403020021959
Ni 7.061663368101188 1.0559890922797925 9.114034109049797 -0.40631708900496477 0.03654411767262093 -0.34543670857982445
Ni 2.8052162831851173 1.5253851218113987 9.064994087021802 1.085614114180924 0.9664992755939226 0.13622295902219766
Ni 6.344826176544145 1.9481727159761573 2.463270779727415 0.43041218228095557 0.7914999671344756 0.1454208234713818
Ni 4.051195766078456 7.141860362496275 10.352681632313011 0.8554355894461719 -0.03234164955549914 0.016315449330571902
Ni 8.23057607077144 7.464027448929219 0.31952863344390614 -0.015656475590334326 -0.7512927987879706 -0.35320015457532716
Ni 8.002143020891914 4.048002040314561 8.29230661616864 -0.5023771026550315 -0.22982859759450094 -0.5300048916746292
Ni 3.3096979306967893 8.325417023640751 12.604956923370079 -0.2499755048560211 0.11126037553958902 -0.3080950347065726
Ni 0.2579387208573313 4.959166556903167 10.304729473123343 -0.21487994670446864 0.5324942337553862 -0.5124712536662399
Ni 8.695698677476924 2.497030820053773 5.733623279244852 0.18176413798710633 -0.6931254464186192 0.5104010014007727
Ni 3.79770285665382 2.552648828385246 11.293034261919946 0.29654589641639256 0.4312033107236832 -0.16335092558724124
Ni 1.1546498137474004 3.6660161074004765 12.351825122710792 0.72880155966399 -0.8883665358462377 -0.15354730923325813
Ni 3.0314173542637386 8.555519521078677 7.890976866980053 1.0999179323981056 -1.0420213171916377 -0.6507256412961697
Ni 5.83988180172009 7.774952983596632 3.4345780519158313 -1.1009538298617878 1.1562680290530603 0.738890825579192
Ni 2.904457682064342 8.234595447229978 3.217154282837188 1.0515778505318212 0.3313874295756099 0.525541970807269
Ni 3.7558487175945894 4.864897208360916 9.211890047917242 -0.15784336550545072 -1.9691816859766214 0.6206987559167761
Ni 7.1846218100111585 6.390391207186992 11.444366053855068 1.2035899540674755 -0.11473290746922175 -0.5936309531657067
Ni 8.02556972521685 9.096311652985545 2.4417185746718553 0.7460500623317926 -0.5558005125814944 -0.12980522842131195
Ni 4.5089601012086025 0.3612394177671438 1.4401879505172124 0.3156934158791208 -0.4561851774800014 0.12252052183444061
Ni 6.0073709426334645 5.726667852623823 0.1557077406167326 1.3806939675747512 -0.34913189804322453 1.288536117192568
Ni 8.049032721880012 0.11020531425732488 11.030619788450885 1.4068418296147127 -0.2839438913816658 1.753602142101967
Ni 0.46529953185433715 4.786959412020401 5.936770549773809 -0.42126136901962286 -0.6391795883297832 -2.0612634317052305
Ni 7.378958208127279 5.973446679476633 2.540078977040642 0.47271017171821816 0.1148051554680539 -0.944470320818341
P 8.889717517633565 1.699270787337121 3.645108998656885 -0.4873906565485284 0.33111052176513944 -0.6803321513086928
P 1.8960115528607189 3.23417357484831 1.197450275525876 0.23054439271460297 0.23237656082733532 0.2840575341413946
P 4.876601487438827 1.2105309415310122 8.139660134281277 -0.7146826037641046 0.5752143983317319 0.837390559019003
P 8.620346710235017 1.9468661918000183 12.376843246066944 -1.0710886668712394 1.302967976347182 -1.6544814872487053
P 6.420141851447824 7.936326865518911 1.4489262382535975 0.32171108282811045 -0.2974414116474684 -1.9298384082923086
P 2.2224339159506696 3.2078434834652865 5.546304004724744 -1.501387463502782 1.1704980566095131 1.0872151401194565
P 6.97633100784711 4.0567303476579335 5.949412985794865 0.20470609149526037 0.5642013350506799 -0.22958871366955297
P 2.4883750973868524 8.607626245686776 10.051491517374746 0.5609581455230338 1.8379456386460542 0.8831731645707563
