# total energy = -381173.6228531232 ev
CRYSTAL
PRIMVEC
9.16508051008500 0.00000000000000 0.00000000000000
0.00000000000000 9.16508051008500 0.00000000000000
0.00000000000000 0.00000000000000 13.41402174704452
PRIMCOORD
 96 1
Ni 2.875892256921256 2.061043286347636 2.412055785100302 1.414438153904732 2.0995957516265262 0.0903130838639606
Ni 9.405113883035755 5.690882554407347 11.639708965358741 0.37071913729569705 -0.8269318255795243 1.6619713678678474
Ni 8.50685351549909 7.197493465424523 1.449934970166744 -1.8730738498077546 0.18726758430383877 -0.3765665972154095
Ni 3.268973391340341 8.526622593979399 11.395936156170396 -0.6164734049815189 -0.38711763325837845 -0.2430954899067362
Ni 2.2728941204099167 7.48081359665391 3.9765331809153333 0.04857045270953571 1.2787309581766884 -1.0905046095040059
Ni 7.767277350469641 3.8931062033155617 10.721492551701061 -0.43132389546194744 0.3489547490354119 -2.210420325180277
Ni 5.677794819558074 0.3061842573697791 10.495532992829977 -1.321757084029227 -0.12179469941200961 1.77788569723968
Ni 4.526294114752324 7.862695002791614 13.844879556971927 0.6186156481355023 0.924463281568795 -0.9906938705622551
Ni 8.947373106206575 8.661541742940283 3.5818655710743936 0.5684236006621437 1.643383577563331 -1.2826485480635395
Ni 5.635305506700072 3.966087738753067 1.6086494174393688 -1.250954302284052 0.1402030267158682 -0.6239797406608931
Ni 1.6670731391271654 2.1231733665599744 7.375377594917553 -0.3525172695756897 -0.7804812474264687 -0.08278129426328969
Ni 8.799146260466177 7.465865350478024 8.031095107059134 -0.11190829353623308 -0.06732073673384535 -0.8412747245647576
Ni 4.66955348690147 4.637356559362608 6.2445221502809005 1.0431333193088939 0.48756266335001835 -0.5956004181872516
Ni 0.9188909635770811 0.9830007011615783 4.97322192969413 0.03377658222981279 -0.157252011778355 -0.12403798692023155
Ni 2.2835164486244173 0.3082033245877726 0.054669704745035796 1.1635553067430928 -0.6894842501216061 0.9257997409920313
Ni 7.389813513097588 7.194019899942818 3.6873538137691817 -0.23835000480195082 -1.993537489113167 0.4639203413407301
Ni 6.945013829830852 2.6187750906316944 3.3444780734193063 -1.3709322602022969 0.33878500759126173 0.5616220043592779
Ni 4.29685549135128 4.309686603948607 10.950388602340846 0.1840519055800185 1.0944319695828701 0.11376591557026212
Ni 3.0007756428149452 4.350095443549757 1.4993659149399001 0.6185865946697798 -0.29003174944695853 -0.9047699169049256
Ni 1.7951459730093329 0.2506860293541731 2.5695091173062186 -1.0361530313363188 -1.8677074432895189 -0.07225956879635942
Ni 5.320118390827183 0.9487141352854376 4.624242245780098 -0.12678315376553648 0.4251761306929968 -0.48492214040337783
Ni 7.243309702477403 3.621352403584622 7.80408981251137 0.4712991503033044 0.9459592466590417 -1.1025509991455786
Ni 4.2219492890241765 9.144294024253822 6.646728038772769 0.9676045928429594 -1.8463498035493493 -0.13816465612960077
Ni 3.4659218046288696 1.169528418004993 8.738899604281519 0.35552520316407804 -0.8590533887044173 -0.26690519073182417
P 1.6007454520794162 7.2987859342999855 1.3780495783482674 0.37376255210771114 1.0041494818465286 0.44387987775008714
Ni 1.1069217536104683 7.603873131542693 10.11069768127076 -1.0817425470406596 -0.07933473047558595 0.9980947910120166
P 4.3945460836190655 2.3008017903091007 10.257594673841249 0.4160548851180189 -0.14373520823884278 -0.0633247282005748
Ni 7.478595647190658 0.517712480601041 5.274392888070526 1.6382326294900107 1.3904965554874698 -1.318741951351987
P 0.0648365284623314 3.3006662394557362 8.58487951120343 0.6571605982882359 -0.1592703277599644 -0.7216518359930861
P 3.248636077873579 0.4452350245870019 4.527326102808367 -0.8700949912305596 0.19196910354456617 -0.4574254776450058
P 6.248321076117753 5.284163780313389 10.049408955441589 -1.9503678957042283 -1.1351703278424965 0.011258860743270932
Ni 6.19987446098242 1.5519963892900035 7.22991585394188 -0.32217542405903865 -0.950562806869324 -1.83685806200883
Ni 3.219747744368742 6.6476619604682465 5.799927764815723 1.139178163450309 0.8687019675377748 3.0771021769642295
Ni 5.185098425981606 7.1058976516404675 10.636487347251819 0.16137169037368337 -0.6119310370264752 0.7888221631919964
Ni 4.714526536555098 5.594511733721001 13.101287253699514 0.8132954657430123 -1.1434181696735854 0.35923504791549743
Ni 7.794176861521892 1.7190574753071894 11.40806155757487 -0.3434132503918924 -1.1424223814192196 -0.3804057684558416
Ni 1.4729933960121817 4.1847757228136375 3.0921469121285474 -0.12316458317634271 -0.21264617227794344 0.4481561365279379
Ni 4.6125283564867825 3.256151443823441 3.843076778790545 -0.985147486822729 -1.5040025325281259 0.11755109364430723
Ni 6.745526689264137 6.044214735016001 8.061263802299576 -0.9751885758378043 -0.018930261245599656 -0.5395742805306191
Ni 5.167199023908335 7.2031208248064935 3.8293144940218697 -1.5365429283579926 1.3580911425735709 1.0567665938216122
Ni 3.6105559388420145 6.402450233652918 2.0669126038528702 -0.11471388130582824 1.5219372626296757 -1.0515343988883956
Ni 7.447736821394089 9.115854779689892 9.07498768606741 0.29174410415237495 -0.49450489899580635 1.7929446484553315
Ni 5.398809771370498 8.192637898151428 8.495703278652014 -0.6146697761138769 -0.18951678534933167 -0.3830087532963275
Ni 7.563610933228369 2.5756258919829724 0.4314846544228817 0.31069159178915523 -0.855478012648333 0.6337015959343474
Ni -0.1229092275697866 2.862602890302597 5.933303514232757 -1.1151820576460278 -0.6556829853014449 -0.6927333531865232
Ni 0.5595822340222014 0.8950388417666946 9.995538445709759 -0.4632811650948344 0.20070956874135756 0.42390497729005705
Ni 7.270163388127521 -0.06869777684608387 13.135560071955014 -0.9188137965925014 0.9267261094610426 0.3217949007911684
Ni 3.8838128117629274 2.1724814992554133 6.475256716054274 0.26069906192111236 1.2886003947716 -0.7641562850142001
Ni 5.616416275940722 2.395174623462434 12.13227154876098 0.4123869493481285 0.08745993068588163 -0.5833619671395308
Ni 5.949466133565173 5.0518748168996535 3.8772689443382906 0.9464225594487055 -0.006479179966440454 -1.3052364606663844
Ni 9.161771832627467 2.271959282206397 3.24980187610385 0.6466291026292929 -0.5398856411234508 -0.07947357004629538
Ni 1.5829560309712662 6.398225131576227 7.687992072714677 1.302098686368351 1.4998111201545976 -0.9349708659683382
Ni 6.983928761322456 8.30548753344491 6.819151613347596 0.04135259480485782 -0.8106066060569395 0.13544108655085063
Ni 2.0118176393760376 8.664254606746574 6.1773448602776 -0.6869835951869394 -0.784676773565055 1.3435872925304408
Ni 6.292817541589193 8.529317127624838 2.023009119085034 0.7053502706195852 -2.601265800912204 0.007531532490354771
Ni 0.5074750857644601 1.476916050434793 12.705748044709999 0.13979344998227536 1.5747965725225523 -2.8385768229266795
P 1.714080836635512 5.20619644112378 5.282831177619354 -1.421572708066984 -0.312668513009868 -0.6441752417721616
Ni 3.795525592012897 2.6866241810302696 0.09442507411176534 -0.675287904016566 -0.3435736872291567 0.3531081090821532
P 7.625071962569561 0.9064218716566081 2.1108170051287494 0.22586061408568844 1.6599695069464704 0.7532368098882188
Ni 6.928150081845795 6.866441595333082 12.40677578912796 0.2373894406608944 0.47400163683613206 -0.15577774122567364
P 8.060559924122808 8.533010655036781 11.270876800732516 0.5470052828873676 -0.04210541381048233 -1.573828295072012
P 9.170946078134556 3.6453557492220483 12.626497594260655 -0.20374321336135878 0.4831637629513743 0.5310752419206725
P 3.0355204627124195 6.432328395843834 10.729218714500735 -0.6834424148029004 -0.7838933584318113 -0.0006288918332505298
Ni 0.8972760378988427 3.3916021674490717 10.63015610969308 -1.2015986346690595 -1.755090039501403 1.3681035325042503
Ni 9.199816081478538 0.2496384606614057 0.9175996037449645 0.667993684347998 -0.557345231360795 3.0186520032471367
Ni 8.736429615106534 1.0507856359971668 7.627789408916066 -0.5472310257449285 0.674760056537554 -1.131342212345658
Ni 0.44647322695264385 7.720489614891535 12.743012345216762 0.029245012908046406 0.4789196429630396 -0.6278351098512412
Ni 4.7807900680398605 3.495744976337226 8.256410360776224 0.0797371081203272 -0.2174489929832255 0.6582959974442598
Ni 4.199485676898428 -0.06972884839408329 2.461701192755442 -1.6619682825440536 0.12734828224038713 1.2260858211771464
Ni 2.579374409877477 3.3235972706832433 9.182944084921099 0.630849471197533 0.49561972932653997 0.7697322364400808
Ni 3.0938378694672664 7.995332046726258 9.03302903136611 0.6634464312969478 -0.04267311338849425 -1.1973933383384605
Ni 2.619334160537721 6.4341247516074604 12.964839369323464 -0.986116792714534 0.8134178502534894 -0.16988564138196546
Ni 8.507440080646397 4.703711741651638 4.253345188533747 -0.8994549324499154 -2.2782377990448825 0.930843474063526
Ni 7.830186462518246 4.576885358707496 2.0016673128035096 0.5897043644177908 0.7148952339955429 -0.3289615937429367
Ni 0.9349115241628855 5.288022279173014 9.514645759214787 0.3472243966078665 0.022722381298180223 -1.3308791009351528
Ni 2.5005363880473346 4.35181847866997 7.147607932662203 0.4766984669420049 -0.05714919551748222 -0.6829605900704754
Ni 6.415400492295791 2.1438131276808163 9.338587313742748 0.387300695803462 0.4203493987283148 1.9754387226299268
Ni 0.6701167699999095 5.3403365582483975 0.883271795006904 0.7030938704852406 -0.767741174151981 -0.9488743634233078
Ni 4.102143357686857 5.782570018995669 8.864387885483367 -0.34442600792712297 -0.3526684504415733 -0.5533481943862599
Ni 0.4523489600141766 6.173011610251875 3.2290237222685665 1.008854857741998 2.2014047519452284 -1.0605018924943286
Ni 5.519293918659391 1.3011939634144118 1.0231721651796784 0.001852479827706487 0.5092571176043165 0.2260688734417526
Ni 7.067184351918249 4.58206362914856 12.706311697156238 -0.4930082598456219 0.05992881514514841 1.5469682374563742
Ni 2.3060808766348577 4.148399518600217 12.50551669961264 -0.5550304671846893 -0.052892220013341165 0.009729568582938082
Ni 7.948956739767351 6.423062499532479 9.997296308135592 0.7278641354513852 1.8450719652781902 0.8107742419830553
Ni -0.12617932826601944 4.985226352036972 6.62780123118367 1.469967554430604 0.8203163771455355 1.6542480310816607
Ni 0.8935925920753673 2.909060682985344 1.1516885889544966 0.34397375088105275 -0.15476498369044314 -0.2691595339836397
Ni 2.2233018702212513 2.921002782781284 4.867438571409604 0.49939770831173347 0.26108421317467295 0.5212392296668571
Ni 0.015157210009612775 7.194221531712205 5.385206959001247 0.3490491085214311 -0.3189720866303926 1.0282044659132032
P 6.551987685894328 3.603178049098552 5.466468228096199 0.24072056191665642 -1.1467762875125413 0.10472720240676156
Ni 3.5848112279235225 5.387188449389491 4.037110696503395 -0.2640949749765387 -2.2612600335399637 -0.7599260489829364
P 1.2473032905056423 8.97791115418821 8.268752058078766 0.738966930232766 -0.288595017000432 -0.3094412643218219
Ni 2.3960728013442467 1.6722330794073759 11.183028588334922 1.7024127637123456 0.08826571441662863 0.7049496927470569
P 5.347127882844554 7.046260473304182 6.238526354665779 -0.12346308825336802 -0.5411822484476873 0.21979872416232468
P 6.345434268318657 6.219790180749555 1.072409726755832 0.18863026897932028 -0.33921926691520293 0.0432518687100997
P 4.294884999059548 0.6219643539462728 12.69173005419742 1.198896405246548 0.8724143833923556 0.4853358309020287
Ni 7.110929280794704 5.715619106478906 5.761134728893793 -1.2785121572976628 1.6899663104188767 0.6322103561008016
