# total energy = -340869.2810716541 ev
CRYSTAL
PRIMVEC
9.24125997557696 0.00000000000000 0.00000000000000
0.00000000000000 9.24125997557696 0.00000000000000
0.00000000000000 0.00000000000000 13.52551809513400
PRIMCOORD
 96 1
Ni 3.2777362035121316 3.1434144934932453 9.306976165336982 1.6587122375006011 1.3640576445696508 2.525772041449263
Ni 7.145878007965896 8.709332809783255 0.024229658857827248 -0.06276294215983384 -1.5616777757524072 -0.08722853140136591
Ni 4.549194921981242 4.861392399075708 2.594396798330118 -2.3905538695424955 -0.8222506180537711 -1.0289290027840539
Ni 3.6172600855963353 3.9344478429391803 0.22343610161731303 1.6418882239647272 0.8735682944911406 -0.34199271589528196
Ni 0.6856608096234821 3.5398368116686965 3.6946842836499463 1.9012348856230028 1.6098957302185306 1.8149370935660227
Ni 0.24645977608178185 2.2420405029998034 5.948441779847751 -0.5205907974495809 2.1024633029823083 0.8533329412808723
Ni 6.127389533050759 7.388562729452376 6.714932191731377 0.06712044779758118 0.2842449675618524 -1.235564450091543
Ni 0.17375878587066512 5.635809963546482 11.696137523066794 1.6588832158608267 0.4773445851664359 -0.6263981202943987
Ni 0.14779823906742764 0.4239520308790125 7.700794399207803 0.11146914911628546 0.6482866928373738 -0.6891479498281099
Ni 5.462702686486023 0.12518118003060458 2.216210257958607 0.6178767130869487 -1.245241568169991 0.750465674900985
Ni 3.7370360528171673 5.380252167271127 8.353508269680315 1.0649275323658498 -1.52337348085557 -1.0260840771360908
Ni 1.2839344190900603 5.439525607110215 9.227675991560368 1.1134658462858693 -1.0092500362978878 1.791214296027786
Ni 8.237640431194743 5.318178625737115 9.552721592042468 -1.293230951565076 -0.1731195749382309 -0.22150619377173464
Ni 2.7937344669776167 7.7655968847369 8.674482171130125 -0.6322149840864919 0.05568443804649764 0.0033084955479426893
Ni 7.191224869408117 0.7564904447414564 5.128389026631516 0.37089114409718704 0.30392624804086366 0.4035325842812922
Ni 7.285809162634351 7.890095135674255 9.771524126036564 -0.984931514157181 -1.034170196578335 0.4741119371617513
Ni 5.705248789076713 2.574208342347507 12.500621526034056 0.010360260188401513 -0.3361912787221565 -0.03104427090031428
Ni 2.583015262859925 0.4828290206761456 7.130409063321891 -0.9498580674928158 -0.9549462806490006 -0.7304786902560968
Ni 5.820542745333723 2.4017664359868305 8.960155384578481 -0.9493227638146361 1.243575750431794 -1.8307843450109242
Ni 5.2526396118083944 5.1065445369072195 12.111667993963678 0.7727368275943596 1.6810854629894787 0.25681901014041575
Ni 1.767963879403733 7.8871841388626995 12.541590802747281 -0.5179268774641724 -0.8055937262233802 0.9538088246104476
Ni 4.314032585906209 6.379722129684106 10.16082882597627 0.8620340685992961 1.2832365593565256 1.542874269892659
Ni 5.8732456495124445 5.363747277412597 4.496044740832112 -1.5578141790319429 -0.28802448920894264 1.658759802909085
Ni 6.838541433483742 0.8450475883788136 10.720027616972063 -1.0784376510371427 -0.4857258672515957 1.2349275878384924
P 8.630218385326998 0.5303152337433661 9.679834195354388 0.47444798034493124 -2.004700961929154 -1.4516738983277386
P 4.286872523591417 5.442381156363454 6.230042370137845 1.230747231208558 -2.241386691654804 -0.1940936060867367
P 5.534830718594547 8.68894659084265 4.391045547902315 -1.3757499933059145 0.6085407803980035 0.7619312523384233
P 1.4446584081267633 0.8072305053558149 12.786253153813673 -0.34756815310053046 1.0609883452124436 -0.23287046974461828
P 3.494804153056929 7.032487751211047 0.4252291729722089 0.9383171567327518 0.5830778602402087 -0.06605806797133784
P 5.030267179184764 4.148262869062811 10.3321432986512 -0.7844929396890231 -1.000140874907768 -2.1814411643391076
P 6.895707866106847 1.2626702804761314 0.9455527567071526 -1.392354691742131 2.2691911154615823 0.5880627150493098
P 5.814277171244091 4.362410580536334 0.4405826018697238 0.21893689038266165 -1.0983937824440952 1.9749607545522436
Ni 3.2735314303398857 6.266359596708415 4.454561650078498 0.23480908152822785 -0.7355769307146106 0.041778883708999015
Ni 8.34452484110726 7.7422719452055855 5.925448601540356 1.091219119072527 0.1296769303735638 0.39798311521797264
Ni 4.759267237918589 7.121665907501536 2.8268874862203246 -0.04348841020093801 1.3726875523305069 0.9084072565471968
Ni 5.041513792263057 3.1241279844592293 5.993602891969616 0.2415633695329259 -0.016860780311080643 -0.4831694193783292
Ni 9.098269707586136 1.9392413870397869 11.081456981094709 0.5047887974203177 -0.42368334819755415 1.0657245743458486
Ni 0.2526523442196323 7.481834763798481 8.661958415958637 0.0966253992352336 0.10253559407208147 -0.06054742256575379
Ni 0.7141590063456178 0.27139731543410145 5.080319690076013 -0.6579956925950217 -0.3135450020775503 1.2812046165281614
Ni 2.1031258869004636 1.0611923360776607 9.672787734818483 -1.4596021520358797 0.04539694007756053 -0.004780452107778864
Ni 4.43286594463568 0.6396624393710563 9.056916918594563 -1.186203383159912 1.303781987608045 1.3719169927130697
Ni 7.131498607842787 7.491371743828718 3.7711168945356843 0.5627586890668824 -0.2594657037346435 -1.0190739643668447
Ni 7.991286929599731 0.2920811029376634 2.63502784493762 -1.7722963760773605 0.21222528269044094 -0.693345275738909
Ni 7.12113915569754 3.108140605144976 10.534809669049563 -0.1585005394734754 1.5213443662406831 -1.7572466808330895
Ni 8.175012414077576 3.102743709468951 2.4653231997057774 -1.6374669549685799 -0.6366123418232391 -2.3127224630853136
Ni 0.8656934867175267 6.271756492384439 4.65997359873944 0.017883050928007915 -0.7320630040240812 0.9969761040265409
Ni 2.1765292128502414 7.303885066645147 2.3367763528854324 1.4857980937049573 -0.23051533924888043 -0.5390374341905426
Ni 2.690888487562399 8.658542846366412 4.787709062956438 0.7705889280134213 -1.3309837448338173 -0.6534551244121908
Ni 7.640202231606781 3.8040536683009627 12.418995327186114 1.5139208200831025 1.9443944517296126 2.668216041680508
Ni 3.6151438371206335 0.13911053080538738 13.309028443752128 -1.235530254419498 -2.0866898421981355 1.1703620452522812
Ni 3.0319741425391515 2.7862582878647664 2.763100615134369 0.09440576587609546 0.4063767385983066 0.12673404569515592
Ni 3.9246890726756822 7.44467565846749 6.553897696368108 -2.2092890397893115 0.907171841478199 0.2638638328023391
Ni 5.794685700639341 6.536361481924913 0.8646732516445247 -1.1696025413784372 0.921674148859432 -1.2125098822649247
Ni 7.976750428061396 6.0442551606166415 13.44136235880541 -0.004473976610953585 0.10901863069326385 0.5602482639402029
Ni 4.961724755847297 0.43315909793727303 6.4058203712571595 0.29778748213297745 0.3291479987221299 -0.5483823657405523
Ni 8.652452856211445 2.9714161675990916 8.42772297823344 -1.4083245848078263 0.14221414360862603 0.5728901210739294
P 0.14613019168810812 4.321333181084395 0.42487061209510313 -1.2777459685555996 -1.2383540970215383 0.1565971518031755
P 8.865888990686589 1.7469769785813802 3.9306099477777874 -0.5655707045943809 -0.8756174637106855 0.501810174407968
P 7.414438256666197 2.433186719032184 6.702610820147739 -1.6352149257096096 -1.2647850375195573 2.716269188433993
P 8.069144542734174 7.230675807149474 1.631434432437924 -1.2900705515592235 2.85022751979173 0.6429642521831959
P 7.963138052494982 5.662249207603176 4.628283470910285 0.7908474211521412 0.2493018758277642 -0.20216558446159377
P 4.914538883720952 0.543446139678408 11.692309793291091 1.4109939041098731 1.0477628476611052 -1.055594170780066
P 3.028462463845847 0.3183669420830174 2.360527314489804 0.13071745582293617 -0.06565517610596436 -0.7275010956850116
P 7.532800311149988 6.696401617742394 8.006876934746058 0.32374893919374564 -0.5684349135160534 0.5895200163211267
Ni 2.8389242270046107 4.9301750951658745 11.617905638913722 0.4145608170709957 0.6153189796621016 -1.2874873642130795
Ni 1.9527336262298505 2.5772117517562534 0.6535492803511306 -0.9274951264165833 -1.5792206697321771 0.13956333624934028
Ni 5.207209579028701 7.749184407475563 12.086524374519621 0.9634070098218441 -1.1864255264730472 0.9934986870009018
Ni 7.461707300130016 3.554779928634678 5.017804416327421 0.1407776682724156 0.41185755920721967 -1.9449798919194372
Ni 2.6538495186077586 2.864910649335062 5.393299901868696 0.046008348409314316 -0.46167499694997916 0.16409346018022064
Ni 0.2870834296815083 8.801643753118558 0.813022002821851 -0.11538391078965934 -0.8930528855783135 -0.7533712785835541
Ni 4.605132267061691 1.7469400135425035 0.9630076480648184 -0.097899895072283 2.358102176771694 0.8542911914290836
Ni 8.69512899359481 5.452583507093475 6.770590450768305 -0.12338929759263911 -1.125445644355565 -0.19121808431115453
Ni 6.373539726931948 4.377566246475858 7.582689251744206 0.6967332183745355 0.8616568877655354 0.02119411757911189
Ni 5.728961861516236 3.000433723117448 3.2090782644281743 -0.11949150520012967 -1.0017676118779135 0.08790087487804217
Ni 8.608945005453348 8.167554717484165 11.761329989756042 0.26333032889637226 -0.0434416161234026 -0.10155626087794767
Ni 6.8026483807342855 5.105555722117264 2.3773260764074053 1.3432746463860283 -0.2286186364467998 -0.314432032668194
Ni 6.850730655053395 0.43531046319990785 8.07407105829049 0.4990542089293856 -0.02789261264521003 -0.39927509455651883
Ni 0.39428666305433907 8.148295932229308 3.430747437187172 -0.5678615575110866 -0.9455355288580618 -1.1285371387966951
Ni 1.8635554699393615 5.563007319478454 0.39947747863862587 0.4153915405024072 0.3939824786990118 0.16051885545508482
Ni 8.735707365021913 2.064867071662886 0.17575859447390466 0.6472911616933239 -0.5078936615978866 -0.08925584624403983
Ni 3.448902816031555 2.081963402143446 11.89804611016818 -1.5948146675156922 0.6037245899562828 -0.17635427982544466
Ni 3.224719096502957 8.697818200173103 10.900363407384898 0.6102217676448524 0.9319205091777885 -0.2667357550334955
Ni 1.9095307370424894 5.7163937482980955 7.141716668714331 0.680070413006874 2.440359223100397 -1.5231582795209704
Ni 4.072308955430529 1.1164273454194487 4.0310374895244845 1.1573190960253938 0.6237869079237967 0.8688693463535745
Ni 9.200958585586127 5.6722297680999345 2.305613900986245 1.638684886536081 -1.3483345774074391 0.6337563604316827
Ni 1.6179505103816079 2.5623610473874647 7.906828284647849 -0.05874045126400206 0.8212756557350113 -1.522217769984572
Ni 0.9862272372353347 1.1336900185749545 2.279292945053958 0.6403234721262391 0.9027408022900388 0.9624461885704716
Ni 1.1846555659264622 3.4761922559824168 12.203979861424957 -0.04860721948474209 -0.15941790908142223 -0.21485937787917836
P 3.7911713522523676 2.1007046768540274 7.548294207195235 1.1591276099890424 1.7074490405846723 -1.4722686917599548
P 1.0973349028395367 3.3963015657097455 9.96848217030636 0.21114901890712667 -0.10120993328212248 0.006653500760775638
P 2.2739875378491528 4.8436584216745215 3.0035443311389374 0.563403778850049 1.162011616405057 -0.8193123613610535
P 7.260229355731545 6.153606986874191 11.41076280230737 -0.18002658647070932 0.8304879183618986 -0.6952859444050478
P 1.106899606648931 4.327765097848973 5.965456787242782 0.07015254975568563 -2.7958520303646432 -1.4122043794782067
P 1.4401856384226601 7.900898168286025 6.69404879301788 -0.6222252198636316 -0.10976527905130128 -0.3628780439847234
P 2.0695616316002505 6.977585427219151 10.595646730033142 -0.6900511783686696 -1.8639052959346092 0.15187917750221583
P 5.003901865205825 8.078302631115923 8.556121040772306 1.2523851211933077 -2.966296372463556 -0.7467365468758559
