# total energy = -381172.8713938867 ev
CRYSTAL
PRIMVEC
9.22388470932139 0.00000000000000 0.00000000000000
0.00000000000000 9.22388470932139 0.00000000000000
0.00000000000000 0.00000000000000 13.50008763664797
PRIMCOORD
 96 1
Ni 1.2989443410717243 1.1876397242186845 10.960234892893052 0.4760299801200705 -0.05031468909415205 0.2028176162232959
Ni 1.1841162002576449 5.468905814575732 8.326448696216689 1.766798843297899 -0.6195697845186556 0.8244733367367025
Ni 8.846618606044068 2.97873365813128 11.888595829722117 -0.7590508454668348 0.9473802953762845 -1.1423012824603231
Ni 0.5126930288775909 3.2098657613138006 3.9730490602247843 -2.3414707388625997 1.1275099830837614 -2.326455753511006
Ni 3.9754850881779533 0.6284223432283024 6.371312584594398 -0.6174784492072656 -1.4035544171126924 1.8390501845641425
Ni 7.180305384552779 7.007053157955394 11.63375465326877 -0.7291748838430087 -0.12939462324645457 -0.6982152022367007
Ni 3.03642905702212 5.046913088875344 4.86721336686234 0.20981333081483863 -1.4335733320722859 -0.4975370009539109
Ni 6.17604571234829 3.8492470019717127 11.259329501042412 0.006762001314181903 1.2713218101968105 -0.8160961684166009
Ni 7.471752469885132 2.2025622071534396 9.86022115107614 0.831372120739065 0.4290587535768547 0.5043483674487894
Ni 5.112873088470612 1.526340770944766 3.0969202153700044 -1.0651445334726624 1.2200121041792409 -0.517879826276321
Ni 5.840480786425227 8.781276606724688 2.434200701606801 -0.768754960128476 -2.008362212830825 0.21542887722940318
Ni 6.347517729195726 0.7384439177175189 5.997238862375674 -1.0408185551327882 -1.7831536305068385 0.007793785012805932
Ni 7.669687811979222 4.986367509607643 12.933826153052639 -0.37292642935966097 0.6291358309405358 -0.3170188195587637
Ni 6.8227322697002935 8.022621312820183 4.702755191952009 -0.9796520109257967 -1.4853694908079709 -1.2492805141260548
Ni 1.8662409226837668 8.989856311779615 5.615347897861188 -0.7054973377204108 -0.3784684422238127 1.002932321609976
Ni 0.495285713643891 7.357071911226488 4.109116117983076 0.12937919662748684 -1.108672024441652 -1.1683167326874782
Ni 3.1925894252430504 1.3232585011798386 1.4548639659015994 -1.0906676174444314 2.694585789923288 1.3472140906497507
Ni 7.592705270149814 5.42642982546425 4.09831587137056 1.380001569493417 -0.2935400197105332 1.2716264859214228
Ni 8.830947225913686 8.742646977539263 11.31828488258529 0.18162118465133884 0.7431953664918168 0.8714823584963894
Ni 3.10907637303559 7.702939916375941 8.11140581514213 0.0158999590597081 -0.08413446585707446 -0.5666904200211208
Ni 4.098900665661477 2.701989445034259 7.822504521991051 -0.2849049697433545 -0.470158608940958 -0.6754169733952626
Ni 7.472711753895467 1.2793528099375684 2.319679716153723 0.11343681436561755 0.5847336506760769 0.041100626695051795
Ni 8.774949021810361 6.116929835211376 6.772831975781899 -1.0880085825550294 0.5807898355369804 -0.8409145130118614
Ni 8.948007546828737 7.073013157550661 9.079672966801143 0.44831374515172473 1.3887664601702405 0.7135292068859519
P 5.355239883235712 8.310747799655221 8.383432933596021 0.26855378207884073 -0.0849091392395699 -0.9962302269994521
Ni 9.264377568660377 5.596721185068196 2.1436787719113384 0.3735900310855888 -1.0626773028790923 0.42929220974389937
P 0.7296710809653083 5.23294961968739 4.692428130625361 -0.20098030590424096 0.7162553475678632 0.16119197026270948
Ni 7.62353149286655 7.232669378078486 2.464657046546475 0.862897702151172 1.2956776133333558 1.054074648811746
P 7.972692424859173 1.6974069368647524 5.250750794798411 2.325489532942995 0.6163283947632224 -0.47270245840873437
P 0.8368267944736479 8.256105506604968 7.363325705063098 -0.12193482453429969 -0.49931723278278517 1.438742277867735
P 2.5708626999291946 3.5090701336912695 0.9303044093384663 -0.03241749709875707 -0.08711668841384997 0.06338746311771018
Ni 6.097836393851818 1.319236887444202 8.359213779500468 -1.7005361155149228 -0.10224325964264327 -0.20445258072355757
Ni 5.294048632037978 0.93529268619221 0.48210201522108087 1.616080518873004 -1.2629099319840313 0.3435793436561115
Ni 6.778097891565557 2.922357274754652 3.964624886314792 0.48959023530300844 1.227326121342151 0.9872318801555837
Ni 0.7471669454922699 4.550806449491839 13.375629938343394 0.2874819864419113 0.11638766946382537 0.3830095246272759
Ni 3.031171442734706 5.028050244633655 12.787741956494115 0.4959058931083911 1.0130555260869067 0.14321121741457274
Ni 0.34581542900657797 6.520972881256836 11.717765795250827 0.5401692338021407 -1.5992788739346329 -1.225023184240587
Ni 5.369730606122604 1.5617881599035985 11.173455134347973 2.441306417505015 0.3352636247015645 0.1342583790966591
Ni 6.494205167814595 2.893827799331891 6.605133450171272 1.267517605959372 0.5972749776761972 1.5334519481374946
Ni 4.709457266585756 6.996713183190145 6.173049794592934 0.41273661937806333 0.2195688675397057 0.3982533381602238
Ni 6.8869766267386145 8.983888458369163 10.03778738855462 -0.8433838004879604 -0.4421572386320256 1.1713598903891762
Ni 1.7933537856677126 8.553280624345188 2.3924856829842867 -0.2783093188037078 0.3971472495802386 -0.22864640436094172
Ni 8.640427887130265 7.416925699140584 0.1039596374546745 1.0003673890962772 0.8593580644290297 1.2107443057240697
Ni 3.2365043403700353 4.347355224338321 9.461941188200464 0.6572575288774164 -0.5482401837357332 -0.8391324814107743
Ni 6.418209581649666 2.648380227072059 13.147735418695754 1.4632418056709962 0.8511639586540115 0.18871717226617177
Ni 0.6102725052750642 2.7601737098149814 9.30106095817099 0.06655300532988538 -0.44641035748142466 1.9004003055368497
Ni 4.858542915230462 6.446093385142393 9.548301653619372 -0.23467049906783458 0.09668967681426574 -0.19092883520550988
Ni 4.853377539790195 4.911128281989324 0.8390146999279897 -0.501714272260052 -0.26106492990096325 0.7666415133298992
Ni 1.251644260254422 9.20433930305199 13.20988964345771 0.1833307111432778 -0.5016839332427488 0.9611002160655384
Ni 3.03623535544311 0.7896466241576374 4.020906263678858 0.8146411811376292 -0.1709181964115379 -1.7592950787216861
Ni 2.637468371454495 3.146064150741788 3.1145516710022734 1.2229526748648036 -1.1855343821173452 0.616295741753074
Ni 5.520338195745247 6.329844766082241 3.523765626818829 0.3466037323047321 3.2527000382396243 0.5945079564540212
Ni 8.91820517531534 1.748359676029101 7.273145628983807 -0.41339893555241064 -0.7381973990565932 -0.18284477264579477
Ni 4.536518652068672 2.4098413444635844 5.242948310718193 -0.24633199456616287 1.9765093299862861 -0.7223717448782463
Ni 3.2427120147830704 7.336069125730974 4.212810107557965 -0.6231245917494495 0.322414022432406 -0.8005692764255954
Ni 7.153187163491377 5.710424011947074 9.575625567309912 -0.01849008838438751 0.4987258790556895 0.8328353355481527
P 6.777728936176966 9.11536571109339 12.458042498861172 0.19944124355189521 0.20518431668325954 -0.2484858076843721
Ni 2.6441372401032677 6.269852619897425 10.68410406812956 0.624369262789828 -1.6167932286693123 -0.2800342719146145
P 2.3006582210949396 7.591589180099327 12.312835493739021 0.8117618027073051 0.10140687978427697 0.17872200872667285
Ni 0.8927281477874667 1.9734685824928815 1.956486488344532 -0.6276116809865255 -0.6167960784282603 -1.1074312100560153
P 8.851110637900156 8.967137883727155 2.0291310371925877 1.3207906063508994 -0.6879739841246668 -0.8584350383941279
P 5.57077439736557 5.634557560168153 12.451090456951654 0.026766212350250677 -0.3243071256900608 -0.5657740788544385
P 3.401196801952121 1.8721903283247887 10.590400468089232 -1.2276318255080276 1.1321569949374695 -1.8285539130185087
Ni 8.308976813789986 4.17916691044934 8.317997773041023 -0.7664885326918026 -0.6797104585642939 -1.0356084716867582
Ni 1.960167740734194 2.3318718469696957 5.28906404473812 1.1240243385280062 -0.5544103171021871 2.1966533533031716
Ni 3.625789170871875 5.042088997169523 7.333585133577289 0.24475436566639783 0.5813979014346244 -0.6439484704733361
Ni 0.34384520723150463 0.7945196024524465 3.9431996468993415 -0.18937357490324805 -0.5089308446131493 0.3519868509935164
Ni 8.154615103088434 3.3373582958412493 1.0011392320054855 1.2581497915912268 0.3962453065912595 1.1760729795941292
Ni 5.697944095928001 4.595071872237985 5.505821645981155 -1.157798606764974 1.876401371519091 -0.27974065193359565
Ni 6.934617991290363 5.18768801739205 1.8580307428991565 -0.2043826467175706 -0.5110923710408424 -0.3169630266201638
Ni 2.327739546617482 1.158123293131444 8.47191212533391 0.34423291807971035 -0.7059647642751326 0.23025925737401637
Ni 8.652160668487442 8.519641116790448 5.6954711724359735 0.7275520035276051 1.694683770499204 1.60795917531745
Ni 4.770547055051628 4.4039806526022485 3.4220289455804123 -0.6208093133527115 -3.494931894594484 -1.7188207727567235
Ni 4.250587449795747 9.100755077705205 10.040690145074356 -0.6749804000784763 -0.7116271047672325 -0.8328543617115463
Ni 3.625263409443133 8.638859826728755 0.8051482848092675 0.4111389358736403 -5.160993630481622 -0.44772650518968693
Ni 1.5188325287869493 6.691033643742913 0.7090381732468559 1.2643790603303902 1.226559161269139 -0.8498082159570656
Ni 1.9669380721148295 6.543626742116293 6.138772916604405 -0.691251626434674 0.6863341345283985 1.1076037310781377
Ni 6.506039411903634 7.388027268329232 0.42346762486627815 -3.069575015349249 0.005060702352359026 -0.05129016563354393
Ni 8.429007225583192 1.3222992171695032 0.02410938986744641 -0.007718194579864127 -2.212761057498312 -0.5305047141291831
Ni 1.6623285032945105 3.250395510750468 7.467762217357525 1.647408382452008 0.7670816861911112 -0.7159013066625542
Ni 3.555779885886827 0.6920736044794645 12.343777937403164 -1.777466093203758 -2.0658343389053644 0.11712917561554022
Ni 2.1513696469865073 3.549350838240637 11.20839336487055 -1.0448176489898524 0.2352502828307045 0.24352075036961285
Ni 2.570050998074295 5.235071113171785 2.212529536976212 -0.7277926587835014 -0.06274880109244678 0.6084664755166423
Ni 7.607426590154574 8.864227001964549 7.842295289035046 -1.0459795305084372 -1.3894328901096458 -1.3907001868578437
Ni 5.677070444818494 4.0811723592397025 8.898177354434175 -0.3522884413943352 -0.5437170990543991 -0.7748029660947688
Ni 1.8914682473786422 8.222023252583918 10.068526906755038 -1.0748165093447877 1.4814799259455778 0.29400924603746786
Ni 0.060833364470802107 0.3193069067248218 9.124533330111392 0.6251719611967814 0.06923800836121624 0.3939094593692313
Ni 4.126267931610177 2.7389956705098863 13.069313028462371 -0.8638888624198476 1.7191563017192715 -0.34781703588654295
P 6.086638597808095 3.1269522616128 1.8599613019699563 -0.3463409655616487 0.07292985539050666 -0.5314405956798912
Ni 9.06753064496263 3.716017211151682 6.095006506021328 -0.8964002047839917 0.8741020555074236 -0.45271007444720746
P 6.6480780126262635 5.272972055464745 7.259078282405324 0.4485765118948081 0.08203207480209097 0.6094388667322407
Ni 1.5382672538809539 2.2813434065022267 13.029879998918291 -0.030352129929296118 -0.35346060732556545 1.1618429520376765
P 4.805634712506585 8.771499288927041 4.639142671016649 0.4179500452582028 0.34602034899743633 -0.28084725473421307
P 3.9373719965365543 6.743757368772496 2.142787744647892 0.6922062770384595 1.9768201763584856 -0.9846510068022848
P 9.254692489709877 4.733706859500867 10.197291414984653 0.2198180074360343 0.5572855817674531 0.8645550352489367
Ni 4.669342591961253 7.492967404729085 11.87500074604103 -0.6475804107989686 0.34724882208789876 0.21695688383815537
