# total energy = -340863.6060272068 ev
CRYSTAL
PRIMVEC
9.30251800433298 0.00000000000000 0.00000000000000
0.00000000000000 9.30251800433298 0.00000000000000
0.00000000000000 0.00000000000000 13.61517541227104
PRIMCOORD
 96 1
Ni 0.0626208288361981 0.976569016340133 5.7384013649612085 0.09427566805613441 0.8934575772158999 0.1923660818726687
Ni 5.893805506354933 3.1580652560248246 8.121125018480683 0.3498291812205653 -0.9634247504336568 -0.7965223600497314
Ni 4.388276722755322 0.9334239387742814 4.743594762470181 1.0032125718545561 0.0911108971749076 0.2090270874681174
Ni 2.681032143136323 7.04942938534869 7.822408148332324 0.9531639919375973 -0.5385216708963887 2.0614428947058885
Ni 6.8368668535721255 0.9991834371168872 12.39160674906414 1.6557148454351744 -3.3515167886992216 -1.2107959848976113
Ni 1.1422933709834378 0.9029712164975303 8.602694039049458 0.8148211583589192 -0.017315865570628242 0.48863018538258435
Ni 6.3032372223760245 5.557705538167304 3.2648776956796035 -2.1953274354028967 -1.3113965667305092 0.6188519325160244
Ni 8.002146746044398 9.112755741394096 7.420515192738003 -0.9239896843664861 0.5145631031982623 0.060628926535966556
Ni 0.8912593465847647 2.994675833349832 3.972881162571343 -0.8803765756622257 1.533061140456979 2.2272875332492608
Ni 6.159020288891032 4.896370942584828 6.089455130515613 -1.0928507411386792 1.5969574248903078 0.11543224752909152
Ni 3.32831063431992 4.900798941058598 0.05035638936599137 0.18844386400012708 -1.0110912032716846 2.3368409534000723
Ni 5.643772432871759 8.372386954565505 8.10093390359136 -0.16632132106947484 -1.1193760411227174 -0.6681703191351782
Ni 6.591233871009315 3.028732351023092 5.0045024792639365 0.35684726440961123 -1.6503481818066223 -1.408542357245587
Ni 4.334117464111857 4.281521028459136 4.367244660256695 0.6415465459000629 0.15648222349186597 -0.20540723132734298
Ni 2.142434967433935 1.020997841362666 4.364276226826065 -0.482655198746072 -0.24882467908102954 0.6516224420788261
Ni 4.942018397439428 6.784335535544017 9.876584547867644 -0.03541128961975837 0.8113244580595705 -0.8753014751321636
Ni 1.2886591860807015 4.889505684446925 6.174863406959682 0.07240817855908176 -0.19373442297510504 -0.17986049320649025
Ni 5.650340010439997 1.0538450317216617 6.839800867686888 0.006648872775085323 1.0774575465120604 0.35051309466146735
Ni 4.747605077894638 1.7308543698005714 12.075707198283636 -1.0020578894248224 0.6117916832351334 -0.93531410824037
Ni 1.9276026213136723 2.5685554003918836 0.10579009294833502 -0.763080278341202 0.6542848194023376 -1.7723740233928316
Ni 9.01814913534737 6.507622841004599 6.1929986654147555 1.4856451130668609 0.2461715577288986 1.3363300967473952
Ni 3.2700489653257563 9.093229756527617 0.4050855797039805 -0.8077359693773638 -1.130578080486124 1.0580634582561648
Ni 2.0135485832867 1.9224211188979372 10.715973055188245 -0.021413689789085703 0.31833393882576144 0.5824664519084549
Ni 3.4397268900349274 2.526256851946017 8.571065478522529 -0.8184865230256484 -1.297693872432436 -0.9582925714134143
P 8.934993928714954 0.8069971403339057 3.627640540391433 0.07004482053322776 -0.5405271313621917 0.9890601916135742
P 4.587052923149267 3.0574957360669934 6.138320326277937 0.6525367263629794 -0.41538279875165884 0.9888290494393744
P 3.7402633326653643 1.8112467286457825 0.27919181553366146 2.6140716944276208 -0.18080563072857891 0.6404186029432067
P 5.102914745343475 6.190611639346752 7.581814339662878 -1.157950816072122 0.3565775556879923 -0.0606284123153343
P 6.911928869716769 9.118197714308288 1.7700682033432817 3.0469174258507334 -1.1337886170036215 1.6355160018897963
P 2.2480650570760745 1.6318848829046904 6.744127262848269 -1.8481796576692362 0.9592845030130381 -1.4453775237960655
P 5.924466605030449 7.819668556839624 11.714088563261457 0.856331876008196 -0.11475321918419591 0.49110615772690264
P 6.824122404183333 3.02091823606938 12.468382288987918 -1.9981202233878426 0.24374263657243184 -0.2886284413415287
Ni 4.346350275021537 3.268755915351273 1.861589164235071 -0.6347683466359648 0.13541743240176676 -1.7886262235856356
Ni 2.776838773979511 5.866251448625296 10.540582454296842 -0.511939549532486 0.7665762073096023 0.06455525817356625
Ni 2.39178895711756 6.948701722588225 1.681270089412149 0.32790795566744174 -0.697497864454702 -0.2162230909959244
Ni 5.54782626426154 0.06444505257717772 0.45040093467304754 -2.3947979895308302 1.935785112794047 -2.6609727298545334
Ni 4.369392611617186 6.558107605116258 5.389512295299339 0.7834179614572895 -0.10404740273091757 1.0157778101140766
Ni 8.35533543943437 4.447970979490999 3.323477976321761 -0.34249716633552624 0.027452439783997883 -0.8192246867432537
Ni 7.952610838748546 4.032194946328917 7.3179800507686 -0.16060447319035565 0.8677907685774151 1.0947250753432567
Ni 0.6066450934242953 2.9718567571814325 7.445390125340651 1.6286467855737887 -0.6606027912005655 0.3041471058024181
Ni 6.978255821645298 0.46642452158705777 4.724737628633669 1.5310165992231246 -1.2270790383283514 1.2634886873056368
Ni 1.52515709616191 4.3661460329042745 1.728242222801759 1.6984933740532813 -0.5275330330953689 2.2636244200070825
Ni 1.0456216059846601 8.545357970576596 7.082954729255454 -1.10568491678887 -0.6880529169917182 -0.9825684132416433
Ni 5.232749986306518 7.202548828370234 0.8291706217668431 -1.2395164927607556 -2.2069778751576314 -0.09063755708291486
Ni 7.354161263507847 6.994916631028748 1.9681281098664698 1.5229788165203126 0.8301737295555895 -0.5260065691485135
Ni 1.9537799064086068 7.881539602740977 12.751741632496893 -3.8974576348778176 -0.5049240374466014 -0.24273502124352392
Ni 9.001190645394255 3.4369733447655237 10.00086339494753 0.45368735075881217 -0.6877968351168542 -1.791386302829276
Ni 4.664366148602004 0.6016924329464904 9.60573709080241 -0.22725080956499571 0.7771164447192939 0.17986666385407732
Ni 8.857383022692552 0.8752692487348418 10.307981368922908 -0.151333589411391 0.3623697368897372 0.14683955819577935
Ni 0.4163565102729296 5.462382638249823 8.730853896556354 0.6579810373070023 0.22951209479534668 -0.2758030074420863
Ni 5.1965352845031845 8.357716883991692 3.1283725494525 3.141746909527809 -0.025023518627531098 -1.0406653173843756
Ni 8.91612842261242 2.419873258361912 12.228292676783342 0.00333214969702652 -1.5696659361642062 0.927590514343867
Ni 9.042363589186074 5.089221439138876 0.6678519395545837 -2.1309534400022008 0.40839454035928374 -0.22222147467120434
Ni 0.934782106373379 4.136718036352614 11.995159487391131 1.9593284473316257 1.3554681031284268 -0.48248499171679493
Ni 7.8816047203655915 7.0231869826291415 4.483640553751133 -1.9982382370229455 0.37002956742784016 -1.624296221914577
Ni 6.952729712796507 8.962938692192274 10.068476885088081 -0.9899613632716047 -0.1226346788148017 -0.23118614006365992
P 2.12849049324868 4.098847486380518 9.509110908140862 -0.6570950351576231 -0.9454499111227912 0.09503697170219116
P 6.3387914454154135 3.356404238082074 2.317329744126488 1.9450763082879858 2.7330795751231123 1.4442248982488612
P 8.071143520582114 1.969333716173614 8.319022130942335 -0.42394740049221824 -0.5257070356302236 0.5152362180058868
P 6.760911795718486 4.913673625696619 9.301193123502856 0.07980164280967547 -0.7871907982361604 1.2539372961717759
P 0.33343200608200363 6.117028723532633 2.6633052652127596 -0.016378698468339534 1.3340911801145474 -0.22191191385058553
P 3.463541335608144 6.5432328791508 12.57146255850052 2.1909097659511754 0.4047116921910578 -0.8556574756489909
P 0.8039766128035839 0.4246636586701494 12.079764956548885 -0.26563403732888446 0.18750978222163192 -0.013142965139861235
P 2.870105817462743 3.207563953249468 3.2698889620195613 -1.4289854555912873 -0.8817785982160751 0.8638688078151897
Ni 7.6670235422259845 6.638109258213785 10.421817209518226 0.013935636244485676 0.1401462053360038 -0.7220621840576275
Ni 3.3213337459683916 4.800443379010214 7.5954295047179405 0.5908958136227307 -0.6181986152027417 -0.1521440011278283
Ni 7.697573010687877 4.604123043316007 11.569100451050678 1.3797902248135592 0.16145216590263164 -0.6628787317189357
Ni 6.474133776917262 2.22914373586673 10.421408828986717 0.45233006539996934 0.541305404289113 -1.5221056698867401
Ni 8.199769434230891 8.330767489919188 12.10447616483822 1.0398351081735961 -0.0438787036608212 0.3465286560924225
Ni 6.339461226697161 4.435766076134725 0.3175851670062321 -1.428720889075991 -0.3335134747796772 1.64354967082755
Ni 7.261619816413174 6.263878269555603 13.169795852268695 0.6460261789379712 3.0852903692019766 -0.7437198715367191
Ni 7.310709202854527 6.361629126619417 7.690504027410108 -0.9188050548417532 0.5830061264620088 1.1267067704561757
Ni 1.2340813141361453 9.006930298878112 2.2649528478938943 1.7763566621896634 -2.798601825195638 -2.271901315303894
Ni 8.83336392172769 0.6512134562138587 0.5861060643691759 0.5194844517592796 -1.5946650293117053 -0.9799314898394283
Ni 0.6260045632221163 8.016742396475797 3.999744043228288 0.07608562741066897 -1.2089064811843826 2.8038504751890874
Ni 3.5194401650805895 3.82423716086436 11.751516313386178 -0.7795685058042122 -1.1102362836049784 -0.5631654375869979
Ni 3.3123940263606326 8.029700803774034 3.9829697431276534 -3.7281962573434115 1.077172411171474 0.6688989697710866
Ni 3.489058141939134 0.8424332213972086 2.367978232551464 0.5603670489062543 1.0352670291869397 1.167315030895841
Ni 0.9596663414938303 1.6956257348842538 2.185072127527795 0.6748636719949539 3.0494630750907223 -0.3628682737927105
Ni 3.6392565943708375 8.87467640328654 11.732659179549666 2.2292202314956 0.03841819476688222 -1.0726169305903073
Ni 0.17318218316519832 7.509364470517046 0.6939203851912344 -0.7684952787091861 -0.3437891456740724 0.26285955990754084
Ni 6.127828946700799 1.4131082692363641 2.957678789799347 -1.3445841092260715 -0.12162243550020345 -0.4877783789052503
Ni 3.3019286938333403 0.02171207654995638 7.265003142137775 1.9445060376068124 -0.9996878465307493 0.9201929363282152
Ni 4.5814807149858465 4.150122964505351 9.689634638355429 0.5341001447899253 1.4612710550978705 0.8243658646245609
Ni 5.465266418768454 5.362352664324509 11.679165050929049 -0.8671472214561453 0.32666277040643094 0.7527454720740971
Ni 2.342494915284561 5.699913127807058 4.145684733261999 -0.7204603867881463 -0.1766461000342506 -1.1285170841920371
Ni 0.9372751811443251 7.9085355094024905 10.34839057600318 -0.36665962251434275 -0.03660273882469825 -0.04509637811800621
Ni 7.11255627115332 2.07686151944737 0.7774262967447876 -0.05876230564087299 1.056923945335083 0.9093750197771049
P 2.930414040373354 8.601005632068388 9.748847024668962 -0.06486224789102378 -0.15841646440010135 -1.876144004092646
P 8.63187138613555 3.848349287007242 5.3456304583235665 0.9449734857070048 0.19843774198804534 0.3730894373000865
P 9.299615416483629 2.969875320889599 0.8335483866444822 -1.9834734200089457 -0.1299864911941826 -0.33919998364149323
P 0.5601762262477755 6.107437827678732 12.58044879069729 -1.0253916790547568 1.5272057101174665 -0.9702394593626451
P 4.151164846499179 6.2667341425208285 2.818954062824677 0.8177000225686111 0.24396143745145726 0.1701664058471779
P 8.873392655829859 7.558379436815985 8.619331592138403 0.7075696468684072 0.10111480246515488 0.3698071670043889
P 5.739886046802415 8.389996620764762 5.859589915627256 -0.4264627107149042 0.07096424702370359 -0.5857335526955009
P 2.1340440963764964 7.171850519623509 5.82039189636481 -0.4422338575062319 -0.4323482229614038 -1.4297357034937506
