# total energy = -340892.3088664778 ev
CRYSTAL
PRIMVEC
9.05252764298768 0.00000000000000 0.00000000000000

0.00000000000000 9.05252764298768 0.00000000000000

0.00000000000000 0.00000000000000 13.24928924903134

PRIMCOORD
 96 1
Ni 6.372572073351165 2.128167768246832 11.597937238310129 -0.37611588283123615 -1.02326691940227 -1.5323093498926192
Ni 4.717471292921998 0.36856370384074544 5.842114776247501 0.11117321514242144 -0.6530054384692818 -0.2879589260783299
Ni 2.9355989158492837 1.8396908709146422 5.007171186734233 -1.045978759177489 -1.1005905329850982 -0.8721176780875433
Ni 3.31593181083515 4.445198420010828 4.732685876075299 -0.043977948242846836 -0.09162074693179059 0.2565143344158034
Ni 5.41196310606823 4.438074080782146 2.7524871031224394 -0.490978888120419 0.6496439781962167 0.19224061203839796
Ni 7.381186594547321 6.245447428130844 2.678516184266867 0.504675411770905 -2.3524640046493097 0.6011696847449131
Ni 5.024424399105194 4.50367774836825 11.435037909229795 0.32778531404664835 0.9178979696464513 0.3937811613214831
Ni 5.777277857749922 7.704370882734364 12.452238752863568 -0.28224927728806226 0.49996515077942927 -0.26178638144802013
Ni 1.8274790111694161 6.472973657068217 0.2100539453982614 1.3145407687864457 0.5442521456222627 0.042370237436094776
Ni 2.766099388888857 1.6851642246203418 13.673663714115081 0.505563213692497 -1.2217704816312442 0.24710383973518085
Ni 0.6761486764510845 0.04849439040413406 4.813373770417126 -0.06574285072376419 -0.41458524255102797 -0.38743387894721665
Ni 8.5422547332152 2.2746919801343273 1.195933948755899 0.5396347014549093 0.13621447438176543 0.7491803804306582
Ni 7.167139579220505 0.4343746743091073 4.765782822268421 -0.6581193626570795 0.5671300786617007 0.05064070497500311
Ni 0.8873857872079085 7.200516248516761 2.360308070506771 -0.14922708459134945 1.583379429095557 -0.6388921389963513
Ni 7.534436834448681 3.859744301921121 3.9094281944531444 0.567928663303596 0.16041369733578822 -0.11845509351581536
Ni 7.587448436129959 3.810181713259065 12.561611391441643 1.4456135510662715 0.63644624855902 0.33747374497900584
Ni 8.043922140839397 -0.3295808041959214 6.8957909693782655 0.33410071474171493 0.3376601499581991 0.7162273225434052
Ni 6.797914135611505 0.6194717063407162 0.3286112784889431 1.7867907130387939 -0.09371593889792247 -0.5993717123042258
Ni 1.6322431482151583 6.504874764364124 9.294707164886828 0.27771385131155396 0.21384199235825754 -0.2962599897448575
Ni 9.287259650422484 5.000281307970637 1.150349945978222 -0.739742632056526 -1.5779662284997857 1.60543152379959
Ni 6.36106631075948 1.8239032627636604 6.952524970412574 0.8681103567003631 0.2584586026263678 0.019246249824121694
Ni 3.39762181998335 4.272023566840941 0.49761291643084693 1.1335371631144477 0.4759438481641674 -0.6984172909451779
Ni 6.072698043758605 5.723406265945741 4.965700652502316 -0.775758902250135 -0.4167331421319662 -0.7826561435906004
Ni 5.179602827387379 2.7678284216622733 9.106236255815155 0.6848518935559172 0.4217290526846608 1.0796108454096374
P 0.28321013676897794 5.655240733046146 12.15189037082427 0.37163367869016645 -2.439933705527204 0.31514525668513466
P 3.9904899581852447 6.227315215329 12.792811136082955 -0.06804321672216668 -1.5998581434768706 -0.5382933569356666
P 2.397036890776828 8.481856269004563 1.1928189740054675 0.04977321476838524 0.9362227360975682 1.3424025281937204
P 6.266422134602075 7.759980559839572 5.888540664092862 0.40184285528369507 0.12042327298577969 -0.11528852286237565
P 4.732960167661867 1.169668039896912 12.594774421086315 -0.5451049805408613 -0.8873833459973619 -0.24792556430552787
P 3.913516315921598 6.390776706373885 8.389476130002295 -1.2875267020914472 0.2793102492643964 -0.6357646491109631
P 4.63852419963948 1.0725615762297203 3.706091224541138 0.8237801673244199 0.4159399568067095 -0.7919655939169844
P 0.2150998242878011 5.702784608051282 3.6615600307244462 -0.16116831611362564 -1.825301467519482 -0.2877282981247626
Ni 1.468329030789798 1.126931057052425 2.637337141423977 -0.16631232220841036 0.6253894765242262 -0.6758566320358425
Ni 1.930822666359559 6.605240137970738 4.558510718604561 1.2208189163512522 1.0824596277123422 0.8540816465214389
Ni 5.800343698098948 5.643046978356138 9.221611625451095 1.276035927843028 -0.04100935253282615 1.696005831744737
Ni 8.568009174264251 2.221164384379307 10.264966126601498 -0.011928376006469779 0.9276082549556799 -0.5775792990194827
Ni 2.598591418002522 5.220357306685385 7.013842266175576 -0.6515159984079489 -0.5493311028070669 0.31172106149493406
Ni 0.5334373891927137 9.089099821050356 9.094324939986564 -0.03448517826106319 -0.1000717059126212 0.22909171942847642
Ni 1.624267871391182 1.264945892986983 11.557752162998762 -0.3583397897947377 0.4385366111603028 -0.36992595197044037
Ni 4.076461812892742 6.931420812796528 1.8264280127139523 0.36199872670356364 -0.35597488910698694 -1.8395304666346703
Ni 5.544790843682539 7.802663227518401 8.075017573178057 -0.9413669993026691 0.6191892612507852 -0.6885080022512658
Ni 5.120951501005377 2.9254691374542445 4.974975872291019 0.6821645765317412 -0.3463504786433454 -0.7988283824750888
Ni 1.2117622932811238 7.169900600141405 6.846093498054828 -1.0971084879737685 0.8540075987503937 0.07080843817212967
Ni 4.997945755847383 4.7924081164735055 7.223009063868106 0.8438232020182241 0.20385608479013922 -0.9684579419821902
Ni 8.128662851792 7.259366730506172 8.997883837098671 -0.30183157029536406 0.6902843774253983 1.6962626849505495
Ni 4.682456116128422 0.18936439354673099 10.388290520731347 -0.3705296469927103 0.09022258103268332 0.4274484716669413
Ni 8.128807692233753 7.04598960222246 4.937294726116441 0.7560999903686269 0.9756678294670681 0.15889520380873282
Ni 7.124954800560198 6.145887729481476 7.215112544034333 -0.17613059385041277 -0.7730610437029977 -1.6556464540910842
Ni 2.3753379820968368 5.299186717108979 2.485633073238321 -0.034305458150089306 -0.6924435898602461 0.7712900678455039
Ni 2.2588228992348602 5.088805975464015 11.343233510983492 -0.6359094022189435 0.09288367280461422 0.587775265715878
Ni 1.0178480993578543 3.3663362845648908 3.9196032354862314 0.04913995205976053 0.5440935085572114 -0.34284992168925466
Ni 3.6574836775418853 2.8637127941021814 2.624790338157199 0.4218136419786671 -0.7538245640708888 0.5686161762889239
Ni 0.9034350134068052 3.1681492976099332 8.149306235752723 1.121592846268378 2.070733575979195 0.34881848056786374
Ni 3.7908817243955943 2.9377715224755656 7.1090386465171616 -1.3399072725756922 -1.4858163485374025 -0.0626086759701567
Ni 4.13904193625727 6.932851112158831 6.0455576607325385 -0.5012411892783755 0.5475508709781925 -0.07277713186272627
Ni 0.49872275631577256 7.579826207882753 11.40830036368235 0.5249467604254314 -0.19031331310869803 -0.23233028097043212
P -0.006023551871366586 5.665017462864414 7.98404781797735 1.0724647212831593 -0.9834099353063321 -0.20511078313284675
P 8.505809257059322 1.706193246257229 8.131380420580376 -1.9750625702374307 -2.2802499443789053 -1.5399555535839673
P 1.8974641021185221 3.33267898691274 10.155765486048004 -0.8372650891847322 -0.843694903970476 0.017644966775272837
P 4.070459987087638 6.2696991495967165 3.858735850345422 -0.1377738484490853 -0.6315146155853575 -0.07377986209562779
P 6.8274887433117675 3.9106014020313364 10.396915769037685 0.150753805648521 0.2733699725205615 -0.8369442155102038
P 6.282092059894133 7.5825510186932155 10.222449120177922 -0.28299618275641586 0.36775979755705696 0.4090139191108375
P 2.573036132560881 8.703127201363767 5.86731520260685 -0.2556589283940436 -0.3802908401445322 -0.9823028182850825
P 7.169801022337701 4.006521984581683 1.5192558353626069 0.08891388952358881 0.3951052794495453 0.9475520450674584
Ni 5.588695602588653 2.838112246022493 0.5893467049617956 -1.3283175108555638 0.14731958315599145 0.2020023194108521
Ni 1.4256735206937965 1.0343689622452064 7.034869477306942 -0.4933553587723955 1.144730460727106 -0.3260822153126126
Ni 6.744042543807324 0.4615177730934559 9.063931078537642 0.8133646284180508 1.4956132800231663 0.2613780902660079
Ni 2.725797535971328 1.4847322108182264 9.186951307739811 0.3480319801108264 0.35318369951509493 0.22429995446678788
Ni 6.525858523362962 1.879693990421058 2.729327116486275 -0.09454691943965007 -0.03825415838519219 -0.005201598805597493
Ni 3.7084041453453676 6.753375699772726 10.664061290310832 1.0032480530781818 0.9412960368554175 -1.1660423348310047
Ni 8.327302465127435 6.866423664560261 0.2907662815646342 -1.4726420159389735 2.1258009492669845 0.9796553533599064
Ni 7.519753634666059 3.7612528015296744 8.093169701540642 -0.025742656181742766 0.29718867220671397 0.6774491733339429
Ni 3.3013662939114523 8.24902525888802 12.44787905556683 -0.23691455790700489 2.008079905703716 0.46262964755376457
Ni -0.14570767389711797 4.860157233103063 10.10963199484443 0.46197915845395915 -1.0253371716677375 -0.4888407587314935
Ni 8.4451392170204 2.4380448408478985 5.8390676954541405 0.8371596739551195 0.26386640390550037 0.2989431930039755
Ni 3.411182506342393 2.932602529210537 11.60213761112094 0.6997761189659174 -1.2858102336209727 0.10204245648574684
Ni 1.1325979393359769 3.4704494046018413 12.817031173702194 -0.23383411920946826 -0.5568202120952603 -1.1937300305542604
Ni 2.836763419408676 8.364100989860084 8.080184755937564 1.5436386588625093 -0.13018857990265967 0.581336966289702
Ni 5.611209238753499 7.898991173811176 3.5746186503099713 0.0029948209622658096 0.38901407895014295 0.4650428849809474
Ni 3.0704906297585612 8.509620371182924 3.379429860499283 0.08003458475608796 0.18265682500470476 0.6574405914224999
Ni 3.5444447652819595 4.531912581982304 9.306698142958382 -0.45849814188389426 -0.9704312636584772 0.29641888392022503
Ni 7.334692812744888 6.032595346448484 11.499614114932218 -1.365757915090209 0.20543577057243328 -1.0240835017662944
Ni 0.5383719219926564 8.977427840459466 0.2564934120350371 -0.5018824224068 0.47037381027555764 0.11622928950909013
Ni 4.9538599463890804 0.24561951587049619 1.5394882345698573 -1.6457230243297851 0.16252431592088784 0.5132672672049741
Ni 5.851562899313545 5.501239133353196 0.4145758911743525 0.36000586464325096 -0.041253607333148305 0.3012078206684361
Ni 7.791329462951297 8.904002789018747 11.20785205533054 -0.745813263730638 0.9432115087105755 0.46484850958195423
Ni 0.480299957377663 5.165987825862679 5.757876480577225 -0.7593310957114148 -1.6053165954882804 0.7272375576109799
Ni 7.980083716137147 8.605043064714748 2.5721109642391893 0.07704079223508667 1.026363813160039 -0.41396637802010644
P 8.602535514566913 1.6579070639881135 3.6012892071531035 -0.3564744544512248 -0.21867849451495244 0.11413846841833247
P 1.8213413974501698 3.316891378761758 1.630192750711605 -1.124302274779741 -0.6415444890175338 0.5903381413470478
P 4.659996795129233 1.0052288758702002 7.9706002882134275 -0.6114253010346502 -0.5804414510586262 1.6322136769894409
P 8.664635853968138 1.6683717859047045 12.31040465553056 -0.9288326142810842 -0.6334421716253735 1.6917781668166347
P 6.395140024681668 7.4558608947981515 1.3808807088291903 -0.8928646808269074 2.2740582137458962 -0.9122477133392095
P 1.781727536630963 3.3079565340111743 6.098369201553647 0.03390539449819322 -0.1614375106146123 -0.14041205740288076
P 6.678800977325599 3.925592387752682 6.070055610949389 0.7214579748147252 -0.012151547760869396 -0.35874576698390476
P 2.0936685855269976 8.553298816898801 10.484069883850983 2.473408697356198 -0.3776485174256786 -1.358493520218312
