# total energy = -381176.42744487844 ev
CRYSTAL
PRIMVEC
9.22169515962565 0.00000000000000 0.00000000000000

0.00000000000000 9.22169515962565 0.00000000000000

0.00000000000000 0.00000000000000 13.49688300934249

PRIMCOORD
 96 1
Ni 6.03886165350041 1.277608821554715 11.028224146028899 1.4990305332348313 0.559006935333934 0.11778403559071972
Ni 1.9955374640432901 6.098184238695718 13.356617771501693 -0.6621976464915111 0.46911602660905655 -0.7990857499015335
Ni 8.872748124241783 8.899888458606936 7.603641017002194 0.06565363344406758 0.7297322990083754 0.18074906645903066
Ni 6.807740188687962 7.258657719654238 5.966589303910778 0.09928057746989354 0.15931686472718368 0.02536804645114341
Ni 5.864846906830787 5.098649463338781 5.521792531426247 -0.22951338034692728 -0.8443849880589651 1.217173349178865
Ni 0.7911169554868209 0.9821763079629062 11.42834276727564 0.3002295159155668 -1.3516243039023044 0.14671511680277313
Ni 2.002299671425572 3.3399173644457854 1.3279099449662721 -0.6708596930418833 2.001980220563881 0.32235128751527065
Ni 8.561933647714095 3.2596676232514548 2.0751786980780516 0.33315609144025854 -1.9931276552692576 0.5886378708264896
Ni 8.39466280745955 7.005555343207808 0.035617342374551095 -0.5930953923772109 -0.43583900972348166 0.5798729801496658
Ni 4.6183039771067165 0.3981238158213843 2.177096784443212 0.06138611641696525 1.0200090745866046 1.7492646910688778
Ni 6.771897744416789 4.5717188650861535 1.6095160778346336 -0.521164924785496 1.809731123885051 -0.0794404028155148
Ni 5.641529354510645 2.688329728075671 2.454834092844417 -0.06003191638191597 0.5823558944725197 0.34032124173013
Ni 1.70527497368692 0.8584828157687665 1.6279177003593541 1.005061966358469 0.6096872352976209 0.4378825225160717
Ni 5.491214360371618 3.9540978238486906 7.452558297288913 -0.5789011031546998 -0.6605539402405011 -1.1414173371934728
Ni 4.019304170000436 4.359830266785592 9.177358572886947 -0.7695538018806876 -0.30542365852199654 0.7873154967394828
Ni 6.141575831938991 1.25139268603342 0.5224770578832676 1.2747025537435852 1.1026708125528946 -0.29987367523804487
Ni 6.025081025194975 5.509808143051992 9.154377133319151 0.13915915883238614 0.5706892567678687 -0.7752459671694584
Ni 0.2866773308808926 5.163773455138102 4.677492965241427 0.9051396415395185 0.24113656640815248 -0.0546804222620155
Ni 4.710083327640255 6.196469583070667 13.417568227729893 0.28312550924542856 0.48990956631564014 -1.6573829771662165
Ni 4.7914219763832895 9.229360771200218 12.434292946686321 0.06259582045435025 0.5925148372833925 1.0482415870697366
Ni 0.8924722871104247 6.911323663068786 8.828707761711089 -0.07703230759465442 -1.537805854230816 -1.0253294583582535
Ni 4.041741155793879 4.717870389186023 1.5081204840831786 -0.037551218780896616 -1.936234798736956 0.8244270568797994
Ni 5.870867925041263 8.130195530378757 0.9235134726353424 3.041783447058277 -0.8705153665974298 -0.8616131790117936
Ni 8.392384337042515 2.504816779426605 10.577681784890329 -0.5583952698918642 0.24088099875392063 1.2053293053560854
P 7.556112490122209 3.1498709705045016 12.590316927544977 1.8333899009545715 -0.7776972569234284 -0.5040370068559578
Ni 8.522485912903518 7.689581443948948 4.369032908144673 -0.35692105507034017 -0.7749479763130653 -2.2153015645319787
P 2.904354344964583 8.47649558231712 2.754441057055707 -0.6664116845728588 -0.8932858275247261 1.358867615728279
Ni 1.7569294536232938 3.1234352233767457 11.17721781033572 0.10259987165111363 -0.276684124495459 0.30589468462114416
P 2.469203097245495 0.9924523010485657 13.04564041636588 0.12038162111456686 -0.3470919847950603 -2.149145280419879
P 1.1598420975899446 3.7136963186425955 3.333700525886216 0.01281232127331987 -0.6406546302134127 -0.024385885043532198
P 4.917305179303519 8.556324401265734 6.425181345474509 -0.42845917231964276 0.4000875631554852 -0.17154734535510457
Ni 2.076629049729055 7.036246065210747 4.439638954670281 -0.3664886441541172 1.1063300065720365 0.19550154217785684
Ni 6.054856698837661 8.460985512610804 3.7797564049144574 1.6756087561456239 -0.16505968074823185 -0.5753339546287317
Ni 4.76069465244594 6.496669498619402 7.353292021071771 -0.04740162921241514 0.24647366235034973 0.010815602558265244
Ni 3.439035402828567 8.142933003553502 0.6379698866728053 -1.7840596872608758 0.26858694930962135 -0.38951261585311625
Ni 6.333342516797553 3.63702441653686 10.698631047052066 -0.06513067106106203 0.40153072335991496 0.5820813006548944
Ni 4.606838421152727 6.959418604883769 4.791303935144817 -0.9512937714980778 0.15861495356415262 0.44170163915184574
Ni 7.868930922558856 9.042096124274108 12.37381099521857 -0.797803026534368 0.9353963835415309 -0.5035320421950812
Ni 3.656139776782579 9.31583284124428 8.516055868076009 1.398364645381637 -0.5303283364523189 0.022071120867426502
Ni 3.021343277823137 5.420719034697601 5.941210437639117 -0.3038455154015993 -0.3370952785936646 1.8890727963391725
Ni 8.133819121885365 0.5537378550146465 5.401982504473028 -1.500961431708957 -0.006243666916866666 -1.0351968380706364
Ni 3.1945893838701456 2.403749688036482 3.1950331823248694 0.7070001475181824 -0.6386293722532679 -0.889914339949332
Ni 1.9842000148597354 2.531984565242565 5.071865997834128 -1.1125178805503033 0.045921959343095106 0.5291631124996241
Ni 0.5615267466571338 1.9551014770036381 8.82533306335847 0.9938064480493077 1.3007159470882115 -0.1406012905955514
Ni 3.3407500584536174 7.714141341938183 11.714423486625645 -1.3835345223473399 -1.8801592958996263 0.06180494912193872
Ni 0.3357349035708636 1.0134343599492044 3.4476313671247985 -0.09391134273818019 1.0075279114004585 1.2505763501193428
Ni 0.2167969177049672 7.227829740397259 6.32251291945394 -0.42628453326582716 -1.5914218397840594 -0.21137039088931336
Ni 0.4978146744776849 2.326629412234222 13.439665730581682 -1.7347821811819866 -0.6833909927396747 -1.157992725053651
Ni 4.155298657301478 2.9450190940942984 11.383169574874948 -0.07063900247380092 0.06209188423473823 0.08916817162623998
Ni 4.348776482593716 1.596795990578734 6.6963824634384155 0.4613240413684636 -0.466187540108352 -0.021879573681910704
Ni 5.81044728181365 1.5301713194685946 4.606913455118268 -0.37762717726944 0.005965216444499404 0.5089953793024976
Ni 1.1915485232727674 8.976926380056774 9.383914269343945 1.6158717452963076 0.8875119011554264 0.6624213324665431
Ni 8.281279165140399 0.37627978136538587 1.3252078071584403 -0.4266984808747941 0.022820083218309088 0.7865608779616454
Ni 3.0583478335118346 4.826358522777811 3.7821263801675173 -0.38829417006498285 0.0506486753948031 -0.6750984137135793
Ni 7.987155170703753 6.0362903676080935 10.354426455858684 0.2359203123145356 -1.477617614776694 2.3850005438244346
Ni 7.258136142088893 5.521822728022136 3.852304184060525 1.076650734340049 2.0943597000385674 -1.7066681965545898
P 7.8477292520517565 4.400769530423385 6.568201574085587 -0.9350582834758219 -0.345093980528425 -0.37967428960645583
Ni 2.384872240364429 7.706949061826582 6.90874963203139 1.350287587368752 0.13725525694145393 0.32340081182570757
P 6.407699346551845 7.427081520842704 12.129609294172338 -0.5359356553367673 0.08490451125387959 -0.6959253777612596
Ni 5.680309104018237 3.5114797815099252 13.259320679355818 -1.9398543977674139 0.08758128675509433 0.1933166187113961
P 7.80605794972576 7.30567290440412 2.262662956610622 -0.45436895020686907 -0.5234321235531179 -0.1116306143948142
P 7.330461564483418 1.371227419292366 3.0576642923867237 -0.10860056931923877 0.200838381009738 0.3469875980067121
P 3.0188085938652316 2.433653468449603 9.41739588884566 -0.33133755017428096 -0.47706587758375263 -0.8309915974711947
Ni 6.473646881875396 8.457563231743451 8.044741909159658 -0.8604150449386343 0.3409802154703676 0.20276876526323143
Ni 0.650402648743585 5.111789557792037 7.017444566552596 0.2315124130548271 -0.5856960145893461 0.5912033175608206
Ni 7.386114805754104 3.5086339811095333 8.62649213962678 1.599169087829646 -0.10526044920241226 -0.5545152181111676
Ni 3.855803328990139 2.1320809803604854 0.8807065952942706 0.5040701740867384 0.23902466227147223 -1.7013149026624763
Ni 3.178493683213267 0.6664297207734448 10.704189050792252 -0.29153661612725923 0.6476930251174329 0.8718477122556081
Ni 7.945117849033656 8.298509525763993 10.039015691417436 -0.7642676137810838 1.2040308982596362 -0.40437539189756166
Ni 7.015529370334583 5.364763827468031 12.572906302394413 -0.24821429919054025 -0.08686549163499234 -0.1139122113401393
Ni 0.08202035977142347 5.357415989135187 1.4931475477643323 -0.1986521719916966 0.7273332026485796 0.6453072984940756
Ni 4.234166675471825 3.2890132241648202 5.163365343569429 0.7167477138232495 0.5923544004461282 0.10253045186575889
Ni 0.7492306167961654 4.439485226545758 9.57145160068141 -1.1175148195442626 0.08908949586950464 -1.5881930484341165
Ni 5.10637247149933 5.624930377255627 11.114017250189653 -1.5679468965905705 0.8042238424590472 1.0614290322942879
Ni 0.14525477670681947 4.587256386243277 12.398413900480737 0.09668890548331735 0.21866255367535245 -0.15819534952823078
Ni 4.549336782194326 6.9420418365225345 2.3060545498538962 0.18130031097681035 -0.960523517626462 1.8814188793383406
Ni 2.201569752838222 6.301041309680566 2.1659542405603913 0.48801363484450794 -0.20245226246407713 0.23837005940660883
Ni 6.894962598387433 1.7235942418592176 6.896843937816117 -1.3540838211863906 0.5909384939352081 0.6554770399382259
Ni 2.041097721900368 1.0256960079766162 7.278346815221837 -0.9810941426889621 -0.20236690183912245 -1.758998887637506
Ni 3.5339076168197665 7.124905100835819 9.423060953243999 -0.6830693477341978 -0.5241880278825359 -0.0643346575223279
Ni 5.298184908775905 2.027875273094689 8.939733324405863 -0.2929116420979149 -0.08977058109692927 0.1420269672984844
Ni 5.240234896120979 8.337316726722392 10.289297888817563 1.3675381469190837 -0.5360516120893414 0.017579403644660048
Ni 3.2217388687189006 0.29834785766758004 4.772366094280987 0.12393514279378011 -0.29744912495695225 0.13367499578936332
Ni 2.231235620677677 3.3968882753552387 7.276016187048269 1.3926439408477758 -0.01845872092581982 1.3673818238468773
Ni 7.792085161264672 3.325724964378236 4.5435930236370075 -0.36033059497252135 -0.9808735420377236 0.1593376906627901
Ni 7.87958208547222 6.288916918907192 8.227069870182195 0.16826713194193602 0.4576900441603021 -3.1193184053209633
Ni 2.071513929395232 5.610939287827334 10.999563916337365 1.6366542292592974 -0.4303823574842846 0.13342328478987342
Ni 9.142001104246708 2.371375277050673 6.396668438568975 0.5536958075336658 1.1425067136029097 1.0177932978822084
P 3.255220488220617 4.511371425727361 12.708145874798245 0.42948761358415705 -0.46872958980391527 -0.5518510410154431
Ni 0.6894239710182832 7.377229686176032 10.987081741655132 0.2652679122387174 0.8334814537725839 2.941685773003727
P 5.2505657921082545 4.937848014991235 3.403355837165518 -0.39324611475361954 -0.468740902657825 -0.6638477805004245
Ni 0.7925361954935759 8.58606347297401 13.33652879980066 2.3586999582566928 -0.021681341628175563 -0.6228335428715919
P 1.0035243862076468 9.11994843876457 5.536135914473239 1.3596584870606907 0.2258549576587336 -0.1490404225018401
P 2.537163738961606 5.636350180791605 8.32724661951779 -0.5759836723975886 -0.8726920625337744 -1.6279209631513576
P 7.7614310411961425 1.0355053263985459 8.824033694686909 -1.5072891736991976 1.3023370276314024 1.2586573273552646
Ni 0.7426395234572513 8.02401331865481 2.478686658451174 -0.5846009817529545 -0.4803229510684696 -0.7742890025728278
