# total energy = -381165.3880946131 ev
CRYSTAL
PRIMVEC
9.21255810068112 0.00000000000000 0.00000000000000
0.00000000000000 9.21255810068112 0.00000000000000
0.00000000000000 0.00000000000000 13.48350999998914
PRIMCOORD
 96 1
Ni 6.320680909646695 3.0718906834895106 10.246362007463024 -1.9385752739446744 -1.2948438045781507 0.3892477922275038
Ni 8.69135772530212 7.457575080149236 4.705718534915016 1.2005090011493067 0.7183947625083692 0.564187708203925
Ni 5.850518001613949 5.46422622348676 2.3221975706090707 -0.024553263859331906 0.47480433524308546 -1.824425492672432
Ni 3.841839448097031 4.670739372663434 12.029151397541312 -1.0036776844164328 -0.7999529829978352 0.6419957176223395
Ni 3.56695513635252 8.673356386567997 2.8310651994318237 -0.2936485202639394 0.8300983962329639 0.2748100474011977
Ni 4.541570094059982 2.3138629692002883 12.171213651353774 0.24296950585183313 0.5070264285015849 -0.008281523282501868
Ni 9.037132672440224 1.7818930081648636 7.982521386808562 -0.04638784323592011 -0.29044749682813853 -2.681122465329531
Ni 3.7288934844939843 0.9045810902270083 0.41812208798403117 0.49506308549212164 -0.8248875414559858 -0.49304811194462184
Ni 7.217551088655453 6.349405666132364 6.19622569707715 1.1235851941080583 -0.012576036892797696 -0.7549098267152676
Ni 5.851816972320966 3.134010963471186 7.975995210575578 0.04577874889701148 1.0392812925526551 0.41413427105653844
Ni 6.223580546157616 2.4469383724829967 5.585638528080932 0.57021565956556 -1.097753063536303 -0.8807254743612122
Ni 5.394035742516808 5.0678098438914025 6.4353560704249695 0.8910870201011943 -2.4994758267568953 -0.35297389749713404
Ni 8.336489983214898 3.070149509988615 9.684301988815832 2.5506016988984332 -0.1403169265859132 -0.2740752261177022
Ni 2.237564562139894 7.774265981031643 0.8486884995924502 1.5051073355565303 0.13180040447446978 -0.07049476358645279
Ni 2.329469042800905 1.131643012325237 7.969334530992787 -0.0193434375236183 -2.2534652200858933 -3.319882963844025
Ni 7.645151977777426 9.160719140770963 3.1334056983970653 1.6829739382614435 0.2811213343312062 0.20313514746371467
Ni 4.2267124922605275 9.197191658707705 11.602627456473597 0.20549362039356223 -0.5073077071874296 1.082787443365406
Ni 3.791990295645474 2.5625191277329002 9.779482455174824 0.7759280808381475 -0.20497682865814376 0.8912253454512715
Ni 8.675208110767363 3.9724274606641745 11.845250310637233 0.042847948403461684 -1.0322143584035448 1.0620396692950935
Ni 8.087815399565876 5.12398802383034 0.28919141463811 -0.18056677524489548 -0.40231979492011355 -0.26817634413476393
Ni 4.704402060347408 9.042227217128028 7.417548357256697 -0.35211540615158066 -2.69342082308091 0.5677142332999449
Ni 1.4546813658114375 5.51551253501842 1.8091907393844546 -1.030862729471657 -0.564819171140337 0.8542297420635286
Ni 1.673083483196219 5.567563488881162 13.052307324435109 0.042407775542249546 -0.7366310830107378 0.8748337914671256
Ni 3.0370672134716052 0.13494002506356126 9.674701581909574 0.8887876825440565 -1.4034029791364926 1.2733408975093683
P 0.02695410279851493 8.714039043604789 7.495874448378187 -0.4194654534614647 0.5120884164055245 0.3806232837832864
Ni 4.401502359099075 1.8783300674631254 6.6964104897909404 -1.4722159841451485 1.0195609313055924 0.9916665188881694
P 2.272590708438327 1.8081948618424082 11.560087547702517 0.8414467313662476 -1.2078667270659584 0.5109159933639782
Ni 7.907249258732294 2.091757403416777 2.0620469032030884 2.4513884843313654 -0.4898121215058274 1.4892420863894997
P 8.03235579916699 2.5169077520560097 4.279625741571332 -1.1331836364297712 2.0650324118293595 -1.282289622062224
P 3.625768107938315 5.197789827616964 4.929261259778631 0.8018028917223805 -1.539940898295948 -1.9884346206689627
P 5.195698576904248 1.1139272628954933 9.26663684371881 0.891624123551587 -0.43644579006954515 -0.7605343719908967
Ni 4.636864796140725 6.502288069557531 11.095904511201152 -0.7016460822951206 3.1217121023641203 -0.0439694636024146
Ni 3.50732224708641 4.042590303959509 7.371515967669802 -0.5803334647258521 -0.036766260985756034 0.5558048834568686
Ni 0.8306401768114773 1.7947905896529763 3.5936789251958903 -0.23550096538892992 0.9472519973285363 0.32034248461535797
Ni 8.886028292748774 8.616247738250275 11.429944501696713 -1.4081968009807102 -0.8900917460674607 -1.3206664220682094
Ni 8.567660706272912 6.887391427676173 1.6602245944525702 -1.197866164209821 -0.29127693470796934 3.7384773275544454
Ni 1.8490064946940798 0.8322099967297448 1.733776737911817 -1.2516161042377671 0.08607899117795499 -0.48368621111374765
Ni 5.892232465169789 3.0156664407595435 1.9078222300473366 -1.7254904714674155 1.8160480672420143 0.07444397804218793
Ni 5.086115197046317 7.99197715655099 1.1158794039793012 -2.5345909252924734 -1.8096784162702446 -1.6771879277072856
Ni 3.6165647622907264 6.397974272993315 6.574370809982954 0.4148729489947758 0.1048488155862904 1.4279924955503986
Ni 1.4506831155501225 5.226127656657988 8.849713309557352 1.9215381159567295 2.2612214669925446 1.6140562893541233
Ni 3.748626784170797 6.430531453692595 2.815249079504115 -0.6571042911290038 -0.29926406667850397 0.7876494830401338
Ni 6.750750764367822 1.0599600969259464 7.351614078177823 0.5953422794298585 -0.5603454516396995 -0.018452550278232737
Ni 5.209471351421911 0.8680302655455168 4.108802802296199 0.21905336135586792 -0.6006130409104946 0.06123416422013325
Ni 1.8120917739634594 2.6196185634924176 6.165469571507103 -0.533759473621055 0.25758442755153055 -0.5284426893938319
Ni 8.752105334111132 1.117667561527046 5.509254444229224 0.23885394102156285 -2.0393527476750686 1.9437843289494394
Ni 4.035284745302314 2.817863603522919 4.707565652835278 -0.8817860544152427 1.7263489628129687 -0.49270846921701594
Ni 1.2958015869942976 7.60531687609557 2.81449364973124 -1.1635753613477509 0.5274607850965367 -0.5089393292535817
Ni 1.173071886576697 7.683448582238916 9.17977623867547 -0.29463530965724094 0.4440287446231256 0.3685241865269072
Ni 1.993818697130971 6.079910700938243 10.983276380856205 0.8412685539171705 1.9975741210763855 -1.5136665379804513
Ni 8.882232718767987 5.493273419509631 10.23112535744646 2.878534080045907 0.9091109674824408 1.4732020022075014
Ni 1.9636107187741694 6.634497492368895 4.683685780710037 0.06959179215620917 -1.128183097891386 0.8208084862906058
Ni 4.577655684552081 4.780626766942156 9.77135145130239 -0.9597028214973794 -1.111515407427718 -1.852903545507467
Ni 0.7097290353837006 0.9607684827241518 9.791779377867918 0.7103855190506475 -0.6951944131325059 2.236171466002452
Ni 0.45856429725165054 1.9768215272412792 13.049220196180347 0.9441430193859095 -0.44947665511157425 1.0594400268887172
Ni 1.7672911034086785 8.904084906832134 12.223517029311354 1.1688427803942774 1.097328831514691 -0.5310307618359823
P 1.013648566825415 3.3080361879786526 1.9839769211997202 0.5885918480799024 0.04775078502171776 -0.9197417077234096
Ni 0.2241535174726592 4.8185825067500305 5.127037380596458 -0.978531009947476 0.36152872904568056 0.35185058252596824
P 3.2976904851135447 7.2512322014558395 12.63964459844383 0.7239511735502242 -0.08325720545844371 -1.07434548324564
Ni 2.0882013559493404 7.798550284462118 6.918469992783423 -0.798758962689734 3.1291482469271914 0.15565201428108677
P 7.830969276788312 6.301924141139697 11.926892922712808 0.15802797071243108 1.154943910924998 1.1446736393472416
P 4.8215673756087085 4.373533032386281 0.4686879774639986 0.5548546037284574 -0.4373011960913049 -0.024017703070836054
P 3.36235343116002 0.2321785769257272 5.881183844113579 -2.137427734872635 -0.20476188443386026 -1.7819534395511505
Ni 1.4950415833110255 8.942722375947236 4.5122971903610685 1.0835585172034758 1.479633102544826 2.0497793423250315
Ni 8.083430221859917 1.5697738554764342 11.501326166442675 -0.811565370425783 0.017572461666124577 -0.16070706020649095
Ni 7.382842807983827 0.6189816520333378 9.5503302036197 0.7045748259061414 0.08881001695587286 0.2014240783098789
Ni 7.930225378897546 7.30917919257029 9.256443148064097 0.5750588465904741 1.2043420017421518 -1.0848576956308735
Ni 5.85036138812445 0.7174408678577715 1.7589104392088666 0.4344832670265356 0.5834344722486791 -0.4154136519895943
Ni 3.4114932166297303 6.738120347067677 8.899264896378861 0.44622498094349594 0.517543783093141 0.21069213387536617
Ni 2.015026006120711 3.919307850049561 4.0109663554064765 0.27654914157949145 0.16507202204340604 -0.4599184192701886
Ni 0.23533940564613545 6.520298620849861 7.034495714594667 -0.6620644633477565 -0.6223044098409992 -0.05176967637312374
Ni 2.503614030565047 3.2740510607574747 13.460534203650294 -0.29262624964701217 -0.6635755006756443 0.6801855984284996
Ni 7.32854398991887 2.5038904073112214 13.470161326975349 -0.8849348844568696 0.863305479112552 -0.7353745848958173
Ni 6.362644112274091 8.213677369773446 11.317181868001963 2.0072486680516723 -0.14664518279678615 2.312233439264037
Ni 0.2071821427459437 7.387071372200286 13.269486014090159 0.5030643585300434 -0.11476684603095073 -1.9982834884385843
Ni 6.644253591508832 5.5351537091131755 10.323717094949624 -0.9390190678957827 0.889800697189603 -0.3150928061806444
Ni 6.168093308084113 4.258716919467459 12.151689476748231 0.5888281324604246 -1.6638644711255022 0.746290974698005
Ni 1.7924598124269102 3.7731321889982117 11.006265398602945 -0.6173738053086012 0.2348795297548471 0.028954992471453358
Ni 5.888243427466679 7.740778331953579 3.1817439913028713 0.6015671772936478 -0.42911480362577065 -0.15808659186450838
Ni 7.781903191784247 4.886819925380355 8.481006462533385 -0.6722961683780938 0.3506115679125446 -3.191693673759581
Ni 5.981069163948269 4.108100805360917 4.14013839777739 0.5178183769107663 0.9922717565723361 -0.1727328810227735
Ni 7.83344745494567 3.5669090735614915 6.551691334191927 1.4220781869484929 0.3246279993645893 0.4281426695204884
Ni 7.204340280188343 8.206878501817569 0.3288155487370547 0.22028440554949158 1.462763323372681 -0.8071741833366227
Ni 3.803773157590686 1.7546883237831508 2.5992698649274577 -0.4494694560227227 1.7676907589845492 -0.30564374495260266
Ni 4.528469836291341 7.770507257283679 4.935032006238742 -2.469874973171327 -0.17851580625313773 0.40130395206108954
Ni 5.808149446425498 8.176532335087682 9.225201520676604 -1.8341910566996282 -1.2007889942835708 -0.41399620281677735
Ni 3.387052299709756 4.299123199758076 2.0192094288019624 1.049554135233573 -1.6069263631775614 0.5133384867625418
Ni 1.8965156573613644 2.980004627944911 8.825253967520965 -2.604631374950327 1.7195599649155933 -0.4004542024662845
P 0.7588559232719229 4.29576061601296 7.299203834545055 -1.7147275765239567 -2.1624522819414302 -3.2898905312469924
Ni 5.881158970206423 6.207412506506446 13.173132789071571 -0.36860157673206195 1.5709355469052493 0.9523651501853857
P 6.178429798391016 0.8374712887210742 12.71459981451782 -0.46284510599868034 -0.7934074685698336 0.0713339716582965
Ni 8.295475674082699 4.559396394188195 2.593930266191379 0.44397038058136445 -1.4131664862811597 0.6556325916794837
P 9.140165923413834 9.148844153243694 1.2838501352339198 -0.4752213681758461 -0.16338255015612507 0.21115004734839118
P 5.673996173832711 6.923265129329539 7.487865050274069 -0.6472356258650402 0.5998327111010444 0.4159774949128643
P 7.477133341220139 6.249412559366665 3.5844156979199635 -0.7050221978562052 -0.35403679154400963 0.18730717929252258
Ni 6.430245864388215 8.6724074930728 5.443791848130486 2.4144838979955323 0.18103703001309465 1.0258267097096463
