# total energy = -340892.49569126783 ev
CRYSTAL
PRIMVEC
9.09745701727798 0.00000000000000 0.00000000000000
0.00000000000000 9.09745701727798 0.00000000000000
0.00000000000000 0.00000000000000 13.31504792983760
PRIMCOORD
 96 1
Ni 6.4237142967585505 1.704635981242223 11.413485621986238 0.30095251012452046 0.9711804831196758 -0.13897018275003165
Ni 4.654513664101379 0.6198361192601907 5.960840239880025 -0.6547563597221175 -0.4980959587811744 0.38081868762354415
Ni 2.5831319040102296 1.6380153045743813 4.727587166927967 0.1114300683482339 -0.6847914726316271 0.829271015235662
Ni 3.6944772353967537 4.653303702337509 5.356657204912432 0.051089876697279754 -0.9936259566073855 -0.18515028085051985
Ni 5.020003993902081 4.525584505322648 2.5954889796783887 1.107650525155673 1.4119107594971876 -0.2666624785933988
Ni 7.197052715552287 6.202354976168367 2.896089878853838 0.5467872533392906 -0.3846131216689699 -0.17970108481049052
Ni 4.8540026983731845 4.416651556746827 11.496691872275976 1.2080580171411581 0.24144509878750678 -0.31634339075829393
Ni 5.580098023634749 7.760449122129203 12.218260302998429 0.4334391420327374 0.6543269854941828 0.5064445878561858
Ni 1.7477852191823529 6.438816075164753 0.29318647182541685 0.243724895960619 -0.2300900787860037 -0.15290196233977538
Ni 2.8516615384776167 1.541636846480825 0.26456314327154146 -0.24824900908321762 -0.4153100365321944 0.5617004230056971
Ni 0.824629880633596 0.04174004187078022 4.406348686840187 -1.4378742734404848 -0.3566516034590374 0.46346088520580825
Ni 8.745967527530077 2.3231356840880335 1.3636341858474343 -0.4766161916408436 1.102724034388333 -0.09062058780205037
Ni 6.763658967664905 0.6347577680203429 4.737294153409544 0.5917306508192002 0.6824669382635085 -0.6457644406361525
Ni 0.7297424957212304 7.443211703573379 2.423831795212664 -0.003536295288032619 -0.3892295373950587 0.37673680424468664
Ni 7.559704638809172 3.682504982154246 3.9623718673745305 0.21521496144638416 1.1212966551841979 -0.8384110298637173
Ni 7.590508627775075 3.7783466902924014 12.77596170157397 0.5633109620259267 0.3198102662609718 -0.30966572162780215
Ni 7.888741458926951 9.009238831925908 6.635327511802612 0.21352368978689032 -0.8011755425510267 0.1712490973883954
Ni 6.819016992726194 0.6928768712420422 0.36981435105158494 0.957654423608783 -1.0785860036895487 -0.1494893371138006
Ni 1.8076373879380172 6.389416884354104 9.321305255996137 0.13688964607191909 0.46541415227743715 -0.30059512678510164
Ni 8.971666335047827 4.844204737322896 1.687482726311564 -0.09805133304848275 -0.08024232989151987 -0.49914291198845
Ni 6.500405858182817 2.071463637202991 7.008135835910511 -0.3791814091304373 -0.3657818478950797 -0.16885745722776727
Ni 3.475283109541916 3.9239696824297954 0.18016421638598923 -0.41766490991761623 0.9477361360538066 0.8089775550939488
Ni 6.140892557546499 5.669753461100483 5.143695746760058 -0.6631484404405547 0.16751662692915667 -1.0132624998913904
Ni 5.547893026310678 2.922376070737501 9.291999618176922 -0.6824216868478699 0.13110312129712903 0.5367972320061143
P 9.233645800567945 5.493244602885344 12.34953387641287 0.9714015979915464 -0.2741711282656182 0.7224769029975429
P 4.017127640790945 5.937728150698727 12.758678353010053 -0.03465101441496613 1.194811436543897 0.40677397403672527
P 2.3351989118992527 8.504357267944588 1.3069424736088269 1.7040592981768328 -0.561932079400529 0.7342217022382969
P 6.316300623480222 7.7390882933956116 5.639601759792245 0.5044985198734085 0.8078917782289377 1.1060836948891855
P 4.854994321172145 1.0088988695598733 12.77650754898624 -0.8713679444057123 -1.5018700595661554 -1.2950091265114212
P 3.9754430934070792 6.204411001421259 8.151259493893845 -0.44772521963810635 0.4484764959818341 0.2855983962659533
P 4.422901509617346 1.188064185181404 3.6281103777756187 1.822721879717764 -0.8311893153042976 0.9018347455360017
P 0.24367265305819114 5.657954059538529 3.749850726134723 0.13609671785697852 -0.44736809340900374 -0.522946442165951
Ni 1.422705792803549 1.1719161992350133 2.341863708803098 0.9165499402589892 0.3140396823257817 0.887789323186529
Ni 2.0070172527273678 6.6809812796193855 4.7780653161235405 -0.8423779849312654 -0.8939707694068926 -0.3163742439962293
Ni 5.876847969316616 5.693734357412982 9.450488233821577 0.48839055856795244 0.27951696595856373 0.1755379545717364
Ni 8.630657261687542 1.9856564239937757 10.260961561817888 0.1434179341087401 0.9493795851945004 -0.1968778537000932
Ni 2.233289200028003 5.351733661253735 7.068612999953227 0.04224913847719821 0.1701761760391908 0.0362605249939311
Ni 0.5985908282288633 9.0912615030767 9.129316165168955 1.017582467422983 0.6462609206565966 0.3930813070409811
Ni 1.6030901676458216 1.154631031179722 11.43236648397674 -1.4077237179990338 -0.6054526283909831 0.9491029344943461
Ni 4.171438704240341 6.91954389115302 1.6600002188493377 -0.34844644194042573 -0.013563854727363737 -0.3548022089551245
Ni 5.366817244746195 7.964022914536179 7.995872201296585 0.36693138811849063 0.14953664541196826 -0.09593145849200252
Ni 5.323140354307535 2.8317744977571606 4.825732351145912 -0.2766388730798203 0.2648305675909826 0.3183125986695228
Ni 0.7887131209060746 7.671703430350589 7.16763699850493 0.4009118588289934 -0.03042437792812825 -0.2457408979493832
Ni 5.256137584451103 4.553977668217683 7.3962961184885705 0.4436690472908617 0.4343112602250456 -0.8265852408733829
Ni 8.412372881519826 7.259288418008207 9.5293795603173 -0.24633662255185315 -0.7928816779733506 -0.7325252883724804
Ni 4.6317154371821365 0.1441919621715536 10.477331837059904 0.4584811726030298 0.2663691157226961 -0.6408646893416899
Ni 8.62853755423655 7.156923833293398 5.068479792840301 -1.3347884632918883 -0.008239357190656778 0.09754713971855458
Ni 7.433313670497507 6.623221525944098 7.3476829479515935 -0.7138446812438416 -0.31442946156503265 -0.7672513789997559
Ni 2.297016885410801 5.298759169892702 2.354659281892449 0.32456834977124743 -0.23960496025497444 1.1764036234606707
Ni 2.2692514470398804 5.026808891641743 11.44236640856957 -0.07396292464071132 0.9215196255594387 0.07446094732305242
Ni 0.9951980995118371 3.424310058692549 3.777053031925316 -0.07844615722304554 0.50702077207463 -0.570815755043404
Ni 3.539911443154964 2.9549995510776452 3.025671325290235 -1.5916249569338008 0.48280303717784595 -0.9747365759020504
Ni 0.8883475588138355 3.455568920502013 7.9788954370292275 0.4524485932557047 -0.8503903137127806 0.7948511429948957
Ni 3.726382016644073 2.7978955683687894 7.345805232853377 -0.7354308920550495 0.6390947419254607 -1.1695050965686247
Ni 4.0809372032855835 7.255603947975369 5.7637511147308444 1.1964857389225267 -0.3880941382390348 1.0154083425897997
Ni 0.7848867305460454 7.501053334360507 11.353794478217194 1.1287597963304625 -0.2498019553926343 0.856919630190866
P 0.1531129283794582 5.755460602284115 8.016390605523902 0.5330290232129337 -0.976817369690479 0.818439728948113
P 8.576272664511471 1.4219416064263677 7.8751453096329325 1.657771985074519 2.0462808422534695 0.7031190672962213
P 1.7629142899591683 3.152851043112633 10.433844173724165 -0.8104173728642688 0.644850156351999 -0.5887723395218246
P 3.9981685406713514 6.095095959656848 3.8649053534391777 0.05692525243213422 0.6328657302966133 -1.6941050151775985
P 6.9354553432207595 3.9463949136173184 10.623650784647944 0.1590849512220357 0.13966849436863688 -0.5187784268311904
P 6.389580638577786 7.794682852335551 10.02986614288414 -0.3571460265969527 -0.0527117285714189 0.8216870322408172
P 2.389820042953973 8.59806107371801 5.856410532455452 -0.5318576286126517 0.9627333807935871 0.47437624656673144
P 6.8947533211789835 3.8282644361447087 1.7294383779101916 0.8465650264294194 1.4852429925324355 -0.37165938972177925
Ni 5.556308173916545 2.750852618887783 0.4236658372550017 -0.8782412744867777 1.1613953229772964 0.18286431302982056
Ni 1.828443271802465 1.3082324929931641 7.203001542600369 -0.8831646799303242 -0.4545795235557784 -1.0048493361270308
Ni 6.922091179076957 0.6604771883409293 8.988828687435356 -0.7557341223887759 -0.7579262449440882 1.0530816887708574
Ni 2.855891855922727 1.6368235377242533 9.496372167297192 0.38771901428780325 -0.8758426923476142 -2.5891641325526633
Ni 6.483439101118019 1.8541526849204932 2.6044363285112193 -0.626708966666598 0.3878048891333902 0.2819831681108692
Ni 3.8665192422881303 6.774503136255382 10.574518149323621 0.5391652180176586 -0.2317551251932525 -0.4079086018618007
Ni 8.31035400016612 7.104404214775926 0.3147674590152917 0.2615246431462012 0.6883218543823887 0.7320810017462102
Ni 7.562415680956791 3.927035525395392 8.240163481422018 0.24842718653229473 0.48456141462984936 0.027900325954693883
Ni 3.196600713206263 8.11074669895499 12.53879373017869 -0.2713354585890359 0.8054579719764644 0.6277870302221252
Ni 9.150586019333836 4.572472798036844 10.055963107664882 -0.43147147678340525 0.6764299880408092 1.0291717149224793
Ni 8.817519025822113 2.4350525985176095 5.813443243652746 -0.2446543497534238 -1.9645405876601845 0.03657008581454992
Ni 3.6627362083731154 2.420114574335089 11.449982799462143 1.2242281991431176 0.42660155028561375 0.9802631621472343
Ni 1.1309230585733594 3.3595088733989487 12.682103239033738 -1.0606013941866703 -0.19001018004598247 0.5629445798254434
Ni 3.018427020383694 8.525854558531249 8.17701075531348 0.17015869253769403 -0.4854348183737382 0.09852595869205613
Ni 5.548784577084057 7.982508946898471 3.5620819455500925 -0.645959587366094 -0.33468101272521716 0.4099477437790165
Ni 3.067635164600047 8.555530462845123 3.5352116969352982 0.1375841010357824 -0.38233640981965117 -0.699335431884073
Ni 3.3955984848070226 4.350458460551933 9.258112501077369 0.1104147397098421 -0.12582207540384782 0.37757704075779486
Ni 7.43311352644634 6.331666228135688 11.547727695577754 -0.7136821875240483 -1.7733281597759847 -0.8713520035661123
Ni 0.6714096022630576 9.174421356336394 0.25063402705603793 -1.189166579553294 -0.5245451541116386 -0.7132042194463653
Ni 4.682442856695982 0.4071239314260878 1.6480570774688186 -0.375463851069534 -1.006191709087538 -0.5645083247681375
Ni 6.194058095501827 5.896853276976398 0.37549116413921746 -0.6649266153869 -1.0207392678844096 0.5899717591465646
Ni 7.930744417301309 8.715108953822947 11.571402007593695 -0.2988521759520659 1.358913638474866 -0.20265537961381871
Ni -0.0460586046475417 4.686281983495631 6.115934594366032 -0.2177472409499347 1.9953868836170796 -1.4571899430499613
Ni 8.129805871100166 9.1706913990192 2.341810943553245 0.17577706716573596 -1.0685275910122825 0.2531140504850028
P 8.553419852851002 1.7543899728708483 3.6435160112413185 0.11296475982520544 -1.1344540185017624 0.4112291815946015
P 1.827069555814913 3.2757212956151416 1.6041300069662003 -0.06210756796402207 -0.19386169258158872 -0.7757123652829158
P 4.74685285134412 1.2037118109998783 8.242613426557433 0.3088789640604487 -1.9605600057458819 -0.0208120516493448
P 8.626981889111574 1.6819014365210792 12.576222487238205 -0.5790846799204156 -0.6607609140449845 -1.1030914450300808
P 6.447067468546937 7.83163672214639 1.5705767665338184 0.05080268447416412 -0.179556074592194 -0.9374805197640693
P 1.8721110647842538 3.3292325369315754 5.8011398429801275 0.28866803633021254 0.7265189342774003 2.1174430642205917
P 6.933035419693018 3.931193063185533 6.018574520676073 0.03891416056669427 -0.31764256918569167 0.9274609307445382
P 2.5229795191778157 8.56027023787502 10.413032831385594 -0.8460958001024848 -0.36180152309109304 -0.5995771434468127
