# total energy = -340860.66908023285 ev
CRYSTAL
PRIMVEC
9.33892148490915 0.00000000000000 0.00000000000000

0.00000000000000 9.33892148490915 0.00000000000000

0.00000000000000 0.00000000000000 13.66845558581625

PRIMCOORD
 96 1
Ni 6.693942806488708 6.873315471541993 11.245353046479517 -0.5108612288666428 -0.509548166482174 -0.8484900113662741
Ni 3.206658777321873 6.15729102200274 2.589953757825922 -2.1192389797787503 0.2831327083342801 0.5282341729274516
Ni 5.635618867586303 2.5301846602916362 9.296463017071213 -0.833459599395713 1.0718643686949991 -1.000093309499284
Ni 0.5671835205123484 4.984079670933651 10.569447669768003 -0.26638068568692186 0.5246228014271093 -0.1435670580920947
Ni 7.308341112376695 5.778849906474325 8.79943721035833 -0.7547604456215969 0.5711494842337389 0.597114797949249
Ni 5.803495320285728 3.933507036867725 3.619570785961039 1.6202400495673324 1.9857197928409607 -2.9696935710705628
Ni 6.551561609456251 5.733518781563165 13.187681549649133 -0.039398556402280537 -0.6170138508660212 1.7042480171488714
Ni 7.713146003270624 2.595510416112313 3.900813340516471 1.2059515123211166 -0.43409914421423945 3.656669967168651
Ni 3.796915971158903 5.835509143152531 13.560324128824574 -0.12148025349538434 0.7219135742949051 0.01434752697092368
Ni 5.881578042861379 1.216954859326994 2.944690822829099 -0.10542114314999264 -0.5709772203219328 -0.10478042424220019
Ni 1.8431015284490644 0.7312375526460259 1.928250079023846 -0.6911724364573064 0.19316055274950605 0.9453311261567398
Ni 9.040234763726028 3.966230617767746 5.708412025030169 -0.1293182614825644 -0.15390880633773496 0.26317811958922416
Ni 3.236991594320523 4.269203908737636 9.157209424845668 -0.6218344121831162 -1.3510224086522475 0.5298279997771327
Ni 5.258205033421759 6.277072029030045 1.8700359119176007 1.9133576370284657 -0.6247341023284144 0.10353806719466685
Ni 9.11093973832479 3.0696661379889925 11.848651110284809 0.39863360431777795 0.18054183554423098 -1.080489648470165
Ni 4.926682659457757 2.2985513905818107 4.725895847428517 -0.9909383824728932 -1.9347065350178878 1.9225228484675019
Ni 1.1056535930123665 7.492728778269966 9.0249805693647 2.5755881936404417 -1.5124293231392405 -1.376387112669281
Ni 2.204499112258718 5.482432538390228 7.380651447579542 -0.7369537564574792 0.29189991300394885 0.30229591152629226
Ni 5.957055206341394 0.49481061453552033 7.183416227392845 -0.5889291768146632 2.1547256027211343 2.0672656720352527
Ni 3.61955117422591 1.539521207582342 0.6231301974808868 1.0792948568311154 0.10447420585569103 -0.18024101647436055
Ni 6.684482479019609 4.043061924863773 7.221946749675183 -0.43308767223058964 -0.7022975998361904 -0.7643331769116966
Ni 4.162189207386796 6.565075028851894 4.983204613990064 2.01599736077858 0.7538435902342824 0.42630407364985284
Ni 1.9863512451800653 6.209355509307996 5.244559001340962 -1.0728470443232425 -0.8691313417657097 -1.3981121630511986
Ni 0.45813666984534224 0.2865339874715143 8.351563081338053 -0.8526690824446282 0.08894062899646618 3.201762627959808
P 7.599425956290156 3.5917958995584263 9.158494460442656 -0.13313172169138365 -0.24983306574088587 0.40730387839826626
P 8.173078547718442 4.991373368617133 3.9865829293703197 -0.17360139967065585 -0.11364198839788814 -1.0526759686920064
P 3.648184307513429 1.6492068404792457 2.6994516784008824 1.0813591955593118 0.30956879103862167 2.0037751076807746
P 1.7805494323108384 7.784906275997725 3.624027319295939 0.6716078840618176 0.733032309915886 -0.2082668122633252
P 1.7365817899371796 5.501175753820119 0.9917458337099546 0.3381903114300563 1.616396507451526 2.719672814798903
P 7.6807212678582735 8.644320526090324 3.6468124199465874 1.2394149341858849 1.1925223833994043 -0.5014090823148074
P 4.001139506296365 2.6905059255058683 10.944182167357143 0.8566738327286472 1.0621941925950869 -0.07048010829843344
P 3.1544915618802296 6.569408288423129 8.989893307435628 0.6052991335322543 -0.8125855841601812 0.10050905056035593
Ni 8.447792262260402 2.30484582366589 7.509121387160893 -1.4602135603676334 -0.08291293474514753 0.3816229286923944
Ni 3.9648391184657763 9.002580232279428 4.123978076219408 -1.6863814212810957 0.3183881891024645 -0.7744142152967824
Ni 7.819768469918896 7.082124417130913 1.9043573822845152 -0.29974434874903216 0.8456054907296275 -0.14387687602302965
Ni 2.6431575935529263 8.286200903723566 6.593047900390088 -0.8397377190949408 -2.860326555898945 -0.41016165956203554
Ni 8.558131619661587 4.977066140894863 1.2519319219824876 0.17867984263482775 -0.3247359856973633 -1.135266744211045
Ni 4.525081018634807 8.8878235650136 1.6585579025669146 -0.49376930638136257 -0.07090279765814886 0.7940147631365293
Ni 3.0964595037430342 1.1091650274925058 12.17613346681235 1.2311748056642797 0.3681886575643594 -2.4946048718178395
Ni 5.32893802478499 0.008706676504877265 12.248576414700352 -1.6161756496899715 -0.6488330522591471 3.1764372618211425
Ni 9.313416895143673 4.771301683711595 8.385666020942107 0.8664072579663271 -0.6518517844808129 -1.7351084541731538
Ni 6.0543947850288715 8.81877157951852 5.0780226838753135 0.1883711017806627 0.3095646772735636 0.18307282949620082
Ni 4.264590481521709 3.524527648067886 12.952037213159468 0.5479334511285918 -0.2131166841564588 -0.23904574531739478
Ni 1.3171708258333095 8.023179518886751 1.1034075823940859 -0.2824927607574361 -1.578160861009095 0.24328883686446492
Ni 5.592146188051601 7.663192112222046 9.149021992375621 1.8527647059367576 -0.3363118634604208 0.6202148743018222
Ni 7.0631570675852675 4.3177663004842435 11.160239049914248 0.16829464274576178 1.120189023942316 -0.3008848901113786
Ni 7.265241989701581 2.98015257550991 13.303029370645262 -1.117854205161552 1.0298520288189554 -0.4491958906463619
Ni 4.846237189745205 0.46512685258040676 10.218509678026852 0.4819010941888669 0.8639608533083636 -0.7766582741359528
Ni 1.9208013552436356 1.9127978995269352 4.229704006404665 1.6408047610925613 0.9951881588881828 -0.04196374602629547
Ni 3.5568963499512973 4.169903156537314 4.160787435271187 -1.0911252738071402 0.3111944995675028 0.04788345394484011
Ni 7.455513176133383 8.1814835770592 7.569481638425478 0.7999699522786997 -2.017344104614461 1.2318106394760655
Ni 8.52698631649333 8.058443286431979 -0.0676287338600442 0.9287955903955617 -1.2588249632813802 -0.05773643547951992
Ni 1.51796697678404 2.1730082689953414 13.144913024794755 -0.1959103475805013 1.6713435531113665 1.5930187519575336
Ni 7.543243004607927 3.027874464322441 1.9091547862537905 -0.47545893810794887 0.38042016663354483 -2.314430961135989
Ni 2.8247996165282165 1.6488239446981665 9.466580810928175 -0.7095920766150747 -0.5779639360524111 0.3374693741036317
Ni 9.410177460698788 0.7512891509766296 10.701225455341017 0.11670494359392804 0.0734186221014671 0.381384330319027
P 3.802622052189129 7.287739451570346 11.308473882936466 0.7077923044021746 -0.9295630646892055 0.49814738084440013
P 5.167094515367931 7.918574259280261 6.898496939446906 -1.0453622086394125 -2.2748681112417017 -0.2218952016800372
P 1.0035044697576765 0.5904047487965675 6.5247598386728685 5.9583138038423 1.2810842889002132 -2.5694463424087624
P 5.398970597036492 4.08011876533503 1.2191102824068243 0.46450398175834196 0.4967006210955445 -0.5726880323654523
P 0.3202446923730004 2.2099810591731908 1.333164662776625 -0.4563134755277496 0.5562226877205775 1.1716920769176142
P 1.1659269923070976 2.9354098026526034 9.71885963437535 -1.3153174990514702 0.7635574750879366 0.46478474622355437
P 4.2062969335828 1.5561164710695958 7.85844654716077 -0.23741772279566856 1.0067452675981632 -0.5414570993756288
P 9.503193118736519 6.8196913843479505 7.141289286444813 -0.48732766452107684 -0.9854151386618191 0.8213623019115468
Ni 1.6183510438771709 7.0180967713973095 11.835050838919312 -1.3544499462765576 -0.6766192212334798 0.33050914073571463
Ni 4.920042686278558 5.451249879536012 10.346173668683637 -0.041306572058270805 0.5704270042454176 1.217417089758555
Ni 3.707271663778964 8.680789014507729 8.619068082382089 -1.66195259881477 0.8498794355146332 -1.1708744661123256
Ni 0.08615715409567276 7.63482046873624 5.1992755049294 -0.4194060609784389 0.6683310130827587 -1.4284357537354044
Ni 2.8917036500806574 3.778583668274559 1.2888645547979314 0.9213756437824069 -0.6659730543735434 0.6544524553284534
Ni 8.795527003930578 1.1254614454920884 13.248683384820064 0.8115010928467509 -0.45024747183932784 -0.6013517188487322
Ni 0.9866663943116893 3.9078156638494717 3.022942579883714 -0.6367943759270581 -0.8405689567469846 0.08639446553584476
Ni 6.949446359526289 1.9845114776465882 11.085814382886124 0.6665759780648649 -1.4884023640970236 0.30654388816936884
Ni 0.06795279443573791 0.7769889290242236 3.7528792207662196 -0.28705929708219596 -1.1210143480570884 0.7373003411636206
Ni 1.0155330006364516 5.02839285340243 12.904211662318401 -2.216119689557899 -1.5934208724919592 -0.4419847176099033
Ni 7.398732533475812 8.902345587930133 11.903297809381975 1.7420121232715224 1.096063334538706 -1.330686782418689
Ni 8.542657026753101 0.30602991997347917 6.231681135021351 -4.367825531616104 -1.0623222335325189 -2.172864735524006
Ni 2.3695365328252644 8.80624808580079 10.659713949319158 -0.02414960066301002 1.0344720440894701 -1.129438824675358
Ni 3.13390857891686 8.386183397192639 13.239238933517496 1.0340079599688579 -0.4552192140223063 0.2741981248488116
Ni 6.6888811110412725 6.904983754313673 3.9332212658701393 -1.1427879922887545 -2.9756690719277077 -0.03900517761860379
Ni 3.9029500857533215 3.770215994619759 6.810663448943827 -0.09137057859419748 -0.7971473952282401 -0.6460472619838937
Ni 7.577675608140569 6.02795629829144 5.962495128109162 0.1404043440933969 -0.08159087349961433 1.0608361359052956
Ni 0.5153861263616981 6.179386910247446 2.6985635469672093 0.3788793045089862 1.1636419529196282 1.1666809968562681
Ni 2.723603063265479 4.937095556918809 11.52607542310797 2.325951817291394 -0.8614437433134647 -1.0084115995569924
Ni 3.0024259032629215 0.9971540031446585 6.1274727795781745 1.6669703637443354 2.615858611124714 -0.3910982151726813
Ni 7.953735298689103 0.5949453324248751 1.9437087957657997 -0.14036063533965504 -0.5041506496156866 -1.4513139438851586
Ni 1.3726160027178491 2.6625732113300793 7.537018613435021 1.4937464020177564 0.6615597557971962 -0.5863105082448934
Ni 5.056008044247568 5.65039304138306 8.027306388293063 -0.977776905390271 0.3829791856099727 -1.7300312967605624
Ni 8.512632394163612 7.582204985063089 9.839442854758623 -1.5089722178285754 0.22104416653365158 1.4096350760891334
P 5.485850583655469 4.863915768125268 5.466889771354865 -0.5954497515420003 0.3928797325531363 1.2176261204455674
P 6.775733080895781 0.8755920637892624 13.726956637181566 -1.2972884094639012 0.1487051506496084 0.29785201682232576
P 5.27525790406201 7.6311035779833265 0.18024585421257502 0.37671315009560286 -1.1367577269342746 -1.0455118468433995
P 8.613716880368472 6.082037992638479 11.993605180187686 -0.8633666713677904 0.4810616290067069 0.2060726328254838
P 1.1223889403219665 -0.31619533601505256 12.552904783178402 -0.8523842042143579 0.8795301685015304 0.47849129717636957
P 7.148963078232926 -0.02466409165438256 9.74362645416612 -0.09014261972436734 0.20728619351761077 -0.3726011848097583
P 6.929974708220197 1.4597388012955603 5.616245274955854 -0.5214284628595278 2.510354421342612 -1.3917355701008935
P 1.7754503811774447 3.9113551150940804 5.3477559515868 0.7839118703745726 -0.13779313172279495 0.5314426525624202
