# total energy = -340892.72893759026 ev
CRYSTAL
PRIMVEC
9.05321188400703 0.00000000000000 0.00000000000000
0.00000000000000 9.05321188400703 0.00000000000000
0.00000000000000 0.00000000000000 13.25029070492841
PRIMCOORD
 96 1
Ni 6.627711533481462 1.8696421486605241 11.449721942855147 -1.0297394145004912 -0.40235990412942957 -0.5008074441750664
Ni 4.579567207057657 0.2533043405552431 6.0229723733209415 -0.5628759313710371 -0.6608956398506359 -0.36539181154551265
Ni 2.5671196949017734 1.508518581748746 4.7617440835050235 0.66039993116114 0.07385493830793732 0.39284090889540085
Ni 3.1935204750214266 4.0071959951730936 4.574411402917261 0.44885290548464635 1.0488128861921744 0.24389561721052833
Ni 5.009775833487192 4.810713811645176 2.5169196352731587 0.28234106567092015 -0.5250987126222635 0.1136432739494688
Ni 7.132735902520712 6.1143944224007685 2.78042785088835 0.13511481355968344 0.0454128809171605 -0.6413367438821019
Ni 5.14739370660073 4.810940141941066 11.465781435330387 0.23883260086532415 0.19260108070161025 0.12603624829718293
Ni 5.671203490198929 8.045697996873825 12.131780964019121 0.21786114081997962 -0.5454549076811122 0.7581373325136298
Ni 1.9250568583064664 6.8013883493363485 0.3298365721289954 -0.03939007176184829 -0.8502324479786776 1.0711244052051812
Ni 2.8282414838770906 1.569654921274812 0.23859287132233076 -0.6222658432935799 -0.4278115114333148 0.9852181921596646
Ni 0.5343794084163068 0.010669210148299791 4.6640363894477135 -0.052787576114676826 0.11603414277914854 0.30279650531179464
Ni 8.552677859669572 2.491815078852934 1.2471098059582397 0.4781082028053379 -0.13997137032103635 0.8124945671082717
Ni 6.9281604746707925 0.7210629737154545 5.011498659699513 -0.5306008733874152 -0.6985170497478357 -2.370020782586151
Ni 0.8449779053945707 7.458017803775198 2.760021911410821 0.1798808049214644 -0.5231518733085377 -0.16069497602163293
Ni 7.413620852933227 3.7468708888393136 3.922934131334074 0.9243486103678017 -0.1709379939058798 0.30746768553521886
Ni 7.472539155559561 3.8675411493965366 12.480660967244381 1.1389789029553095 0.41833056852607303 0.5970114396021653
Ni 7.842227060867853 8.740685909860273 6.927768470598308 0.37181931233841126 0.050336029250390726 0.5425904416491235
Ni 6.782114061338274 0.7659822948803412 0.3093726920957185 -0.5308237880314988 -0.570079905318644 1.4071200229767638
Ni 1.9560460024198565 6.232249134077108 9.396880810131012 0.743057555362372 0.7968676592042921 -0.8304670924262924
Ni -0.08156762799673437 5.0842747136826585 1.3887626955869223 0.1100601845839008 -0.6074480615544571 0.06944601060696427
Ni 6.213708156237721 1.8054277171103412 6.88980654272911 1.2835654034508541 0.31849591832492247 1.4707483984606864
Ni 3.498025255113122 4.57478711120844 0.4581142465917058 -0.20625286715708996 -0.48471876614332005 0.36703937445126467
Ni 5.886497920862244 5.47714789450202 4.863307540483133 -0.11535408599298842 0.6830773181539977 0.01335199582687378
Ni 5.472150521568748 2.758033826091715 8.969559252955865 -0.44355129076607486 0.46750728736104 0.6777440788665424
P 0.06631025009013307 5.54195078482152 12.572736658218743 0.6209011017355693 0.597604593101474 0.0001830625450835557
P 4.04904899348925 6.384985870956163 12.665741208727436 -0.06498771772529453 0.6727453401003703 -0.7232135240532512
P 2.1695297907160445 8.66794335276092 1.4438705013516362 2.3508156704126097 -0.3026746350219497 0.46662617030766734
P 6.193682451657289 7.512816895016316 5.943059672447761 0.3184756066099483 0.5514378647374245 -0.8098746129869212
P 4.761536764953988 1.148399921350724 12.634245084751251 0.8973607689250481 -0.22390143347678856 -0.3812634884704466
P 3.84439208673281 6.112140172653695 8.257037984607333 1.3295799225077551 0.35200253472280024 -0.0564871364534511
P 4.681949979706891 1.0993224599897287 3.9815002640200015 0.2762015284320856 -0.03937181692940316 -0.822142631720997
P 9.024169132069618 5.456578997211451 3.625160414242175 1.4659576619402626 0.24995416469978246 0.536095063732767
Ni 1.4198876378778469 1.2827767446271041 2.679022825117365 -0.022165737463761825 -0.32014039590688087 -1.2788145190294298
Ni 1.7767199823795323 6.434932440653379 4.905363330744407 0.028928767219208246 -0.31508046488547026 -1.1277884335561286
Ni 6.1128010571176965 5.868789838511736 9.317339290943094 -0.8036306889597385 -0.6182320395438385 -0.06356949722152924
Ni 8.70758736738918 2.241711048681589 10.187578373322646 0.13929517018961818 1.258949918895019 0.5056539736340904
Ni 2.736025468119278 4.703243133944312 6.951526814418575 -1.3446093060370519 2.07253900461905 0.5300216038451775
Ni 0.5160892045447666 8.904367979848615 8.797835214893924 0.6745939632733349 1.375059137886477 0.36429215072343063
Ni 1.277516828550598 0.9922410703977983 11.42024015851239 1.6293402120963876 -0.23634480144646391 -0.07711098335138977
Ni 4.039271524706761 6.877371956272861 1.656922451443264 0.6147106566541413 1.2323117474822003 -0.2182447494116435
Ni 5.458941885500551 7.967423927342896 7.983101374278671 0.39849656451928145 -0.06995148948847307 0.7207118406773201
Ni 5.289004046133784 2.92808030400051 5.055846723197571 0.011563022247251054 0.18780597330581203 -1.1883399698869406
Ni 0.8209081310871591 7.270055019643674 6.95236152054982 -0.6452450777975727 -0.6806082877882149 0.806940470059262
Ni 5.169230053548289 4.682891513737798 7.019434051076514 -0.6401308964994589 -0.07232718880950124 1.2484179090154435
Ni 8.40635079677015 7.084916837604871 9.098126630197315 -1.2534091915824477 -0.047391344799769995 1.4771568730901914
Ni 4.77460960284465 0.4351670705519133 10.322678548224694 -0.5063252886695021 0.08473430422460244 -0.16192910553905016
Ni 8.285182609561966 7.118015380075964 4.866805701536423 -1.1508620275461408 -0.26068543507435754 0.34748073559304676
Ni 7.24162793447977 6.118984400801437 7.22653623034976 0.5900771743761773 -0.15464517028312721 -1.2466489900404787
Ni 2.2140625397355493 5.368364501084991 2.498766134900337 -0.3885091142892664 -1.1588383608833979 0.17541994093663335
Ni 2.5856063534701472 5.042711418145243 11.479694411279397 -0.32974629442776116 0.20830409325916383 0.2576582182122595
Ni 1.0229767245797905 3.3753632879520583 3.7766242695371384 -1.0717376133091479 0.6651469589278222 -0.38983348952764474
Ni 3.95772019249133 2.789394151890366 2.5883250329843897 -1.6033250189795483 -0.8976081090491639 -0.040711104566116985
Ni 1.0781469975061706 3.266869597313768 8.363424087530287 -0.4543830912742562 1.4956173937882244 -0.22169954072946335
Ni 3.6520837609201795 2.6454571369155526 6.821607792650063 0.7744810639789759 -1.3166411029589002 0.6829310223841205
Ni 3.890617786365579 6.764279234022067 5.993318577953308 0.89417748610106 0.45919285395807363 0.12132470175412653
Ni 1.1971243074501297 7.216025451408584 11.508473666383706 -1.4726574425579413 0.31845889443939995 -0.5060044149949737
P 0.3643827231726078 5.472059989450392 8.28907730129366 -0.8534460698199687 -1.3457156517273534 -2.1004704409219954
P 8.479500748402108 1.6931859967720972 8.09896166338762 0.9015691505794409 -0.02926481040238831 -2.0315365940647596
P 1.8539529325493629 3.0947408806827763 10.40991891875764 0.4415838826270589 0.4350792487393216 1.0164139010361783
P 3.863304246257458 6.074026150825657 3.7773530530899078 -0.45256120757416896 0.7913554711368114 1.2543540719942206
P 6.777361125124564 3.7899641771769517 10.404737765624102 0.24545833371195788 1.1286932047585851 -0.20955416361618107
P 6.550505742947139 7.995751427176608 10.079575366765848 -0.6463781629607513 -1.508243052972035 0.41246176845012195
P 2.2586677144497393 8.470194046635072 5.915340548449404 0.5336080356448551 0.5083055523243246 -1.2155468693190354
P 6.931175194212059 3.9886006980626925 1.7438975628694253 -0.04664212533857128 0.8679784591081892 -1.0534249310428891
Ni 5.372972585909331 3.078209715870901 0.43097905475674697 -0.22567678020965648 -0.4059846453662105 -0.4194592828138776
Ni 1.5340757987607532 1.330641075602124 7.0756155677649355 -0.46491947202920575 -1.5232079018119833 -0.7214764867574865
Ni 6.9579727012455495 0.8388878097927368 9.195886832883271 -0.7106107476875761 -0.8180980293379781 -0.2811640146436835
Ni 2.5229490743556937 1.4240430621104048 9.18704908748932 0.9010449026448546 -0.014501021829652447 0.900261744621927
Ni 6.29943301910938 2.0529787415440364 2.4904054937701248 0.9185019217790374 -0.9472406844746267 0.9871686310178159
Ni 4.0688302613501195 6.946773878204865 10.355234803306834 0.2327830522371346 0.5280014880913552 0.192906527757171
Ni 7.871613786486336 7.364670136537931 0.11498574884562619 0.2859115566309979 -0.44066059948184105 0.6618029821562537
Ni 7.592838234431524 3.977682524588913 8.344224941190449 0.7338085259602781 -0.40259721695121625 0.1274092173853096
Ni 3.250474230679427 8.61518123418282 12.24764125312807 -0.44794659162029304 -0.9308804979490485 -0.19748926203184697
Ni 0.2633841866130428 4.948820558197839 10.52905194394517 -0.25874245241537375 -1.7546899758495071 -0.7031936292878986
Ni 8.744108023934144 2.180375538495139 5.72665622333458 -0.9909872334329578 0.4909367220285739 0.19129238919251573
Ni 3.807681312739296 2.8758523249207126 11.620769705992963 -0.2642173594870159 -0.5374819167779646 -0.6013841147485642
Ni 1.120787625252027 3.210042586621466 12.551403669849243 -0.6109740724298446 0.9543209883601758 0.3789739211053215
Ni 3.05834696910351 8.354403467257258 7.969241812279492 -0.7287339396508481 -0.7467113500648753 0.35223110579383854
Ni 5.646669286124349 7.808078345823826 3.7727820864340935 -0.6604063589190433 0.49370862834675616 0.08585427676165859
Ni 3.14996547288017 8.404974708571133 3.5993750562919096 -0.48863815580238434 -0.4970628895309697 0.48624574431080775
Ni 3.635326265812413 4.198245924540569 9.367836295919917 -0.28137124555848314 0.10014343969082107 -0.13629135036628787
Ni 7.425688784310133 6.228989977816279 11.349867732271608 -0.8670582612867648 0.037226488451626204 -0.18772061268085735
Ni 0.39053473620221624 8.997462157154484 0.39630978003216993 0.26185811522622 0.11002110381584923 0.22133984339719945
Ni 4.53792243261372 0.44630071046738135 1.851926823740547 -0.064000928331993 -0.7335457592171948 -1.0240457065498236
Ni 6.103240865419261 5.652273224250608 0.4416781405041044 -0.35382416131257133 0.6256175333746323 -0.24174128987168686
Ni 8.273983786521281 8.815619344223853 11.25193461323959 -0.7123518987483991 -0.8377844520233121 -0.33758687351810246
Ni 0.06414200585549767 4.834641450526767 5.896644760687628 -0.41329403454343017 -0.23898275328994326 0.469270807019366
Ni 7.915259320745948 8.605539563577866 2.557478024296819 -0.5614710806037104 1.1797077481332394 0.14223214133075504
P 8.398492608896815 1.5799303167082615 3.4501772199194063 -0.2109351031241077 0.15085125045833372 0.5491855783681381
P 1.9853512491318177 3.148788555341537 1.4555971266423386 -0.5432453016243031 1.1786430543141508 0.9010341040115772
P 4.459539724540764 1.0043542678338824 8.1934762896305 0.5818349889720431 0.39934579989345415 -0.7052345709773273
P 8.541053535672614 1.516358663198409 12.526811525218914 -0.1921737633562045 1.383017216391289 -0.6937594804581922
P 6.198109472244916 7.894835274844748 1.412387957193204 -0.4837993396528443 -0.6778386954628778 0.42832727472746873
P 1.5942253381967344 3.2041761053519724 6.005746827161272 0.7748520741651493 -0.38410224347082234 -1.0431741998491582
P 6.963314096228576 3.8661469547738485 6.207058572144445 0.5543177573883808 0.09498529252864932 -0.8193164751261116
P 2.213591772720096 8.415159571886226 10.081350701606816 0.8244627952137413 0.6445804476303801 0.6475796394680201
