# total energy = -340878.3620435211 ev
CRYSTAL
PRIMVEC
9.18959997458458 0.00000000000000 0.00000000000000
0.00000000000000 9.18959997458458 0.00000000000000
0.00000000000000 0.00000000000000 13.44990846180110
PRIMCOORD
 96 1
Ni 0.7531501972004325 0.5086075934425837 13.26887241678423 0.3221985639874903 1.4044787286991747 -0.6680553908238689
Ni 1.4399184009055475 4.323642403454296 7.062130294092448 2.4031260497805516 0.4073144199212276 -0.8452319094402927
Ni 6.469634519435323 3.635819233686102 9.752178884947503 -0.9012084248059125 1.623212759042411 -0.581230779729141
Ni 4.972657893044917 1.8253945459230023 2.1259734916621 0.9374864333013403 0.19854932786524515 1.9106466658552061
Ni 9.31494599460016 3.399471915076811 8.470765459179738 -1.283865451189776 -0.4999574374699455 1.1610194276951165
Ni 5.128945417738264 8.360642808305965 1.4839283135596846 -1.4864740367260594 1.628923693384259 -0.1999960876141007
Ni 7.505339181223943 8.796891492509092 10.008910573949855 0.8320349511340445 -0.29294660910090836 1.141105462380009
Ni 2.8789729794249497 3.7247378018599617 9.094787994051213 0.1130516631120569 -1.5582232415449035 -0.445703047001755
Ni 5.697901113412941 1.7950412976098298 11.03041730396619 -0.2769692598360456 -1.274035866693864 0.10749782317336325
Ni 8.716013824206268 1.0900979033162217 4.297191978198527 0.36726280331598044 -1.1160500620732778 0.32241736486651573
Ni 2.0079643261948164 4.3947239583142395 3.7024502653374256 1.971150636777534 1.9085234488646161 0.20743608883191372
Ni 4.124081053055006 7.829612591223011 3.586673253674341 -0.8895695550154034 0.17491883293049876 1.3012831324455914
Ni 6.512917534741119 3.7002015702534914 12.471373210695097 0.9977947432730946 -0.8720968521519368 -0.0337063911135097
Ni 6.494363732638698 6.580681644054269 1.5268602861511105 0.5748827260239261 -2.077357766163932 0.7951085104213403
Ni 3.5406976856117303 3.222801857910373 6.197004822687956 -0.7260833894018786 0.9815304588954323 -1.2546255804880522
Ni 0.5728603566520514 8.870435860129536 2.4411583874069365 -0.9523990887471147 -0.813580858193915 -1.996119133797414
Ni 8.866245402596745 1.061674470972097 7.983569633393738 -0.615807746373062 -0.8390514916611937 -0.18329522991965205
Ni 9.015558021001961 6.371544730608559 7.683918837239752 0.3876074284106034 -0.3263899763610185 0.056863545956263355
Ni 5.584960931224358 8.308059917949327 11.254022323419852 -0.3801579141110937 0.30015598236515406 2.0137900687146155
Ni 2.015490608474104 6.872175751379076 2.9231225739968463 -0.4647654629498447 -0.5327863110745081 -0.027059832331269528
Ni 2.0515873566951583 6.69934694695103 6.241578057813058 0.6108360041900835 0.12389451936383179 -0.48775369631490195
Ni 4.382115827316458 5.733823259236797 9.564054910524773 0.15834087396715957 0.5529339896669768 -1.6343592625775338
Ni 8.996066879714574 6.114603518729567 1.6551994808127137 0.4486305050611951 1.6732952775210992 0.6346788722459522
Ni 0.17106348229636018 3.837576898450167 2.2322677552372756 -0.3202602093141968 -0.28811062116484576 -0.24696191484067792
P 1.134685841801088 2.3321550297952114 10.291210486622123 -0.6944379945824556 0.7630676799357117 -0.7895384725327306
P 7.335009947955806 4.063365366828808 7.423098695262975 0.8625845417861273 1.015446652026903 1.322629459331851
P 2.5221408171480815 5.224811323400697 10.665683004776064 1.9867911715282687 1.203227171411418 1.4673830815328792
P 3.2226180659133212 8.866805968187753 11.926921583027406 0.4890672729200029 0.9647468116791902 1.8482405928141588
P 3.644641249544608 5.3015904301692585 7.292661514955022 -0.5751364939059449 0.37874663558586386 -0.1424550559748385
P 2.7515316086689463 5.677922923333366 1.0379294639129366 0.6717040433200496 0.8359517696899476 1.3711250929393934
P 4.373367328256772 2.8909654072326063 -0.37946614671384754 1.118451729536235 -0.5872921554318724 1.582781904720874
P 3.3365507248859867 8.70591445396825 5.958054090440419 0.07411436261691107 -0.09887125784661682 0.222686587233081
Ni 3.8123882052541607 1.3133132837361319 4.491704562438794 0.024656107985783344 -0.16326170830754463 0.4759613316656642
Ni -0.24639982188806148 2.746633551947505 12.10014278336916 1.0150743562891487 -1.318526235796755 -0.19572779925605
Ni 5.723650372199956 5.820462806647209 11.402132942164346 1.8038466400798159 -0.3258029935092969 0.003296668473400774
Ni 2.6362848369173575 7.834841473539147 0.39728110498811836 -0.4500422978070572 0.9618633194838079 1.2119892338747644
Ni 0.5836305676793109 8.639262286237264 6.382532735152324 -1.3395979688653896 -0.5319465887820323 1.1248532621872047
Ni 8.440233932629425 2.8003927110852764 6.0375432102055155 -0.8413744833674155 -1.066933249941969 0.5267352197844218
Ni 7.9641667122649356 2.3212929227694254 0.7756711495592251 -0.08126048674338908 0.756340131403891 0.16994606230625567
Ni 5.930462316882957 2.312673078107677 5.686957218948468 0.3432193892135315 -0.5463319109694268 1.0494980851846571
Ni 0.5485575408818375 0.234950499431694 10.66900504512278 -0.10924154533734735 0.4246763082384428 0.2297776897519075
Ni 0.6128930104899787 4.541638091157925 10.859711297104097 0.12043535717063776 -0.8845864999785154 -0.9603275995655719
Ni 2.601300030278469 2.259979912552808 11.962550580615963 -1.296743592704025 -2.0543031983373137 -0.36351696312030296
Ni 2.3864839441238446 7.861068591518498 10.342522455319147 -1.153777915641355 -1.7386820304570252 -0.799350573527146
Ni 7.855315902010763 2.027391140283235 10.041957293979827 2.313794870213886 -1.0057350811660937 0.5698130248105026
Ni 4.34657045508656 3.7388530272335716 11.165791137314967 -0.5928393105023467 1.2134632473171294 -1.230079515717572
Ni 3.80193044062189 7.83038451761063 8.08019368104401 -0.2023152226655806 -0.7447172024529819 -1.4515918801368934
Ni 6.1905096135121305 0.5817999993886709 4.0495791291299215 -0.06874975587088805 0.6135089230365564 -0.8303542209975119
Ni 4.362560358830102 5.755694506886009 5.146257704900598 -0.7549049416192612 -0.575046762405616 0.9888308492115874
Ni 8.859840251499476 4.8708095578784345 13.155233825006848 -0.6811117097871947 -1.5121565290938281 0.37113411334592855
Ni 6.593280585452198 4.575823402609635 5.446822866239916 -0.5822702767372487 0.17765345825284243 0.17067702693500927
Ni -0.2619274887590175 6.864842450696693 10.370417485671746 1.4507159052898435 0.387334634365191 -0.6407631307668191
Ni 5.968360226675123 1.1482588807833936 13.296242720985244 -1.2482785552241018 1.008409285564147 0.16835583500100038
Ni 7.79792685093121 6.884223316785849 5.614381435152491 -1.5625648063430508 0.4273777663300059 -0.16805398748986541
Ni 7.478367705656531 7.910756757921562 3.1612398095377503 1.0755991531470832 0.431904707666082 0.6385550673719068
Ni 3.616162679601368 1.015634575710518 0.489459224229699 -1.8462929821694847 -0.9134075379752656 -0.5680914141337055
P 7.268348590624969 4.498704280646527 1.4182658657328264 0.39513767534937755 -0.43104467365863186 -0.32993809872359303
P 3.043494385586236 0.26105815261296056 2.7485698006364503 0.19412008844929793 0.21948659223854455 -2.565003990366692
P 4.766222721955873 3.2730873483038585 4.143768851779239 -0.0729239418532357 0.9655312552536985 -0.9518774119156899
P 4.517689993942021 2.076518741095291 9.185493939396405 -0.5320093236991676 2.5490744636206295 -0.5229317868779316
P 1.1596999325998938 2.450985745489318 0.7276104612900572 0.22407524005049148 1.094022649959593 -0.4559866883159502
P 0.3894763778332962 7.047191680572044 4.593815720161062 1.4848272451512556 0.38961494575893546 -1.1649768696809677
P 5.625496256174223 7.135310753558726 13.155005922930501 -0.35849328465346647 -0.04423068768360124 -0.24532129391346136
P 7.771718112151565 4.965444057160617 11.122078967696055 -0.9662920446791229 0.5020027500347484 0.6049114111755324
Ni 7.8043228124286275 6.894092947027552 12.503734386576065 -0.7736290003913258 0.27443980854597255 -0.12145711356693277
Ni 4.374607924236875 5.102929660555524 2.7656238600429246 0.0835395125855529 0.7847549351011582 0.6258520179829415
Ni 7.720927193766186 5.3548901093144 3.6282470034075507 -0.05714379620084352 0.38839290042637625 -1.5821208740981074
Ni 1.440074624103042 1.9118135429369518 6.142075827488947 0.5606781523887698 -0.34665746836080297 -0.16256211113735874
Ni 5.239836319159716 3.8144099172217354 7.652257908867553 -0.24594144399596354 -0.7624999803576997 0.877443975396463
Ni 7.259103853173243 8.065840445034219 7.695728392010343 0.6165451387597188 1.3768599385406417 -0.5724610039563109
Ni 4.041255189583427 0.16561588750373263 9.82915281123294 0.3497782733779718 0.4932689697061763 0.4649438975092379
Ni 1.6690243148309811 9.116211708187604 4.4580393823387405 1.5372039589807591 -0.8800215063156522 0.29778233992665487
Ni 7.284945007958784 2.829836189013041 3.641939507187941 -0.8362443612297018 1.240261084236264 -0.8989497106787228
Ni 5.618944071479312 8.195184062959711 5.590454474016249 -0.4917360780014176 -0.8366392826752753 0.9951259381916797
Ni 2.0048582414446336 6.033202043235143 8.757276046504474 -0.6693509697068408 0.566169000300012 -0.7585908751112806
Ni 7.154039158058347 5.8951374950495214 9.217262386086881 -0.6035487265000509 -0.1455360088930074 -0.14805723265296436
Ni 3.6448434207413656 6.475295312944531 12.173175290277811 -0.07071459290674273 0.020616390698770946 0.1768322479031277
Ni 7.315252308272694 8.765803076207712 0.6957170360415871 1.838897203926046 -0.35049895359408023 -0.0181023660276656
Ni 6.008592294829851 6.17406941937581 7.20569389882987 -1.605671407724538 -0.45448207874596575 -0.2572550692365698
Ni 1.4700327196225522 1.8794753410556155 2.8664980976250307 1.4961436986053396 -1.120627139920999 -1.2502680748503048
Ni 3.124179072292157 3.3724636811099886 1.8042244647425432 -0.11601408817449052 -0.32701244043636585 -1.1687108828021033
Ni -0.008062035950695238 4.928327263355924 5.511490080402736 0.391491593956358 1.0254834674376145 -0.977681003242355
Ni 2.0268673330916362 1.0933234528644877 8.725856804608398 0.5912573107272076 -0.08415863422679055 -0.5064720986600116
Ni 5.038473807189313 4.8463927910700475 0.40843084648929073 -0.9518295893968898 0.5252136409335729 0.3988320934818292
Ni 4.3070276069207765 1.1767742091260442 7.133522457427408 -0.8984987391842332 -0.8491086187868795 0.2728675789628462
Ni 2.189495681683285 4.238748880015881 13.096956139621547 -0.5257288900070946 -0.059401224776452544 -0.6546640571186274
Ni 1.2529651815040384 6.425028201750751 12.395637123509808 -0.25225221670533976 0.6301961538842501 -0.21084742850630786
Ni 6.267454133078038 0.9536599143045126 8.646085564127826 -0.26145419491958194 0.31041905485405896 -1.2374025317415465
P 7.365546988266031 0.508394394726003 5.996910475497214 0.1703049883075712 -0.07823584098445235 1.0717805507319413
P 5.836002419997973 6.6392561535148085 3.855913825996066 1.5268735235890285 -0.4371986090751696 -0.04682415944239033
P 0.1397857602380149 7.814817335460308 0.32662594756133684 0.5731606011264968 -1.726053028839105 0.713245614207262
P 5.684539435227246 7.750030656499404 9.207403783365 0.2736494514341932 -0.735429863613785 -0.9799404887004929
P 7.73262555437856 0.8331998825565378 12.095085746570268 0.31736926091964696 -0.037213375825503645 -0.8297140163103517
P 7.489193054282906 1.0185476788637957 2.353787347848256 -0.3827765826808634 -1.1905256646843496 0.8803254107093161
P 0.690411880046675 3.0611200381035433 4.320029971752236 -2.5536571978953053 -0.1339753006386015 2.7991687534427014
P 0.8350616954866766 8.264675817045154 8.68849281056767 -0.4950990809363795 -0.30851952383850095 0.016837383272312937
