# total energy = -381169.7453101075 ev
CRYSTAL
PRIMVEC
9.22808174725236 0.00000000000000 0.00000000000000
0.00000000000000 9.22808174725236 0.00000000000000
0.00000000000000 0.00000000000000 13.50623042590021
PRIMCOORD
 96 1
Ni 6.278417610440288 3.2416866516013827 9.825336903719208 0.797545401997607 -0.7058562637217263 -1.0259912603119685
Ni 7.569749211823323 1.2193987051613553 11.755593192170931 0.11609533503438715 0.2472966724722773 -4.231349061822203
Ni 5.459646840694969 6.912599063556709 6.987596605684125 -0.502889780625392 0.09673904199496242 -0.6662427630951623
Ni 0.8133428121369041 4.588968111841639 1.3636022453919776 -0.17192144086507166 -1.2150223642741333 1.0111189711858264
Ni 2.2174803288493883 8.078142684388402 3.7815552649532345 0.9037970114686951 -0.08864366658133765 0.49947715539941717
Ni 7.971143078013753 8.550029866067915 9.842773363938688 0.008385138739901689 1.001448795085914 -1.497154142147725
Ni 3.830189100702753 3.801674328499419 6.732356173370454 0.8333845231834034 1.341606000434354 -0.44355746141366187
Ni 0.4253804187432222 1.367204888456114 13.392439857115642 0.817541899724192 0.62588132855898 -0.9819148388180445
Ni 2.736227708991211 0.36416409370592173 9.589693225532072 -0.017916732379420756 -0.28555648728442434 0.6741244798360841
Ni 6.883502922211364 0.38560646415629957 5.326033446930543 -1.0791855849467609 -0.04571858508303739 0.14027707448691326
Ni 0.33210850658529967 2.6417044689657248 10.939979349147542 -0.37291254540259 -0.5448229305240682 0.5386851930574464
Ni 5.0933842812288415 0.6979705673091545 9.546514108827665 1.641271930536967 0.3508856475095376 0.476444956170302
Ni 1.9009940416372357 2.4483392467169653 6.197873991259731 -1.0925180403896086 0.01862327152814212 0.6482087884115869
Ni 5.117543398907912 0.5730749422503887 12.262076451840835 0.1043973298711686 0.7476359187616737 -0.35422731028826093
Ni 3.068650893159725 2.671575769167082 4.115658882784606 -2.607814657774315 0.19589543518216587 -0.40817702503183895
Ni 8.35708913557364 1.8050865893688692 4.440294488874676 0.6375747057365084 1.3976061699490576 -0.04774898524950486
Ni 0.7664226311440713 6.182436333518967 8.437747182966275 0.7749855144192201 1.5039323414118229 0.2314126542521692
Ni 6.483899303855059 0.05462562914486638 7.6667308127921645 0.5888124487311408 -1.4294816785014155 0.4955505666515014
Ni 7.208294482880799 1.4602331792592895 0.300303000476558 -1.3934494674682067 0.04562011183196014 3.6910265902716497
Ni 4.5404560867694945 8.00262929249847 10.67597223929563 -1.3026612437400404 0.12813889646248255 0.538522442227337
Ni 0.8862769552142672 6.477836454231244 2.6493416293137764 -0.9123731831734803 0.8117129517472407 -0.24366781747043842
Ni 0.7253170643794978 5.166756758183117 12.740872698228646 1.797938502125497 -1.036193654766267 -2.2974850773102693
Ni 8.368827255393265 7.787375060648965 6.826022124613517 -0.06119534056239783 0.32302954452921784 1.0596462293622524
Ni 4.16663572845724 8.998957580678855 7.509153013870833 -0.007970676910302402 -2.0052902587737207 1.3071640167064003
P 7.8886532564197065 9.016638585061248 3.481649994794464 -0.06846230653745629 -0.33895315773800977 -1.6017353058949253
Ni 0.3159713602578011 8.900512405965209 4.845252240186443 -0.20414533389578388 -0.8122109744295818 1.141819200617582
P 5.922998046876722 2.743351788001235 5.092483620462807 0.9115607145745139 0.8448601279231708 -0.5345382607686084
Ni 7.65016271505305 7.245225265520846 4.7383227672321 -0.6687958685343192 0.20387022585752632 -0.1942923523611041
P 2.384785448605521 2.723437587866997 9.958117001713418 -0.31989331289308137 -0.2974308701245071 -0.38291207981746317
P 3.2467528684103244 5.802460844766705 11.410225777915162 -0.2741459314546375 -0.10338508655657035 0.6865177112941143
P 8.505891951683273 8.8353898339785 12.719100885264462 -0.10986580918490756 -2.211504302273075 0.5693959918777419
Ni 7.438858102136562 4.589235726208596 11.186372819612885 1.2759778209115833 1.2740476937684058 -0.9770618816011172
Ni 2.006960102870533 0.10200260017784957 6.956545956651835 -1.1156553977380206 -0.20153077909107225 0.9003391348270817
Ni 6.144564286553763 3.1288641257250185 12.531363869995253 -1.8444749551241395 0.1146136082825381 -0.026234508216496755
Ni 4.361505128009929 8.934933150404833 0.7858911149361019 -0.733538303018027 1.2360897264673938 0.7846883435292809
Ni 2.151416492537521 8.732210653394201 1.5836596937242786 -0.907933402234572 0.23895498537580134 -1.013515753552777
Ni 4.589927832330036 1.2603344752241354 4.099694301583386 1.0992831270275842 -2.2126067913086342 -1.4073609353429763
Ni 3.1520727509973114 5.658927263261638 3.3028134642469764 -1.3361038396692022 1.1260603951214283 -1.3431070104599125
Ni 1.6711133004212944 7.757799059059422 12.879081676639435 -0.6451250072799406 -0.28554568865114693 -0.18821452159814037
Ni 8.366612515804656 3.453240422721589 12.848814491736613 1.1635630200525766 -0.20557538147409113 1.962432540178246
Ni 8.617865494050669 0.9648143894508099 6.731424137126916 1.0096246460284872 1.1686913424180776 1.201035563076738
Ni 6.089721797490846 4.861842485321444 7.84543169053985 0.5968085795627398 -0.5150816947058936 0.46750394492693037
Ni 6.18657051408437 6.992708040093001 9.159519741195837 0.9619103706716594 0.32877673142564023 0.0695416556445641
Ni 6.6085430022856215 8.312129921924887 0.6467473318572879 0.6127255079033125 -0.5231837549877376 -0.6729967939895442
Ni 3.5486864709089954 6.695120864036975 9.047702153407805 0.8521409778553002 -0.30426691920973403 -0.3849594492647951
Ni 7.5142699851286805 6.780775917626407 2.356688708499537 0.03371333309204517 -0.10700597113860925 -0.24050021837573415
Ni 2.552533516279375 6.170190669210287 0.8736806238040565 -0.39947924014752495 -0.7796692930481346 0.37842473347007083
Ni 8.923259627156542 6.6087829324077205 0.2748787128074945 -1.5047671786082923 2.3948517255869013 1.9788593182757017
Ni 3.387416516531821 6.78120963746251 5.335379647994471 1.5820499116508562 -0.4505572897702627 0.5502908956171749
Ni 1.2578244370237126 6.8326746486528 6.14330926745355 -0.43628432479101636 0.4275849972448056 0.10710058773494457
Ni 8.509509359677999 6.856187800618527 11.349784611733874 1.390095206283993 -1.0121067890203923 0.015586798694663478
Ni 7.769887845980577 4.434554622107532 3.2550692155655496 -1.3556974455304136 0.21361830638322565 -0.4707533051021634
Ni 1.8145546011101705 7.165937588248662 10.531239929988226 -0.2891436904150504 0.02580179155445234 0.02386549376368793
Ni 2.266241512125252 4.563295588777019 5.1341364124674 -0.5943169234891378 1.8163722833506524 1.3665063632204595
Ni 4.7121445452947475 1.571200860730194 6.370686430126203 0.304298800888934 -0.5269085121374926 -1.6162599818736614
Ni 5.012269443796056 8.441009309818662 5.342335775919026 -0.8805897201142964 -0.21159587663655818 -0.2874542185277694
P 2.948242884192377 5.881711609712412 7.2239019373233555 -0.2656638621255554 -1.3843238510178546 -0.3096721493857054
Ni 4.234009952359034 4.2241174488632485 9.021837686245505 -1.3443156860560332 0.48134856411950644 0.2129696170556332
P 2.3869909601125103 0.6846636736142652 5.036081585606244 1.2035171918480112 -0.1627811691267003 -1.7402046377491385
Ni 6.587115396765834 2.3647697395734717 7.434693468901815 0.34979215733504276 1.616808398177964 -0.16644087736647464
P 7.447624779674804 1.439193153167509 9.26330243831803 0.272275453904802 0.06547905553941626 0.06398961547808335
P 3.8234526011207355 7.378155781245451 2.1816882914811515 0.5803118674592973 0.1043731615014525 0.4727605653401794
P 8.952669523276938 3.322995278748172 5.8561396727374415 0.7103348683183702 0.9013308093163896 1.062446674925525
Ni 9.26591675384075 5.600061330612747 4.596008215308928 -0.029506236989233055 -0.5066114524513533 0.7569301995794061
Ni 0.7577011712057635 -0.05193933458551667 11.048029111210454 -1.3739412222319498 0.4796110126031095 0.17755267100892
Ni 3.850952284345958 2.388061417580338 13.393088591253472 0.6149590252195215 -1.1170857024266438 1.142606729515884
Ni 1.2419336804754466 1.2181344579795246 3.2787863081350603 -0.021017997012563804 -0.536226961324941 -1.7428495315711532
Ni 5.089028626704577 5.446469140142749 1.7930328691578674 0.8084124266190982 -0.2835865080422471 -0.28124937526863825
Ni 2.5713126623744516 0.5794930730165436 12.24586917209303 1.6148965258672316 0.7771843218427519 0.23317771657239195
Ni 5.476386580752202 6.387401254363064 3.9684137668522945 -0.261448281382311 1.152684939687492 -0.33022709071892165
Ni 5.306682159775076 5.601288665468101 10.750310896395435 -0.3742957989033618 -0.4987294786001153 0.9099499184439683
Ni 8.692825201043448 3.7147273434832977 8.824524690680052 -2.5853825540230444 -2.071699025216258 0.12461725646246924
Ni 0.8979947732543299 4.88188587859835 10.439046780571589 0.298076474128306 0.2858490788241787 0.2180300622976761
Ni 4.163322847155946 7.227101313220732 13.060902568782572 0.9906743301782293 -1.6594737982569745 -2.3911403381735847
Ni 4.2184421786674395 4.716251041615292 13.198895610083472 -0.07704336333824795 0.20635185462879943 -0.9832153027970228
Ni 6.54241456940242 7.970617077361459 11.730147679914145 -0.03244937877795702 0.08711643130353383 0.3002169175100765
Ni 3.7042903831719802 2.017258641957562 8.197012372149828 -1.6219596033616 0.7315282145665337 1.9738824338864003
Ni 2.3103148299385605 3.3917629429744647 12.017965085959922 -0.049513790459411504 0.7469082965670298 0.2601763566484229
Ni 0.4682771561500828 1.4082606235799437 8.981737980377424 0.07388733420776952 -0.10916621201472168 -0.8252305266177012
Ni 6.687157029599603 5.27634945549276 5.528842687908394 -0.859920364690403 -1.5202117952981367 -0.49349985477005975
Ni 3.167059155546896 3.6923584736383512 1.9931816542049023 0.3513415041000336 0.01563384988251501 -0.6148412686947348
Ni 5.7308878437281745 8.603709616846814 2.9657522462566512 -0.11012111972882326 0.13520017418463812 -0.4621809900521201
Ni 6.585269780441994 1.8491691352637973 2.9825805758974284 -0.049414288767069735 0.1378527813161368 -0.6756591713130558
Ni 8.87400935555486 8.932663042326508 1.4641560367556123 0.1620142090536887 -0.28769924465904 0.8744100736661458
Ni 8.620569321965096 2.663510425831899 2.049286544833327 0.5154393351556285 -0.5836676713054076 -1.434295297839975
Ni 6.683428884625446 5.794810765104387 13.094020308097566 -0.3552678357376333 -0.004191155263212136 0.7671485348733046
Ni 1.516847459993094 3.779582301103049 8.26588062246577 2.656705469937747 0.091917452236603 -0.9085982895120803
Ni 0.7519816062181821 3.398970074719062 3.9012610169093613 -0.1995605427385789 1.1556249961524225 -0.7749302357012524
P 8.025256548628754 5.59241125095043 9.306967874923771 -0.9147673944372696 1.8651985608247361 0.3687900385937842
Ni 4.410801540019706 2.70466766985354 10.845827078003147 -1.3785072443360775 -0.9483231189055279 1.2008918384100222
P 1.0361566884488607 8.57575775762225 8.693663110854471 -1.1700712534847397 -2.142175276859949 0.9667396737395026
Ni 4.524353084343987 4.3027776165853275 4.306367340335196 2.688708762317221 -0.47907802291777496 1.0057944736491196
P 6.774371628982681 3.978382863425518 0.9979791919820601 0.47330769609290096 0.2772826773114063 0.523772280501356
P 4.898136530329764 1.4219366405396012 1.7120499932922364 0.2872138203821892 1.6398282561119046 0.6779019446006453
P 1.577595921292301 2.410993200404055 1.357227486609433 -0.057583454841423416 0.09863111681135273 0.4025033716858294
Ni 8.312462132863178 5.333323631409713 7.03921757145378 0.875628262343963 -0.5532540920105569 -0.5391791019747295
