# total energy = -381173.6782493782 ev
CRYSTAL
PRIMVEC
9.14851266868083 0.00000000000000 0.00000000000000

0.00000000000000 9.14851266868083 0.00000000000000

0.00000000000000 0.00000000000000 13.38977303644481

PRIMCOORD
 96 1
Ni 6.936886986065037 5.085502528146663 1.222062862978532 -1.9041913971481657 -0.13957387777230154 -1.6146856954080064
Ni 1.1081318635878787 4.908826456340962 9.900397548092748 0.7380922409372965 0.31882064865419285 1.989221635346632
Ni 8.661290091629274 8.760459966234379 8.980975709544477 -0.25466031192620014 -1.2511749029352903 -0.051120215714582924
Ni 5.095053575110475 6.62710005858551 0.9014642235240676 -1.383600599698585 0.5561666376716615 -2.580937116657181
Ni 0.8680062839109872 0.08430628648048229 11.094698335289301 -0.866690850645017 -0.3372107211256063 -0.5579170447038649
Ni 6.160827826205583 4.416124171587036 3.5504855226896836 -0.028616378185112007 -2.322865979277219 -0.02699889718634705
Ni 2.935885713931993 7.377223185741508 5.720753273984252 0.9801194374805184 0.20811923094186738 -0.47611714051723814
Ni 4.325636235266086 5.194708320873706 2.4919166399745554 -0.9449986825179855 -0.7362937542759771 -1.198972509900122
Ni 5.369188749699219 8.256065882610958 12.103685025255603 0.5022215509137737 0.4697480037661007 0.4487050670528724
Ni 6.413015719504876 6.707423997610679 2.6695057333195176 0.30151738148905494 0.5512558306336055 1.7997215621678488
Ni 3.754183555622792 1.0801282670780792 4.738091428499151 -0.19821842688838767 -2.2175353389585033 0.23195541412951662
Ni 5.762126506540906 8.664757377835485 1.7649593759620124 -1.3619272284902093 2.2969312616893283 -0.7129838759054431
Ni 1.66126007285903 8.173592043167691 7.614361776114103 -0.4287617911617261 -1.9036823187222311 0.6327945107390457
Ni 4.068498996748954 3.4510567451831644 5.207818139167904 0.1656471778205857 0.027444983584830156 -0.9061135754170138
Ni 9.233868038299914 6.469498635170183 8.03612649558316 -1.1456090066773175 -0.28763445285937556 0.37691652435566053
Ni 4.918176236031591 4.68685609955649 12.881014913489839 0.6846762872100015 0.4446000437455633 0.0072181150149940206
Ni 7.097662943289219 3.361675778864725 12.802149247344012 -0.9960847025605233 -0.014537531494542705 -0.29991995509494795
Ni 2.673963803420538 3.4565092585839614 1.4734905148959352 1.0097853399760675 0.06732150806479374 0.7584566635262616
Ni 4.310879684736747 3.6240276694598 10.666587292756263 -0.29502380334491124 0.6101785731117427 -1.755657224858783
Ni 3.4060094700396646 9.400462449421589 7.180693927138709 1.5509182232430578 -0.43758221766683353 -0.890546317106376
Ni 4.560762152906844 7.317794449077784 7.628126627897391 0.37442821071616805 0.9505700059581758 0.44510963639213014
Ni 6.976737906155429 8.838871866164302 3.7390006844148003 1.3840711115771 0.40180865961164985 -2.405972003869779
Ni -0.2722213057910144 2.0348578744502377 12.148326106447767 0.22152573415576043 -1.51996651205655 0.6278821610390929
Ni 8.902591255151806 1.8676322159717578 9.365087896457055 -1.2471246441253168 -1.518612826242133 -1.476129974487574
P 7.722634420574567 6.880065575440286 4.6410961552956715 -1.3545311931364543 0.5048168224447757 0.6380822415005463
Ni -0.09150799545549511 0.6969254422997959 4.323571416013468 0.9186554166377663 0.446608846645476 0.23972837320671614
P 6.763586715341375 6.484749205370063 12.074629349817796 -0.6231001662694172 -1.0123698128737921 -1.1322215296268179
Ni 8.400145804673302 6.144634959226705 10.282166800975217 -0.9117607464004621 -0.09387946105898025 0.7447105175847626
P 1.6917520647463746 0.0206994241957114 5.540393096228047 -0.05739190765590761 1.1220060225463966 0.5149099450147196
P 7.534733124032661 1.3923212533233948 5.889585411243235 0.6608056512399909 -0.27694020637032307 -0.716758512456527
P 4.344985339028982 7.959242397226951 3.7536886211010083 0.63819357026743 0.8095257142879348 0.03601601308329281
Ni 1.8609446533946055 0.8570417917786791 9.170119374072673 1.2261472705427012 -0.11892509117369839 -0.924427286124537
Ni 6.528890777784236 2.3117284542517975 2.1295760829130144 0.321068307037789 -0.5415185487411834 -0.8322036155014247
Ni 5.367734136224845 5.3833140528717545 8.869465406539481 -0.9059729360740915 -1.1423745589004197 -1.2618179844714335
Ni 3.0613575617372533 3.3573485324912737 12.430489100682818 -1.927995955766931 -0.2916505159973041 1.3669388227721877
Ni 4.130763772262087 1.649796986799971 8.813817750057886 0.7343044917600902 0.03918618328115832 0.7229296742642453
Ni 7.536562826516151 4.776035798601745 8.519898917366417 0.9324735534677812 0.7074125524652526 -0.14480144471982803
Ni 0.3529605872799349 4.468307286416143 12.592304328917622 -0.2014065948083822 1.166794639615997 -0.9920380432949755
Ni 4.970835073506405 2.1464056863561463 13.657969712714962 -0.7509816953054551 0.017913647055627212 -0.12723746769413571
Ni 1.7074875061043804 7.808401724488116 0.9458747622033133 0.6467944245625635 0.957432537405964 0.15960379983998318
Ni 0.7535977321721433 6.340266748761353 4.524645655585254 1.335991482461054 1.1914350638724964 0.7219781089842534
Ni 5.222318531349554 6.0878409941392055 4.645126075015557 -0.7124588566399085 1.68239903959458 1.6542076647620283
Ni 2.274045731604341 2.3558883236908055 3.658420587041943 0.18153325292322284 -0.018581362546613158 0.014522104875574988
Ni 2.8174765177130006 3.647383821661537 8.794001157310458 1.8110511282480553 -1.1379352921821435 0.030158268750935156
Ni 6.016409409183794 1.6973692513706862 4.386770254644421 -0.6301411322765986 0.7249770437115772 -0.6286336944931368
Ni 3.4623826035559615 0.7107268881327536 2.0173704929642913 0.20205888368040043 0.293725653358778 0.1254420663566098
Ni 0.04533636813589119 9.167449838149262 0.0965817604422102 -0.6842808515437957 -0.36731988180616093 -0.7941191499248774
Ni 2.579615194859427 5.744021600466782 0.3506643106631561 0.5558483351002943 -0.7772483423114679 -0.44369630098437135
Ni 6.574971834830908 7.24497229023492 9.336166704151786 -0.26134183771143377 1.201481135254589 -0.11145757915205966
Ni 8.441771536172679 4.978611309061233 5.627319516664884 -0.3803867422924481 -0.6907800861148942 1.463790993306247
Ni 6.192966550328068 4.442316362638182 6.169431087282948 -0.013640730711886186 -0.34952759081974644 -0.12260691090065982
Ni 1.3657905673128041 3.707718261054588 5.383398219185995 0.4038359744543239 0.031211649716113985 3.045583537530658
Ni 8.904420957635297 7.714858185019739 2.7842829701087846 -0.1570787194252843 0.8816544139333847 -0.8994315354111476
Ni 7.799710637691542 8.333736753035069 11.230604976357899 -0.03784098210717354 0.009479143135028834 0.8910775070194975
Ni 7.914039597372355 2.946744998171501 7.29114666210825 0.5350555667246591 -0.9450801864881982 -0.6101901430759684
Ni 0.5268427033933478 6.969254422997959 12.011242051831044 0.5178026931814824 -0.10954544973101134 1.5998517157189673
P 5.741633838725829 2.239967522849358 11.320303396057225 0.9425592198385574 -0.6007097143893589 1.3608784755107208
Ni 6.05040528132702 8.439676526829082 5.56639591307215 -1.8846286445248899 0.24594632909196998 2.9087651110163066
P 1.523995792547683 5.890361205096235 6.632838005573731 0.2091610419428204 -0.6619086544961826 -0.7398382770941259
Ni 2.93138464582261 5.4121593125239595 4.331979813776342 -0.29167828391144607 -0.3702319132466333 -0.22233100366587516
P 1.8853254389870968 6.199855380178405 2.446258244201571 -0.42595414650960184 -0.5262749923185517 0.02924706979057544
P 4.846735502563762 3.593041657901913 7.578195876825459 -1.2509694717927036 0.1265144734851821 1.009794595947448
P 8.103468695487974 0.559388536318409 1.8398353758425923 -1.0660063672523254 0.25245610518602973 0.725874358714866
Ni 8.538077926391123 3.5282884870112365 10.53809918040697 -1.5388625776301046 2.7543711375120368 0.2379373427445644
Ni 5.241146169904657 1.7930809882819971 6.5524728982426845 1.0492651432382445 -0.9958874989480526 1.2927480983913866
Ni 1.018549629996256 1.5156614977353904 1.825441106404984 -0.49319389349386666 -0.8630226577648105 0.6334424287356897
Ni 0.9525705584416414 4.08481079438926 7.844237362478489 -2.2582788394244524 -0.16888419670064464 -2.297745272950191
Ni 3.6721031022134745 5.297089323337334 6.705785499036715 -0.13056190408167836 -0.48037540157295977 0.5785758586047971
Ni 8.809614923453314 7.997913159215491 6.140669993944984 -0.10014935322809204 0.7528169487419809 -0.15332310903759402
Ni 6.460432459364495 4.555346233555716 10.732157425805818 0.4823890895688789 1.6097337507193696 1.8136242882918703
Ni 2.965847092099126 7.723759687601913 11.884320164807619 -2.6704824691171813 0.8678139085058667 1.8660187427331862
Ni 1.604804602730976 7.3211062105729 9.863308563901183 -2.977969180815794 -0.002355387606054008 0.28397037374422707
Ni 7.943781411241469 2.981207444448016 4.024068331342391 1.5953751680048525 0.0730499259081387 0.6119382361153268
Ni 3.8790881956581704 1.0271949742307416 11.38970218155348 1.0758482930434117 0.46229231881900384 -1.0686072952102823
Ni 8.213388072183577 5.386223279820502 3.208992595725016 -0.05396462714191351 -1.0975748860872259 -0.7612874481068372
Ni 2.0126178407634283 8.241611232991396 3.5391047732423817 0.9354622037824599 0.8012681022648329 -0.4316923345449597
Ni 4.452050379850343 6.604356856715742 10.861650044818546 3.7578629311699085 -2.2317933915394144 -0.6348015138667454
Ni 6.241664081926128 2.7746065885248528 9.199657176114878 0.6179345629080777 0.6005950431883657 -0.8575086699251167
Ni 3.1341431265304465 5.879218316971787 9.236694013785662 0.10975396619739161 -0.2502956071996012 -1.9984164144720227
Ni 2.402939123053726 2.2761773349976058 6.836349408853524 0.6637225677764698 0.3788042282966767 -0.22231917659133324
Ni 6.335143581807583 0.5488174302200511 9.920509637791259 -0.1549490746767912 -0.4590938664863642 0.9607423185054873
Ni 6.85111968215149 0.7790415749075418 12.898314750471227 0.17686695779580508 0.877533964007108 0.38627971073811534
Ni 8.457214225133326 3.535826861243211 1.3145909175685722 1.8145108046618814 -1.2438439164915158 1.1303991317060984
Ni 0.9650857234287064 4.2308210525716845 3.441680434806525 -0.30167087634778367 0.26014396074859064 -3.9086553033658493
Ni 9.652503966522204 0.9841420747942446 7.341318019056761 -1.4753995240794526 1.1073173101859703 -2.3346992244667213
Ni 6.848512356112518 6.674041075799421 6.989260389952428 0.26943772734569077 -0.5304730895602993 -0.18726501320067748
Ni 3.440279797555414 8.438523814264485 9.764893441570518 2.083035019054367 0.9601023709286433 -1.7302539542943298
Ni -0.07925173336984385 6.036828888899531 1.068452020679694 1.5947182511471438 -0.39700223936194207 -0.4171278064672235
P 1.1165301979870934 2.8308790884045574 0.1778159764529144 0.7206053970064429 -0.5622552670679026 -0.18229532790022798
Ni 2.106856667175531 0.9528633108389997 12.698338332389536 0.21761020115143812 0.5682269112703052 2.5192764064225903
P 4.457457150689053 2.7744602123261735 2.875319817174781 -0.45342869778078687 0.16961156178497241 0.11543096197751088
Ni 1.5017374618360388 2.45269788209221 10.614006217636998 1.5496797228502666 1.5991081526847233 1.2974850988557396
P 6.007489609576785 0.014351271429246207 7.91287316203913 -1.2065714052933025 -1.0726171877006236 -0.42730011901453513
P 3.7597001086105117 8.599729751572285 0.237141334926321 0.6371869833797864 0.5447727940124231 1.1537254651368647
P 2.808995846702029 5.3570120796716 11.390090078479979 -0.8805179863360963 -0.47346144806194584 0.899630024575199
Ni 7.388091618493433 7.57287327230099 0.3748657854122655 0.24344875948109687 -0.15509768443951352 0.167881209357427
