# total energy = -340889.86571387446 ev
CRYSTAL
PRIMVEC
9.10886145160617 0.00000000000000 0.00000000000000

0.00000000000000 9.10886145160617 0.00000000000000

0.00000000000000 0.00000000000000 13.33173947224871

PRIMCOORD
 96 1
Ni 6.355334417517565 2.005470637044369 11.494612185904789 0.2865432766777259 0.562899842630437 1.1559450984960027
Ni 4.493264581860276 0.4152083077905852 5.95940774704999 -0.05369311864808171 -0.6995622031828984 -0.3092348047379706
Ni 2.5477757956152427 1.5135192630169612 4.74333925640013 0.6842338003559442 0.648918927104734 0.48541604932066074
Ni 3.5737341556883617 4.2369594462806734 4.712249802343456 -0.3893645203110262 0.41638887141867 0.1299607801625697
Ni 5.231583323931664 4.488892328499049 2.552334780630439 -2.1475635377550564 0.012401458988146385 1.2278418846363048
Ni 7.119804700005792 5.940835690012062 2.836820910895385 -0.11589067522274879 -0.14719488465266908 -0.48606139621414346
Ni 5.1578470927668025 4.3675714065861655 11.874620210593028 0.349532733026069 0.6194630837374622 -0.22912925753463118
Ni 5.325158654723095 7.910535829244891 12.705147043394346 0.21659924338842051 0.8733703195477216 -0.13590028557545628
Ni 1.6756569918291346 6.645178379922247 0.23797537424877513 1.4501592614554253 0.25374731319362753 0.5703282738840242
Ni 2.8121604910519467 1.7753079330204364 0.231539052946602 0.07950416617391469 0.34116867733208983 1.0870508466274504
Ni 0.6229076492850961 0.09653297801307693 4.839261029828753 0.18206007196097035 -1.909944754692175 -0.046591731716610074
Ni 8.546379883162517 2.4590190523823314 1.3934735816677684 0.3082413304764498 -0.31395432170082704 0.48221245478169855
Ni 6.75303640502702 0.7752487979097699 4.689172502571228 0.2401834584662638 -0.714609327324008 0.791206604263773
Ni 0.9445251412202634 7.469339029652395 2.706543245794803 -0.6336895117494893 0.06969412206202837 -0.556237343008597
Ni 7.680318472053943 3.595067108546682 3.7596833584830014 0.5109473608225458 0.7267647317396194 0.47304467223950136
Ni 7.704957941516692 3.8939288435088963 12.835024829489598 -0.047448680400266674 0.32719344609892037 -1.011162679939568
Ni 7.85683909265232 9.01612385365936 6.8942155551749265 0.9618967438249048 -0.10042266149413673 -0.021266365577944018
Ni 7.066271922914267 0.4293980917200011 0.3805855264863677 -1.4118367117261428 0.5725576774351752 -1.5657640300066389
Ni 1.9296758032552626 6.832210626309908 8.844049268197681 -0.2417947688174417 -0.8491384435835504 0.7273643129968311
Ni 0.1766627188326167 5.092026461957996 1.5929029881067416 0.08607487741289692 -1.3329074442190916 -0.21738548673514174
Ni 6.5115604954309125 1.9991399785317587 6.876711056666031 0.3763645085069325 0.20794208193405478 0.7616530589763721
Ni 3.2204378663788695 4.320770077898697 0.14851451604748309 -0.08501969667550519 -0.9671075986018829 -0.2601367616597391
Ni 5.716830576138524 5.722332328284735 4.991629505036935 0.9289616836597808 -0.9521527770642635 -0.8332839930497972
Ni 5.4769669349693695 2.6488659368712817 9.287636232960981 -0.5941158632219253 1.1597950683697122 -0.0497359337725466
P 0.08615434159686398 5.854228638015088 12.486440554062945 -0.5997031275017156 -1.3233200576409725 0.36576950659990554
P 3.931730617361173 6.1177115561960385 12.645461230583011 0.5158779653549438 0.10768731347635002 1.7071096549673823
P 2.503078613857864 8.672829093913675 1.3944199923432505 -0.5667014757647144 -0.39863231876619737 0.9544783398736464
P 6.316184532212243 7.875494040326889 5.870351322284613 -0.4784488739742082 -0.48391195397130854 -0.9882626354129431
P 4.777442832617703 1.0813402359819964 12.761394261114301 0.3715076946352634 -0.22322189091126074 -0.010876280592871592
P 4.17473681563371 6.233093500626589 8.26334479448183 1.4238023687284511 1.2320142708464394 1.5774602353976448
P 4.701493148188719 1.0756016534453856 3.7947597610734465 -1.5390561816981494 -1.1293632342424162 -0.2889251466463411
P -0.019725238861952883 5.7648433833615 3.6654950013348824 1.0587751396112088 -0.7614286016703918 1.344899069363329
Ni 1.4094869596032626 1.1591572369506704 2.5188588049474268 -0.3991457680675061 0.3444090386462585 0.49724003853878235
Ni 2.15767059832092 6.098264137599747 5.0474231014706605 -0.2415939656605452 1.7642303112397744 -1.3818342518267814
Ni 6.35010593120643 5.767466735378236 8.95292930752564 -1.4763243498865672 -0.46916024958343067 2.4578342399567092
Ni 8.596952280374046 2.4694031541152457 10.466881241448139 0.03127901261893968 1.1668774291377901 -0.6049710607688742
Ni 2.8534327410096973 5.1694791084799006 7.1865271080703526 -2.624649212833151 -1.7612352331671923 -1.1978849332628982
Ni 0.38939379523700657 0.3277067656267931 9.450642947128697 0.671270812437373 -0.5735616932196574 -0.047307783947028205
Ni 1.4373782925034242 1.2934582860296973 11.597306397612728 -0.31926930615583726 -1.124623919785218 -1.322809179442825
Ni 3.987321997076942 6.9065298245896 1.482902558854968 -0.078309117424549 0.218309798321624 -0.18080100274288863
Ni 5.939769953255262 7.933517485974842 7.985911655420214 -1.235714602516162 0.49755165624193015 0.7857365822881371
Ni 5.224332670440964 2.807888435163581 4.9729654485011965 0.8964842798573657 -0.08885655392309214 0.06599096217882829
Ni 0.44817236547588707 7.32282299774544 6.6969722754165675 1.1054044094339737 0.2591314603236763 0.0815240248174209
Ni 5.145040033962875 4.465109091986208 7.189513903647741 1.8490728589074672 0.980046675261054 -0.17078218505430587
Ni 8.184074930156665 7.314488389775601 9.104471609025772 0.45298672514736177 0.7220999792740983 0.18519553226615845
Ni 4.787799607767109 0.3337732671654957 10.559043787872223 -1.0834698141444115 0.03670532584083356 0.10762200745605335
Ni 7.996641893877559 7.467162011832951 4.58650470656068 0.4495352762636516 -0.029730951405529442 -0.0031933101263170813
Ni 7.3235972509448235 6.170388100337656 6.949796004257293 0.8167787963059224 -0.4736205993476294 -1.4981563581599942
Ni 2.6704448289811715 4.892806559325915 2.2912456711647597 -0.7078265000742197 0.7567617923223419 0.6180440919027486
Ni 2.4146133541823684 5.261405735399701 11.307874155732895 -0.4787918591359238 0.3281570955637703 0.21878776639930705
Ni 1.2174630572948681 3.8529845125532383 4.05012941661097 -0.6149921924503021 -0.6939317443699985 -0.7589320605007833
Ni 3.4269904022521755 2.625565470000409 2.6612949779366875 0.6938165589483728 -0.24863133212330082 0.03008190698704497
Ni 1.1922497295784582 2.7719266512674876 8.315672469240667 -0.025055400306731045 1.6617528240991384 -0.6582875128038276
Ni 3.892334792804282 2.6796721053455945 7.158224054645342 -1.3173512416520474 -1.2821883205976694 -0.034461781222295484
Ni 4.195659869739416 7.000997823775615 6.167689144773216 -0.21169100745352573 0.7994439045719006 0.22615320562544278
Ni 0.805959323341806 7.231497555662807 10.988192296796186 -0.33254314044660793 1.209071803117653 0.6216750037871164
P 0.24518868140868297 5.636517747209483 8.1961396167753 -0.6766493031404669 -0.12883155165413296 -0.9662845884799554
P 8.53709795363108 1.6359514659924905 8.024934016669166 -1.2092579509865302 0.2780033575275148 0.2419860588926413
P 1.9911606161475195 3.305396214504215 10.265492518971666 -1.4559645552832925 -0.2388832515976015 0.2434266479939098
P 3.9793881789985486 6.112118715438136 3.5516023557055 0.09043778236728296 0.5016996169720327 1.2882047019950782
P 6.881863028543344 4.3035725480112035 10.59134654223664 0.5668333733568882 -1.1157659551739558 -0.6810610590549173
P 6.295206824939521 7.909342568431723 10.279290621870805 0.7510128056537065 -0.6024922602110785 0.7871247208849154
P 2.401177783957764 8.281867663669445 5.860565672730516 -0.2538516999819757 0.04547972959935393 0.5242358504013358
P 6.904571419438216 3.9036024540706116 1.535389638684266 1.3466397062035194 0.8226856487086606 -0.18698167763230378
Ni 5.185747534528134 2.8719055114608816 0.7214737251111437 -0.5017530959177874 -0.5152508732939062 -1.4833087516242003
Ni 1.4351284037946261 0.6870868633112092 7.156850438381023 0.18516107948379723 -0.22889143049221222 -0.4941943097339231
Ni 6.937390646230928 0.8482472113199249 9.451002747144882 0.3428252390989064 -0.9437128738270264 -1.5595208773104046
Ni 2.890478479384928 1.3705556869660027 9.21972420762772 -0.11056514924477732 1.4658553320344432 1.0047958571812758
Ni 6.1866747441082275 2.0609344927037694 2.728887282242908 1.0552545280524601 -0.194660020113168 -1.0591584910925567
Ni 4.012690175433229 7.059804631484119 10.836397679841667 0.23051713902109333 0.4418739030636519 -2.752995597320749
Ni 8.29681530484814 7.108946937492078 0.7859489771252565 0.12767069857681237 0.7915642447135077 -0.5896303166467458
Ni 7.742112986225954 3.9467146939845446 8.01784094647669 0.8351956082502133 -0.6177404446194006 0.5938299565503902
Ni 2.7874572595610134 8.79649099314705 12.631316080073324 1.2901227449533974 -1.7940918746858974 -1.4306101356789038
Ni 0.16610737050972083 5.055408840057718 10.330445075311047 -0.8607495454599177 -1.4022048450633338 -0.4000595381310271
Ni 8.91550737318412 2.2269434875128624 5.762190882989023 0.29996340673837374 1.67650889936239 2.311471364287032
Ni 3.654538863120541 2.660324884222165 11.378199118389883 0.6620323245582406 -0.6547247351532337 0.24033335378056675
Ni 1.0644068630684103 3.4264620883043606 12.347297234386359 -0.536316949935586 1.1709461998905255 1.0165493981727785
Ni 3.3788773975563386 8.509944438485626 8.289941758209844 1.1531690784127622 -1.3126911171722166 -1.4842726581993662
Ni 5.587020195615924 7.8935204765807825 3.7425395708764064 -0.9173104725740976 0.10336194662811876 -0.40057658697676174
Ni 2.935376056088029 8.290348013417992 3.6768674145046583 1.207042174282134 0.13701331613397694 -0.036843651190910744
Ni 3.691912520497864 4.403013985395613 9.456149253705492 0.84307501099829 0.11518927828035 -0.45979320654623396
Ni 7.198405063035019 6.310281990174587 11.658312084407484 0.17820984497694467 0.022835252726960673 -1.0236333016027532
Ni 0.5322954310320143 9.259157378515404 0.49651673524542245 -0.17128637838423402 -0.2810205470872838 -0.8347374376668721
Ni 4.832105108494211 0.10281718133372403 1.6405769456942223 -0.513928812048373 1.090851194210147 -0.04188404182829561
Ni 6.101698178260544 5.867290744931753 0.3847528304712874 -0.34328392390287976 -1.3028026544139113 0.7728399288311271
Ni 8.041038483216353 8.920590117716547 11.37625255475802 -0.016943569832874046 -0.6545388443946727 0.5175877489571988
Ni 9.571773493843146 4.897698017773788 6.080659441617989 -1.2071270206864566 -0.8272560416881622 0.949876579435577
Ni 7.948711066405107 9.15121737366011 2.353092105845435 0.725550142606228 -0.413631620388507 2.4276348335551936
P 8.599721374169489 1.5511024242011762 3.888867960243276 -0.4889952820314869 0.5023812164200896 -3.717991548896268
P 1.573410025204604 3.1697379451109735 1.374222003586615 0.11295318986097967 0.4300285736892916 0.6649119600988806
P 4.915797324917035 0.9084886646625826 8.04859792710069 0.3480625762384457 0.7882184681697264 1.4656637848489276
P 8.47656957116159 1.6438397397650377 12.526542315360452 0.3152714978503538 0.5692854344418067 0.13185748296465033
P 6.365509015443586 7.625073229062605 1.618286651527016 -0.19109441424909668 0.7011501164953086 -0.4251537620954936
P 2.0698156323437615 3.2038506301897147 6.0968039871543205 -0.7832922345127026 0.2837076070011436 -0.06408448918473479
P 6.960791310574663 4.015149567948919 5.898374733671728 0.13449749169065867 0.4832828050277419 -0.027837333927242382
P 2.3521447842838357 8.572649838774558 10.312139907905374 0.49003195082611734 0.9831265997379584 0.07003247923805359
