# total energy = -340891.44649486523 ev
CRYSTAL
PRIMVEC
9.10137268951786 0.00000000000000 0.00000000000000
0.00000000000000 9.10137268951786 0.00000000000000
0.00000000000000 0.00000000000000 13.32077891195889
PRIMCOORD
 96 1
Ni 6.415330140098387 2.0760140303263728 11.537419827543488 0.47956781806999993 -0.4162896268366444 0.9683281012725454
Ni 4.65694491851015 0.25922438945524845 5.84778218543788 -1.1127881034925544 0.710758329009034 0.32512833603977553
Ni 2.4542397790507122 1.5490081407257246 4.799330434869441 0.8757563032813951 0.11858133468103449 -0.35412703726497075
Ni 3.610114122434284 4.273540488672541 4.889072700917198 -1.2789741845357456 0.054143575921939004 -0.026980385243585793
Ni 5.272680091367857 4.326646998858707 2.888930444517978 -0.9440149784484775 0.003281241854433059 0.15505448990640394
Ni 7.024166472386923 6.065291342881598 2.7940868590256036 -0.14386299206595868 0.644032288436394 -1.4897678769859828
Ni 4.945895301610478 4.869716811420553 11.388040816338085 -0.39950263718629264 -0.5566037252090802 0.3963766899628013
Ni 5.828728461517615 7.7099731142974655 12.465838123169293 -1.065565937280797 2.585177894211406 -1.4982905697450133
Ni 2.0248552139156715 6.421027599460262 0.5027297979777585 0.6901709917759855 0.5945568074140858 -2.445520969806995
Ni 2.496916116028079 1.7608516936123073 0.3774867172543964 0.9280890512468403 -1.3396272794414281 0.12500086505413308
Ni 0.4297012929078732 8.877615532688871 4.694775684618088 0.1604484072284656 -0.015650304942747238 0.5223535457769584
Ni 8.676038328301003 2.308417584328731 1.4576394593617268 0.10552861526213439 0.9503234371650084 -0.05427830172759039
Ni 7.002487002418894 0.720830544652343 5.191413933792488 0.44451622578250544 0.5363984539057988 -0.9292894993128448
Ni 0.6293344440693899 7.369008385744877 2.041436094850917 -0.2684293406858345 0.3005161939180502 1.948000423913316
Ni 7.938645105458979 3.956758107603182 3.638024392209245 -0.4727315118744568 -0.16363966047225367 0.6379871106835786
Ni 7.791302981482312 3.7278858862404527 12.829575396561093 -0.303029190147891 0.9823359855158629 -0.123237088285491
Ni 8.090492408963007 8.662550093837266 7.042709609294086 -1.218638620870482 0.957194710363545 0.4588197868893711
Ni 6.819330976542902 0.8405618340185941 0.46814185099224215 0.2835852224906664 -0.6149546543441474 0.13626538222435886
Ni 1.9989254028581926 6.395543755669128 9.188513876254314 -0.06863585600084308 0.08104631385005397 0.7830173835847611
Ni 9.041594966112035 5.040167320892108 1.4779400713531998 -0.3183208261996389 -0.8560904494213514 -0.29518218329964646
Ni 6.318254897999732 2.033838268852046 7.350645456018808 1.2853759742970317 -0.14261446437083827 -0.6497334525862294
Ni 3.3100327604208997 4.262691652315745 13.585063058632102 1.0598907412728908 0.7274036508751989 -0.6698834451715431
Ni 5.990241422916709 5.528419565184668 4.982824121675666 -0.6341944764103659 0.5625080065086571 -0.21611201933935684
Ni 5.296261748247439 2.443709490741304 9.551717809201058 -1.0397098954496418 1.2515821656760382 -0.9919549966628658
P 0.17104846966336876 5.611333071233679 12.694875989516666 0.8186528734001836 -0.08739745287906238 -1.5059370305466773
P 4.04630651441067 6.381127181181572 12.692038181483065 -0.46857223829044464 -0.38337076462143654 0.15627782079054375
P 2.4198638940510286 8.541419923474338 1.2887816901271174 0.5189077533202031 0.48799538001206283 0.24220691665419578
P 6.246244836544214 7.893129140173457 6.06987934490128 0.47554918382891 -0.7154151110547551 -1.1130020192755734
P 4.904575069177711 1.0087051454897737 12.664784120685725 -0.5940739542403962 -0.52692728119057 0.5686496006300207
P 4.1015245430823875 6.101168954390402 8.286323916713252 -0.6675082600711472 -0.6580789963374472 -0.25283302890947423
P 4.642919703052244 1.407336171992585 3.8933706867218496 -0.5551685354244503 -0.37128709398402504 -0.611217041678586
P 0.2380673382849378 5.7666297950222924 3.5391043018475674 -0.1679305745381237 -0.0856619582451944 1.2398368522146517
Ni 1.3386936184666096 0.9956992837835129 2.530522024890358 0.8722048384847109 -0.48944291109186666 -0.1276457588761479
Ni 2.03928088977601 6.432103970136622 4.787515032723137 -1.1849844231511464 -0.33566086013998325 0.04716328794936393
Ni 6.150725929191375 5.678410188641056 9.142876862710784 0.13482582156435488 -0.09390028699458666 1.5780181647836438
Ni 8.552459888659568 2.5455538521780143 10.359183411233195 0.5752961594122608 -0.38000390503173265 -0.017405339960640993
Ni 2.403426814805748 5.45548116370533 6.962984314130802 -0.7635263647396849 -1.4753617288629817 0.3638956866159604
Ni 0.4389091517519768 -0.006703161054346461 9.216020955215008 0.6087390124517388 -0.08878379170362774 0.6965169885986713
Ni 1.3331235783236903 0.9459602815268892 11.533850269138172 -0.29448387168104123 0.13504385111243195 -0.7634212066203885
Ni 4.223965311126004 6.97928760319618 1.7709041598506314 0.5180369206794756 0.35907075442349123 -0.6881981843203309
Ni 5.497975473227045 7.810288445106707 8.192811862058965 0.6438008891518783 1.1779791954779066 -0.651743798148039
Ni 5.521202176568107 2.99167584186016 5.191546813835113 -0.5252689196515405 -1.2459447648846027 -1.0123633851158886
Ni 0.9706341031403762 7.67133778683555 7.1464916529962 0.628852238261846 -1.253143853736203 -0.26730474016308803
Ni 5.432900657831829 4.394079069804604 7.338669869711532 -1.4901591988871303 -0.023150469974534325 -0.16963084505868206
Ni 8.240637755756698 7.090306148397698 9.157196052509565 0.05071295297383524 0.19292298281740322 0.6984211475999198
Ni 4.684230834112229 0.222778852284814 10.370905979377115 -0.04254892910580414 0.6611422086438034 0.07843792969292943
Ni 7.900665076837407 7.2172247918503265 4.629902919698645 -0.07401563225551769 -0.2298396533380945 0.8587469132075921
Ni 7.219472830927616 6.1402138436275315 7.007395372760522 0.5687814982221946 0.3520554994479227 -0.01958589255172756
Ni 2.3967464071833575 5.383225365184684 2.5187994567464367 -0.8128810039134129 -0.7770776210615584 0.571061552505623
Ni 2.3894744103301018 5.284093212837172 11.420823050963545 0.18925093328245468 -0.2133182586443036 0.3330992700603941
Ni 1.1411119167302792 3.289181515376083 3.503750929411039 -0.3355014517439835 0.43798150998778124 0.7178388900048992
Ni 3.245249188954725 2.8807483103864677 2.467527783313232 1.6366843111662843 -0.8165918771060969 1.012953453291404
Ni 1.2080161080547882 3.465893769322031 8.322383555677707 -0.3307899052009271 -0.3155566331909404 -0.26063606989366084
Ni 3.6412954255872925 2.6772962232053934 6.876971790649333 -0.06608249345137007 0.33435293996183707 -0.24313611333668447
Ni 4.049209852328302 6.921193540725177 6.127905147076414 0.9716293977316361 0.5867182852062734 -0.49632549714431295
Ni 0.9115479910360758 7.453596544385876 11.391304568617906 -1.0278655945165458 -0.6197330495693972 0.5613777495589557
P 0.2553199005315354 5.693654988051823 8.00554838664621 0.7558711621872725 -0.7553019199473638 -0.25333336558466046
P 8.629894368293485 1.5702962516641037 8.064865673619186 -0.5504168796720779 1.2203401769426208 -0.2001128156976231
P 2.042493674368249 3.143741578310969 10.511412972394089 -0.08672485229207 0.22916345320667633 -1.5396897015170903
P 4.006442501623111 6.076668058859783 3.755100811134827 1.0167831114501393 0.7562254602028976 0.756292051774775
P 6.645349134431718 3.99958006654507 10.501755505734527 1.9945325060365842 0.06590611577450585 -0.5318434875452647
P 6.537934732852089 8.036375646397978 10.162541881305302 -1.0763095489505465 -1.4797238624864195 0.6150150752684376
P 2.277982593743891 8.57875375462835 5.648982720023244 1.312317792993198 -0.3623877346118662 1.6664029212766396
P 6.895400250259437 3.9980055290536893 1.5546682844591908 0.38129974102502073 -0.08146951743040162 -0.1177909775692552
Ni 5.117820233472806 2.7526828939632373 0.7842862258295445 0.41460221183189244 0.11553174922143329 -0.2886706074333738
Ni 1.3905805446999147 1.1166474266907906 7.033811197124588 0.2893313809458243 -0.17446786143600923 0.10122433145982568
Ni 7.031502178849657 0.9029699471885245 9.394333230496128 0.3778488063619428 -1.1083542360909169 -0.5286134106437412
Ni 2.626465056214864 1.407117739045804 9.13933278814926 0.10539620344932818 0.6334786812902639 1.0028384763445888
Ni 6.484873729529835 2.0658933037921794 2.924749807240973 0.40202206117403666 -0.4941673131507296 -0.45391926426396023
Ni 4.335475330457779 6.962204326483337 10.36299324587997 -0.5296842751104168 0.18438820587351468 0.1804760153033021
Ni 8.171867783011766 7.399543491430324 0.08175945198018349 -0.2987519029287758 -0.881668555000772 -0.006260379087415025
Ni 7.905470601666592 4.040417926220362 8.31365806959108 -0.7211461000012612 -0.8300901687028479 -0.09100059684928843
Ni 3.168078649131502 8.704380003145857 12.327861311785869 0.770892061076137 -0.569442014624329 1.3602480410155735
Ni 0.20734656459472595 4.804805820735422 10.33785707452913 0.5193967771414797 0.48522964434146754 -0.04628499910946868
Ni 8.914494295203754 2.4620032500342255 5.7099783001373225 -1.022865313088477 -0.24476336452746233 0.5013193508144785
Ni 3.9376179206414843 2.649618948573666 11.61250888341134 -0.7724542633569342 0.02786150229695847 -0.005488276808080871
Ni 1.1026404139784496 3.168479109533934 12.387711939203902 -0.7361104346205773 1.2940603894449068 0.7903080037089034
Ni 3.110967534921014 8.344812068625739 8.161494948451498 0.36127856070808745 0.14378508764017173 -0.6102387369257168
Ni 5.575965136600697 8.391766050810904 3.644604684731027 0.36137369152505505 -0.997703983331501 0.2862501709173393
Ni 2.8913696124237007 8.327756096031246 3.6248374131846113 1.079972085403798 0.2511723533775997 -1.3481576855099426
Ni 3.501243501209447 3.997441243941171 8.949871331209518 0.12463165464017245 0.8434046264235668 0.9111218272648826
Ni 7.5049191855066635 5.958941801917527 11.477063163798741 -0.7767752593297912 0.3604290682235986 -0.7045200614088061
Ni 0.43308518330842444 0.024603741043061494 0.4284043472863602 0.7690732626998433 1.3351592163677457 -0.6423908961782291
Ni 4.688098917544811 0.450833770371671 1.7441825293610709 -0.9551560826669614 0.1488175078577566 -0.599474042210045
Ni 6.164441697974675 5.8758280656673 0.24706404528048634 -0.08927667217964624 -2.60034688864236 1.8949991891259366
Ni 7.9079643778090105 8.903536242373567 11.522327021058187 0.7463138575161404 0.07466123625931657 -0.06221246897300253
Ni 0.021279009565596776 4.943574451550928 5.838470570944055 0.2496883126329055 0.22061942029140713 -0.2639008566878617
Ni 8.020830501685385 8.93512710730179 2.78462871242998 -1.0844334636092614 -0.7505384371204493 -1.2107741305207405
P 8.744790098300369 1.512366013903187 3.743299061047697 -1.0592088847145178 2.3360958477039317 0.016393096646042736
P 1.624349304619655 3.587014838312178 1.3018958581694906 -0.8616851699003094 -0.7094902609298878 0.44214489733685136
P 4.48790512181989 1.0638230590608833 7.953064410358369 -0.07288460397486803 -0.7890988138921506 1.3605100364277085
P 8.511194264463496 1.6333687650471602 12.532721381336401 0.0697555714275831 0.1597837770612732 0.06470206816407567
P 6.541338646272762 7.856304985895268 1.4043827765246486 -1.2352502612852339 0.055554083116220454 1.0652522626951202
P 1.7598141371150968 3.3574782167363217 6.034805384609176 0.4738214025045258 0.6641853663455013 -0.4922726672311781
P 7.097377915049737 3.933240160333079 6.13344606282643 2.040248005795828 0.4373883564884726 -0.3356382344321639
P 2.419336014429641 8.446219564168887 10.285306658219975 0.45758977113701194 0.29178986978864585 -0.9190007157923269
