# total energy = -381167.85191752785 ev
CRYSTAL
PRIMVEC
9.26090963950277 0.00000000000000 0.00000000000000

0.00000000000000 9.26090963950277 0.00000000000000

0.00000000000000 0.00000000000000 13.55427736449946

PRIMCOORD
 96 1
Ni 7.568469155864514 2.948590286442514 4.574324454821679 1.801331072746814 1.1818317364547775 0.4596281417232794
Ni 7.952046772927064 6.110061103158982 12.852246895014542 0.786024288731885 -0.7226465958061877 1.5068356311015467
Ni 1.9250930730255087 2.4871932455363988 4.9964052298720905 0.1373539873028473 -0.7062563273736224 -0.4205350323765596
Ni 1.8304465763360844 4.654672107001468 3.239228192465333 1.9747815486619023 0.2525859458956746 -1.3093196295968226
Ni 8.874840854739295 8.375279605138745 13.197189849172107 -1.120089008029342 0.4424706561073864 1.3439909557267629
Ni 1.3267086564804538 8.90204940731009 4.33304534508607 0.7033651218687563 -0.3992766372184156 -0.5436782753966637
Ni 8.917005776405336 4.479094520823894 8.41049699238048 1.528084256067678 1.2733144151468072 0.6816922648810131
Ni 3.608995014957146 3.8336183786755402 8.415620127602457 -1.1733674077375083 0.09303022568480752 0.7332210288879243
Ni 1.6955892099181396 6.121553892042697 8.180358756961642 -0.37590685214422354 0.032562507317053596 2.1434623711024887
Ni 7.535676274770848 5.686883836405239 3.8055670833260034 -0.7624704126713449 -0.1714118482185048 1.6329150739318392
Ni 2.541897438877341 1.9448928978711046 2.0500032963814077 -0.728607441375313 0.7804347104592494 0.2927771734025797
Ni 4.540179480918165 7.888378019038631 1.6080930615744984 0.7361448874029387 0.2507465786940908 -1.785225682544519
Ni 7.213952273304058 0.8469175968145992 0.2503853622008441 -1.4973832274393954 0.17598249830832274 0.8765536023717098
Ni 7.303292268760308 8.770183314711195 2.0645873769084626 -0.9246800255652915 -0.9845551046543688 0.19287747429144847
Ni 4.212269191800833 5.8531079038297475 7.590476781572218 -1.0865654223505996 0.43012113340309793 -2.5838738306880016
Ni 0.3228464237171584 2.974511572571056 2.8741436858958465 0.8497297973106462 -1.045409259827264 -0.3114539238764765
Ni 2.785931669235758 6.964065148042734 3.5956518963240613 -0.92867217744382 0.2054789651055429 -0.5289376267523793
Ni 2.4360452415035527 7.978884889111599 10.21184671666681 0.4694690390731011 -1.4740275834325904 -0.6382591333980426
Ni 5.843170947768324 4.648985908472377 5.534049192162097 0.6986762010335194 -1.1259326112943124 0.013205700056996611
Ni 5.621862989706956 4.192219322394512 11.61426701395301 1.4380449946903946 -1.5203614335021234 0.27594287545406027
Ni 3.432546903271862 4.890195561385561 10.716743176320469 0.10034629973024653 1.1331209015126356 0.16467118706056155
Ni 8.685492295902506 0.699841386195869 3.35026464706483 0.01495919241299359 1.6799482640612422 0.960853390162055
Ni 3.661495111799841 5.495229311063983 5.265362420298079 0.6581777266988407 -0.515226447813874 -1.1177909560237846
Ni 0.3510495979850618 4.139747008280786 4.868669502979994 -1.6207133896593249 0.09217353411146707 1.762648054354319
P 9.284339757930386 0.8816219296613652 5.637454657204638 0.021940508826833183 0.5781660247608881 -0.03186676680160964
Ni 9.293322840297192 2.516892982804793 12.012722282378727 -1.0253767666564213 0.20313231925023728 -1.1013988878190064
P 6.44348163352193 3.876375998559598 2.771632824726123 -2.0628161209043316 2.4981671352478005 0.7903211163350261
Ni 0.7828422889922452 0.13500461488148321 11.300662051982071 -1.4972490158543763 2.1161791099065037 0.6397881684480594
P 2.2045039782717533 8.24317272888878 8.025230185396584 1.7389329701255667 -0.5016697921753619 -0.33381635073207666
P 5.991049153163306 2.400585218428816 7.943402639853687 -0.9252114725887292 -0.41268185488072795 1.0096357017720805
P 5.321494645908054 6.230897452356986 11.154112787122797 -0.03974771221158316 2.2239756952672085 -0.8819557472238875
Ni 6.865918027503152 4.354720504137107 0.4440106091170032 -2.07477843547253 -1.931566189616693 -1.2580760009304979
Ni 5.037703330394285 6.174924514393103 3.091567618447278 0.453521000384277 -0.7123709249117924 1.0809542468114093
Ni 5.437376408439831 5.157085716776218 9.280763194621047 -0.6176347722794717 -0.29276868876214746 1.7418971949602127
Ni 6.69102574864016 5.854867476664483 7.591032436151608 0.6792970251759592 0.1483289982571123 -0.7530133810235031
Ni 6.098660923371829 1.7576187827973728 3.5868410668768678 -2.397906967473457 -2.9028831983142327 -1.1776914890341588
Ni 3.7747467759891733 0.1348110618696624 3.0765223446193284 -0.16673038358243542 0.7387931236590631 1.9023018934349365
Ni 0.8973413977123075 6.366634605192298 0.1904181939021133 -0.5021243632142772 -1.2916558937684723 -0.015489868105483
Ni 2.9288830706934834 6.137510439380845 1.3110345668868286 0.27586677080048616 0.142446057113774 0.2667385832469729
Ni 7.875931356460295 7.3645439252283955 11.047549351887389 -0.3300165173700123 0.0777910401375499 -0.2667570951897341
Ni 8.405701693360346 4.916403935713455 1.9728386188505573 2.01473083536133 0.3360848350512793 1.0939390891068514
Ni 5.729465499005824 0.8142099160897746 9.66719502403973 0.8970982592922807 1.388829195087376 -0.6546964530184595
Ni 0.9100158786681926 0.30149817477699586 9.001151327635256 -0.2617089912428654 1.1747221219931898 -0.5809772689574381
Ni 5.071459346092225 7.399994687393476 8.9174947524352 0.42466653804642995 1.6578072091878286 0.6167138031270992
Ni 3.8444165993350183 3.379843066416724 13.047957698785343 -0.6643843697301848 1.0483452025271365 -0.33500342906164243
Ni 3.9919428901630547 7.897046230477113 5.380628332337699 1.3807489891824027 1.4653657939925344 -0.37165656150830184
Ni 3.1203060732933268 7.359070727621404 12.559691980692827 2.4376973599975176 -1.3790165798723284 -1.6989543728501
Ni 6.773836802788579 0.10122637300036716 5.508552981786789 0.7999907782143061 -1.0996338254987836 -0.09174338855258393
Ni 3.9021491101336356 3.315600136129587 6.25948773264853 -0.41527121287445895 0.14465772005311214 -0.2588524956306768
Ni 9.287303249020466 2.537192896771839 9.690264876085037 -1.1901073462000085 -0.46242550196275845 -1.0763833396112754
Ni 6.868659256761476 6.444213245384794 1.4201762393706057 -0.8744802647824488 1.4731940317877017 0.3215565595281171
Ni 7.627201844906033 3.5307588501790383 6.939382971626231 -0.8335004799359773 -0.3045949919731142 -0.8985391055038653
Ni 7.895008830352683 1.2588539714272822 7.9929438760611315 0.1312735854367223 -0.03633817230940193 0.11209521273605857
Ni 1.8518670603715677 2.6620947853090478 10.922822494542688 3.33784057676371 -0.4115333430985815 0.08397428613012635
Ni 5.310807556164453 1.721853149703972 12.191828275135425 -1.2546641470354714 -0.8604476979487826 0.1353690956623346
Ni 7.099311472666251 8.359730537825483 7.744982093917392 -0.3351733789806034 -0.9424077818623575 0.062184958169176775
P 0.7230103299744992 6.152716853036818 4.322052645323805 -0.33115783006330707 1.9084123772080488 -0.30417770193003746
Ni 4.908504379776462 5.697561665239182 13.159021010022846 -1.1708412988815449 0.25043650365283965 1.7139958405642544
P 1.5654271246960398 4.2729096282315915 9.69649932046579 -0.5794284364130795 1.524723310015245 -2.0990403933436883
Ni 6.15517099409579 7.582138258517507 12.902411390441868 0.4270008426065614 1.437064118834364 0.8761710222213104
P 1.0603926774884993 7.480083034102883 11.935706705493345 0.09053831250088924 -1.8643835211226085 -0.3669959228078389
P 3.9827653286934637 1.6107222338259786 4.86934740156685 -1.1637383692881764 -1.3171134146096284 -0.8247075642346957
P 4.537141902550833 9.225319980689516 13.32605077658747 -0.47200080435601943 -0.46575585188757207 -0.30462970186579147
Ni 0.21235358451449787 1.561204149892676 0.3430342806773615 -0.09069797800720508 -1.7507556737921073 2.840143396082851
Ni 8.744039766750896 6.162940897297593 6.197585034231591 -0.0847409890928218 -0.6508871065746984 0.29934634197966514
Ni 0.7300023167651564 2.3257200247656744 7.282618214043139 0.20708821857419174 -0.05735668354259799 -0.6583430486321113
Ni 7.59064903449183 2.4498995623496755 1.9828283620970233 0.8873540354213234 -1.5071747596085205 -2.0114524217203744
Ni 5.756322137009672 2.0191839151355433 5.901695266342572 0.7808005784391004 0.9319865865290335 0.45117435452897137
Ni 4.740854132264851 1.5825412857412509 1.2372056690142492 0.45190171961329917 0.02281622656356716 -0.26394405122097125
Ni -0.0639678812703386 3.9541954224031626 0.2375126977783099 0.9992857259963243 -0.48514094128240326 -0.8720287179181627
Ni 7.944258347905948 4.545874940356912 11.147782955372579 1.696641665556523 0.14395683733134562 0.6033607788589608
Ni 5.099723642363862 8.520138753985709 11.04001282360893 -1.2648158907574927 -0.8103744354414752 1.2244760534878654
Ni 0.35550131725694106 8.315204084197033 6.867626665334777 -1.48478379350783 0.6529830698717786 -0.22733102798362786
Ni 1.962534930766736 4.539966479996066 6.66119543254561 -0.790643018450819 -0.9323779084301813 -0.643240388662718
Ni 2.0598207867082627 8.473658248419738 0.46523846623163123 -0.5237833362449495 1.6142254679421362 1.729489051103847
Ni 6.070544801654698 6.852674926694358 5.463092102373999 0.7430796668495588 1.349138304255657 0.06437245273879881
Ni 4.4027753643446825 3.4792867143082145 3.756201804402033 -0.46431114902124554 0.3822754746747287 0.22976329157420433
Ni 8.26661209122938 7.8854608324968325 4.421622241586625 0.0551560763468534 -0.7763762241191597 0.13656465863233255
Ni 1.345591651270056 4.737409073872634 11.874495797027746 -1.0637795348043357 1.1329260118930102 0.2603748458124742
Ni 2.4141987556238704 1.634522771643182 13.167411394171634 0.39583804385051186 -0.8145897590744036 -0.18303426294878153
Ni 4.940334126265849 0.31333454340896777 7.580284224404275 -0.7245178446869716 -0.08268050701936729 -1.2171358110727104
Ni 7.366275715334161 0.7716754841284382 11.596674063878558 1.37256979580572 -3.256154058226495 -3.2203409051826277
Ni 2.956619495114699 0.7691555906109048 10.952208286973727 2.632607548448279 -0.19162123328684416 0.2627806270404894
Ni 4.318158432813248 2.7725311329628033 10.315319786349843 0.24861667683528152 -1.24578355671639 -0.2869441116605703
Ni 2.111394792585308 6.954100409252341 6.070378105280881 -1.2463625691483116 0.042423973492165645 -0.46311764293377655
Ni 8.507497612304586 6.7965075096276895 8.79945056749863 0.7033448101537823 0.2218697477587405 -0.3027707942801818
Ni 0.2812427131763003 7.403754616714014 2.280574942372171 -0.009749108966963856 -0.09381004127362554 0.6456608251787525
Ni 6.880003871090689 3.560921632930257 9.525959669141354 0.1434978954170561 -2.3551556925488604 -1.1895113644872224
P 2.0392523063611776 4.34807117100374 0.3979699967597162 0.9464271874343958 -0.2572506983611957 0.7268552345708965
Ni 2.853721527921334 1.5466923044609415 8.655991668191728 0.7265757556572648 0.04170175061416044 -0.3306510656302177
P 7.247022981687418 2.5918230028355294 12.424406760248752 -0.6144062380398451 3.6672958223136134 1.1414569321821568
Ni 2.5218383085613634 0.3531647897506063 6.310857998513134 0.26448192600231224 0.5729114612301681 0.4503631714815856
P 1.0588461055758638 0.26957118873621405 2.02823460214284 0.36531005046498377 0.4420986174799483 0.6143936396343549
P 5.78191003039058 8.358035791358342 3.6346468086146837 -0.1353832367297217 -0.3040018384738055 0.35561159223029726
P 8.313981644122375 8.966672034893143 9.773880703282604 -1.4250660659322232 0.6367817775215678 -1.24787489202778
Ni 4.4015899679086505 4.364111066528798 1.5536185387930372 0.6993364603253376 -0.9899731903461468 0.5181184246496883
