# total energy = -340857.21730340016 ev
CRYSTAL
PRIMVEC
9.42345534716560 0.00000000000000 0.00000000000000
0.00000000000000 9.42345534716560 0.00000000000000
0.00000000000000 0.00000000000000 13.79217943804395
PRIMCOORD
 96 1
Ni 1.5886249636471639 5.920285875190297 5.046931333893701 1.774522437194402 -0.4854566727506091 0.830698234600492
Ni 7.791030247562407 2.6816892530332734 1.7928039148391028 -0.2722849669864988 -0.8730041944575545 1.8771760449015864
Ni 5.347518830574393 0.27174889602196606 11.152425802145661 0.1572422415863421 -1.0206089129541327 0.8070481992817199
Ni 5.681966687313556 6.333843640281584 8.353399451454578 0.35734014488562976 0.06789100741501855 0.014642689613839297
Ni 3.8179223917536396 7.756399048849595 11.726993669094632 -0.28584445083848836 1.1810938298474882 -0.9561922372409597
Ni 0.3233394874758528 6.525403642304455 3.2892005778271742 -1.1289300033597396 -1.8874031219462333 -1.9779026107893871
Ni 7.946366486904447 5.059066859799104 2.668235385712925 -0.676671414627654 0.13796693829649787 0.4885185995053844
Ni 6.085667518022912 7.520181291534202 1.2777037057396767 1.1331275863808548 -1.0098953831913704 -1.7197162879877996
Ni 1.5309722633138343 3.8289572580645794 13.177558414243347 2.9174806365124333 -0.2949307294104727 2.0862566113154584
Ni 3.444649898634399 4.559586028078314 3.301144807587307 -0.5466296447155037 0.5421325281760985 0.5497023701035565
Ni 0.99753872167134 0.7565649463993881 9.173937409745577 0.29932628737500705 0.14324669863819847 0.2686350289387373
Ni 9.137368748595932 2.2603759841214024 10.76376197926924 -2.333699579557613 -0.48706746888115476 -0.46319169070482163
Ni 5.025820909034805 3.144635348043976 11.151694542004133 -0.9616853991450469 0.35535910989985897 -0.007953964739754044
Ni 8.384613705227725 2.756162821312826 13.310888058114903 1.6181911374581033 -1.672068089982217 -1.400688151308491
Ni 0.5064918825622413 4.200429871196297 11.42873753528783 -1.37559289890276 -0.13425272266970428 -2.0585753433501064
Ni 8.602323796074556 5.836605590953624 5.784729468800146 -2.169546212673734 4.278781544272554 1.6061712301790918
Ni 0.07719129282615805 0.5700285884673476 2.0736813121381035 0.43987564168670046 1.1937770817421118 2.0990931009584948
Ni 8.281115894217436 1.9452462110179582 8.465143728313462 -0.1078688333595368 0.1315350666282251 -0.5789538107695062
Ni 9.231226364699229 6.885577532373135 0.7027994214317824 -0.7235253988667153 0.30814645676979835 0.9983220765314743
Ni 6.666369112112608 8.104190518480552 6.508088042948049 0.2961879988563415 -1.1890398241674425 -0.6759926433930746
Ni 6.659782116765599 1.8007752157890804 10.05298183343205 0.16375304612166636 0.5512226634028249 -0.0939607079188769
Ni 1.323609126531403 1.4375198557941173 11.984176730055266 0.1808179720237531 -1.4961336713030104 0.25826088479326487
Ni 1.9852958966042038 8.29112360388628 7.64071576762011 0.2635966951838815 0.7829263665328517 0.9549496230831103
Ni 5.730016886561619 1.9791706505733662 13.557671393660717 0.780845829854739 1.3786877357779999 -0.44741231638337786
P 0.007224963279758696 5.766532776360842 12.763531361071543 -0.1573355726310968 -0.22129382065061243 -0.5814074145163213
P 7.478011328475743 1.058244621564656 12.31600298149323 -0.8699425248130953 -0.5320206365530772 0.24625280458879523
P 5.800391251728226 7.498940822990344 12.318264610796925 0.5606722388514989 2.119470379063266 1.0201024056313595
P 1.988122933233821 5.347782687326491 9.1239959229923 -1.364545639949663 -0.8022554058787668 -3.0560780093040787
P 4.779020611269211 7.954546046219473 9.522299940775715 -1.0267150258518705 -0.592787888439121 3.662445950420479
P 8.941784931103575 3.860761420147774 6.706074841575583 0.2579947756160718 -0.8373075123868934 2.0816155129990217
P 4.3823873721339 1.232276996483899 1.7379942710096252 0.5709952180440617 -0.9617247370234149 -0.40847758699139325
P 5.275712100182114 6.007368026837943 2.5979778713936748 -0.2655458484904523 -0.32278580394952794 0.4440997070703771
Ni 5.957970273463096 3.721426208129368 5.2928590196862855 0.057731807493829605 0.10765954556220814 -0.612942509010125
Ni 7.784019196720956 4.55942582933597 11.728841608704858 -1.228348134848762 -1.108410286139833 -0.2095402796591101
Ni 8.328826849069943 7.935378737870667 4.322290227461496 -0.7159812679708701 1.217713023732419 0.21294467735496875
Ni 0.7910990835212501 2.0739706122198673 7.1013586418930235 0.03213056198595757 0.4897205902332856 -0.5803717741629553
Ni 6.535628091448237 6.50431394904751 4.4213590144187185 -0.5801385751062267 -0.9144560338444382 0.46011562288265917
Ni 8.78386666497315 8.922297225270079 6.844231179319438 3.061575027862908 0.09252268992076969 -0.3651773815418614
Ni 6.011891285445331 3.5303279554226688 7.674782501352542 0.9830435531058489 3.179957102048943 0.4349463227058832
Ni 0.4449736808106817 3.7380491835115177 8.885763430905534 0.9190241128310946 0.047934876008065834 0.4115567401373492
Ni 3.901894803108706 5.709407789531708 0.26814065493703115 1.0979132432632512 -0.6403520113713295 1.2549001743056774
Ni 5.157532545608677 8.659307431072211 3.0634362596225633 -0.16252997234784267 0.9149522567545663 1.572764886804504
Ni 3.827100837344464 7.678052440387466 1.4414202239974463 0.4885417394338361 -0.6599790415736376 0.759423398314905
Ni 8.915502913903564 9.2511475494826 0.16222478526287462 -1.0446847229564138 -0.0026670053092018586 -2.855882146974346
Ni 4.508388394715945 9.470195771000782 13.63969314974135 -0.13246117798692025 -2.047693663440596 -0.017403283078111963
Ni 2.200122410088825 0.8383661936229088 3.3871244149494024 1.3722111269147206 -0.830962286895156 -1.6751688403947278
Ni 7.008779788691858 8.277176889846835 9.387550182170548 -0.5401718049053019 0.8465652835397356 -2.6120117265747984
Ni 7.680756972096467 8.248925370461526 11.587347483046967 0.42512213752660977 0.15016939389996073 2.1246524374848375
Ni 4.097629395887979 6.601196494344496 4.561763788628664 1.2609062712904415 -0.3431515120900735 1.4518129950087644
Ni 1.9335422793713426 6.0087061575092955 1.5590541605013666 -0.0939787056410059 -1.1450050545447312 -0.11282000671722507
Ni 0.34633366107561697 0.8352630497491321 4.460445622859807 -2.691527205602623 1.7553522920238545 1.7435691833459972
Ni 3.2620516027274156 6.530303839129125 6.974898697031438 1.7243005649243723 -0.9428230150229052 -0.04746282146765374
Ni 4.038506636507249 3.3129853793376878 1.3480903213983457 -0.2616935646238977 0.3399067799005307 -1.1625862579616042
Ni 7.667102385175415 1.2381006919409108 6.302211927432796 -2.1670635554611968 1.8451393281810158 -1.107972684381782
Ni 2.1147082100526533 6.791116815122188 13.008631667477193 -1.741539297400162 -2.017879151182325 -0.7490335704401487
Ni 2.7383807609125332 1.6174136199921005 13.728101181568285 1.5149860281228233 -0.03906559854289401 0.6695278616043373
P 2.316398426664986 8.839135231082167 12.867358993021954 -0.03248563133253115 2.9820022132345865 -1.7638608437154975
P 2.9384218728242555 3.2682239660354138 5.257426827261749 -1.141801460005769 1.4017024515056182 -0.8664023728703208
P 7.618891987185007 2.8769432495855107 4.132592300231999 0.4704152050364543 0.4105182715705059 -0.7531583912417996
P 6.598793513209321 4.135068784319544 9.819396989564373 -0.4917183373896048 0.27772696393767654 0.13560229471906324
P 6.854517823269073 3.9209019127151667 0.31363521307191966 -0.9976703018800883 -0.28556420059390825 1.1085789505072132
P 5.6236637685554145 -0.044954594138631614 5.084004149908959 -0.6289422268724911 0.03762243833846424 0.726426374563594
P 3.7386522846591697 4.0186042986347426 12.809045708462838 -0.14831511430004132 -1.5242119175964652 0.7222246777774207
P 8.402914055676781 0.23517740783569305 10.175014638931653 1.655592203814381 1.2354019563717498 -1.150002764869639
Ni 6.638541648221741 0.4366518273186315 1.501885825777245 -0.2526810767126422 0.6911122726433323 -0.5185927931829456
Ni 6.608848340155327 5.78684974627236 13.256146263164537 1.5920885268337805 1.0665046470449826 1.616384680376984
Ni 9.599391344974293 6.2234101660733 10.341334857925302 -1.4500718439479414 -0.5001638970537967 -0.6858358547357414
Ni 4.799535473744802 8.631941716497515 7.700477437279133 -1.2399024153452647 2.131343733462084 -2.648597239008316
Ni 2.537774241674887 4.409819050896621 10.829564083860214 2.7498339117633157 -1.2275276958299954 1.6322890103120664
Ni 3.9718639596917353 4.738358401079883 8.951606998700408 1.434303525370091 -0.8774144077101083 -0.4225543767994336
Ni 3.3287225499092243 8.94936138927095 5.329311772334115 1.2109731339054242 0.18203487514998973 0.299376166776336
Ni 4.453864281586059 1.8979216178381642 5.841980729932069 1.2190394558533262 -1.4112918949662663 3.305137172993417
Ni 7.280090494036234 0.7143299614984484 3.8957940580619925 0.21993704951240187 0.3389950667195387 -0.8544665406646832
Ni 5.764205182869124 3.9053249408859756 2.876344860165575 0.5952144956027425 -0.23505950697613712 -0.23813583190861565
Ni 4.040127470841561 2.160694672561095 3.7464115578619257 0.4834843795155867 0.3525344959668703 -2.395126576514843
Ni 1.296036095937202 3.0872465044627435 3.285490563423573 0.7925872866613833 -0.28301983690549964 -0.5166025022257942
Ni 6.885059242324372 6.2679925337223645 10.425508931226615 -0.01495199332414199 -0.8935493655987579 0.5594414517681914
Ni 1.8924465902321386 8.405891867593311 1.0163875172265417 -2.8566473072751446 1.4586315605924944 1.362632739197666
Ni 1.2112438439595463 8.222633929806085 4.318910976343559 1.1652414361962642 0.9107706145730508 1.2341907096724678
Ni 3.246757334561186 1.9776440507933728 8.272700748516607 0.12521220973399083 -0.10464158467149076 0.18355876799368387
Ni 0.6090124812442275 8.321542518020964 11.017551653928791 0.3437230683228274 1.9174909424705495 1.3500651869453009
Ni 4.833224326914409 5.672345339317425 11.931021844999657 -0.8876569113737228 -1.9077886275811209 -2.904351041109011
Ni 8.0755149436008 5.1711117448862725 8.298464475667855 -1.0727218315992881 0.0981454354241858 0.18037831338317323
Ni 0.01829092699362414 4.218183661230293 1.0844361735925174 0.37760506578225295 1.6873183312730684 0.7292317052228732
Ni 0.8832878056675282 6.278047360668371 7.391242977893985 0.4645705733302192 -1.0089795562453205 0.5339957580015772
Ni -0.06985701746338749 4.296803549899952 4.721918240733115 0.49065467201178076 -3.606759455491453 -3.371157188637968
Ni 2.283190169722414 7.087701227935343 10.027563004749616 2.1670386157605326 1.8561822162587385 -0.030007344995367675
Ni 2.209244314947057 4.187123952126231 7.135853200502072 -0.07809288764868487 -0.2803222354686785 -0.555537745838411
P 0.9994139893023194 2.2772439693447857 0.8783112788538585 -1.5290368497889344 -0.25504829139323815 1.4719642731456584
P 7.951822667599609 8.251969146566081 2.110906788131361 1.2101318689510514 -0.13241772634349455 0.5450494447125774
P 8.61277440814871 7.2857539907509015 8.020014560488152 -1.8120942248005887 -0.6414457586561405 1.2694161085336655
P 1.4908377666287005 0.2990674933195016 6.259911920689375 -0.02316615370381817 -0.18838729973057877 -1.0311062129410307
P 5.627923170410705 1.6454672468133362 7.969948684123172 -1.052610919782026 -3.7979795966851366 0.323165812996766
P 5.437343207752768 5.452043798226779 6.486628007892624 -0.7988042141053726 0.8339841044406153 -1.44245109417789
P 2.646388988984785 7.072472923957138 3.265960452040633 -1.4118415968221492 0.19775871364314973 -1.0269379404959542
P 2.4700478674846877 2.1227087237144704 10.348382660242937 0.07059272261689778 0.4464417249399924 -0.9695542603701625
