# total energy = -340896.0187873689 ev
CRYSTAL
PRIMVEC
9.03467973106478 0.00000000000000 0.00000000000000
0.00000000000000 9.03467973106478 0.00000000000000
0.00000000000000 0.00000000000000 13.22316702584159
PRIMCOORD
 96 1
Ni 6.453823934083453 1.9667503501652477 11.393239527964626 0.09687582468314283 -0.25190100401350807 0.6430334148582345
Ni 4.58781929525269 0.10665077786916512 6.16044891722178 0.5123658384366272 1.0349122169506821 -1.3655915647156738
Ni 2.8255327773186982 1.6692564229101212 4.60860447895784 0.21370829499387065 -0.3690708030589967 0.7223753444226721
Ni 3.514851720703793 4.408002068753699 4.9077653045845215 -0.18569355494849954 -0.3383150099333786 -0.07224182818454655
Ni 5.21225117032066 4.474903870603924 2.8587695563391717 -0.30725736929662567 0.3598297440767029 -0.14177011409267196
Ni 7.16919889320603 6.029510210397319 2.4405208130152327 0.20316034427469526 0.37356406294365985 0.895567167359735
Ni 4.8142735374371455 4.670134260365102 11.18115313662182 1.0150445314924776 -0.0915191883569198 0.7989906190845658
Ni 5.4930399751421515 7.7059853422444196 12.318292232869812 -0.01032966406078221 1.0299363610026457 0.7090614009225853
Ni 1.6587310212685935 6.693089351828155 0.5285486282514842 0.16113489177252893 0.27584568775456364 -0.48138610222566125
Ni 2.8281257303411174 1.5757836285897389 0.4059579653040812 -0.6154164244719144 0.08178422045734303 -0.42002595395062503
Ni 0.7520024533671404 0.19361950640264955 4.723685516287699 0.23418713167351282 -0.28407887429763334 1.2299311630651657
Ni 8.586225133259353 2.257106880599081 1.3346010518507614 0.2288016989918834 0.6883773902106726 0.6549895587788462
Ni 6.784167956075572 0.7259509549694193 4.795896999292196 -0.3626610428779109 -0.06159874664840359 0.8340959474281312
Ni 0.7755910981275391 7.579734730623212 2.831265281474534 -0.11913129364723354 -0.20384220083306828 -1.3628350850164592
Ni 7.619541528591083 3.9316756950673293 3.8255814534566346 0.33898863896163556 -0.2524854157620684 0.1852335845929455
Ni 7.575605882082286 3.8748475608826007 12.655311076091767 0.4464005872894119 0.025328708572775735 -0.1186648955337763
Ni 7.875638554282709 8.834037357830566 6.868734363324522 0.5879773544243551 0.5210260852147865 0.6643877121642945
Ni 6.898465686690993 0.6217368301669666 0.4813126133138027 -1.0293524634747175 -0.15726589573542593 -0.3996697588917762
Ni 2.084725195345564 6.190553372852453 9.335608433033464 -1.126023628346222 1.054626664660474 -0.6289005750012782
Ni -0.017148725198097545 4.8151227973120845 1.3708454756836508 0.09843648430204338 -0.3119380626017466 0.09223626902860244
Ni 6.522613983953489 2.1118744073050406 6.997422531480394 -0.39201532767031194 -0.641576884917366 0.5333005317067655
Ni 3.4548614486868456 3.996445312550687 0.3169952830003949 -0.10202754408741137 1.1610631364488584 0.05808559128882254
Ni 6.096393942888503 5.715464750260408 4.811579396004096 0.5189928568348416 -0.3804458776651577 0.13639445160305544
Ni 5.498415609456923 2.754149774426243 9.318365747168352 -0.6609588889884036 0.45584399209049886 -0.45209558079166007
P 0.13204184119392848 5.64750589090627 12.512395094626815 0.703280275464434 -0.2304441196913128 -0.23830526760694443
P 3.961101646266004 6.182431195963412 12.75781674299687 -1.4991156367494698 -1.0345849155182505 -1.8114961862052736
P 2.2280694206197937 8.701055909966492 1.2939928778094099 1.0671355957607622 -1.4189216435973822 0.12583133137522848
P 6.375872719179505 7.723693314104844 5.784500543413405 -0.2290824634570958 -0.3775855253982271 -0.27594853188101504
P 4.73477739233517 0.9565557289256498 12.645803882832213 0.6978156528054369 0.1489100675715629 -0.509287970842252
P 3.990437250669472 6.1736133487512825 8.164076118786362 -0.26939119037847153 -0.38237214815359305 0.4539583450320117
P 4.777972195123277 1.1391646713965142 3.7291976853947073 -0.07851352012587123 -1.736266221926681 0.7836516747346504
P 0.07187087558656867 5.6729294790773075 3.516079533650646 0.6183179143894255 -0.845724532805995 0.26598936378577415
Ni 1.3826131457592645 1.1165870072744732 2.6189674786309456 0.40034724457477505 0.8602139846714218 -0.48403845224684383
Ni 1.8954667287475198 6.33138595721995 4.742356584985023 -0.08227658671272926 0.6987430497157128 -0.11977946875419371
Ni 5.957223739552802 5.663668932568668 9.109280676362298 0.4456778501907744 0.5526773935714805 2.195573489975432
Ni 8.717977864708622 2.3510494782545353 10.204806942206243 0.0447554498388197 0.4173355516026554 0.49400687631346535
Ni 2.246689895111801 5.344274942155547 6.92612264763953 0.08528066364637571 -0.6270396105331395 0.5849434526940377
Ni 0.37295608795114366 0.031011537454543926 9.249036326930934 0.7089433872874823 -0.16664399451621623 -0.07370324322142145
Ni 1.5143387731699711 1.0273424429697435 11.27773476416525 -0.5643684567561635 0.9423923552433899 0.612290477248423
Ni 3.915178370262669 6.759593627779473 1.5761883822322629 0.9886207900833103 1.4733161591878625 -0.027784883422752146
Ni 5.66746349796733 7.882965679373935 7.943513391117304 -0.23788283535754517 0.11079809119118983 0.7202534129836629
Ni 5.2666941491119434 2.834206069658498 4.890125092820502 0.8765489743860193 0.6504793296133184 0.027022294225114752
Ni 0.805459748622724 7.469077975854601 6.772985733232894 0.4215824998044675 0.010148144177595426 0.5718076866430282
Ni 5.257117388820082 4.61673026971869 7.268708660382093 -0.7264505429333102 -1.6921064966903308 -1.5875536150779046
Ni 8.109311505404143 7.083640478145715 9.130226677362913 -0.0821536879816198 0.900281799226585 0.7289085175554995
Ni 4.608824925138142 0.3870248909006603 10.45319106199111 0.10407105688000141 -0.6022138097387113 -0.7262073165742525
Ni 8.394211089407518 7.340433174160427 4.7690676149877484 -1.4202766149633799 -0.6523780892979281 0.5975320879923257
Ni 7.332690453811253 6.1472591885896195 7.127326767499743 0.2216972267366182 -0.3002277161433539 -1.401267677961045
Ni 2.2165411695514767 5.195708672118395 2.330596770755746 -0.03249565863486016 -0.035937851547189724 0.8313785484969682
Ni 2.338617759234156 5.15829606422349 11.587355038272959 -0.6859263575670187 0.11502395634707932 -0.16909605560113458
Ni 1.1815011796301609 3.403905856190523 3.756767913419845 -0.6738997654197878 0.18003609955240607 0.5807435556800772
Ni 3.8957176705752437 2.6006234653322697 2.435601430016253 -0.8542829638989673 0.7210566256112485 -0.10145495941339301
Ni 0.9972027520889398 3.3843909484259735 8.227560101373934 0.5524315961092615 0.49930283460508207 -0.29795537516940945
Ni 3.811785497828641 2.4901564388335924 6.737679109134246 -0.39097171689714605 0.36944978366497017 1.1971094885494546
Ni 4.279041053276304 6.61376486563707 6.041440504704304 -0.7258653598538015 1.086104166443465 -0.45803071532917244
Ni 0.8432472957177364 7.588480300399176 11.562178096852836 -0.17977436125058716 -0.8313471810384003 -0.9516825222960643
P 0.3230792361895835 5.680265638848055 8.074475588108518 0.10991363170370749 -0.643628368129756 -0.9764964960159505
P 8.51600760402506 1.6491000528996076 8.0420519302449 -0.30107797995879115 0.4835921087380446 -0.39557399155584777
P 1.8512419724940623 3.2180263597331926 10.464311849013049 -0.7100975554965835 0.3392424068436544 -0.10945417556878569
P 3.764208875473032 6.134746157453555 3.616549687259752 1.1415849731195886 -0.11101123564326043 1.1639602554909954
P 6.898537964127158 3.99967069313955 10.500794788385283 -0.016489770124907085 0.6355538186517377 -0.08610418798893558
P 6.295491175484508 7.680263609649201 10.279054841974688 -1.1823793814281314 -0.23217730033233563 -1.169116088660322
P 2.5683335207255573 8.514191633441413 5.717287045119718 -0.999303466608137 -0.24387196306144449 0.13361560330633762
P 6.957218207613614 3.8766093233891223 1.6732723379570387 -0.3165691336158548 0.5889723713477728 -1.016218497195921
Ni 5.488269664355261 2.7927007519407487 0.38322038735452524 -0.18386267238734785 0.12319029420795559 0.06995560325353113
Ni 1.4872256999285767 1.1969143428923463 7.208913537442791 -0.2604239538828547 -0.42293232896414257 -1.6595355047328453
Ni 6.968376036821586 0.5900115530302933 9.284871479781541 -0.8186994103674029 0.36284076298888474 -1.0509160485781062
Ni 2.7135479246605563 1.6358642474018925 9.167793778277623 0.7652353770109918 -0.6567363662666238 -0.24827960521083692
Ni 6.482635527074726 1.9622239757254147 2.6653144811037977 0.16766909334662092 0.16272614751904876 -0.4403674937214545
Ni 4.038691473989128 6.798487923115761 10.385449034945466 0.9749057544900629 1.282275738105153 0.4887425425907325
Ni 7.85034145162496 7.355439776844185 0.17540559248907037 0.8028354467519528 -0.4312459910361605 0.882344498021874
Ni 7.671915565772144 3.9089625107524792 8.391937060572177 -0.4123776933767479 -0.028496050557163827 -0.5725977866444913
Ni 3.0554111630414704 8.523768393733276 12.238080541149802 0.40561260673877236 -0.987906280514789 0.7295713479504791
Ni 9.111745336935524 4.969850718782301 10.136985409980818 0.18696496546175545 -0.7319483328230878 1.3280586007672226
Ni 8.65314500446862 2.389672733205206 5.685631335015354 0.3976684121910313 -0.11869317766855042 0.2630742470215082
Ni 3.7614984716168443 2.5907846993343093 11.298322991856848 0.024827343456324983 -0.39263033554649157 0.7904247317924258
Ni 1.0207471269196875 3.305328467940988 12.758041706516932 0.2100704411309672 0.07702202318200929 -0.6931267319701999
Ni 3.091549881123969 8.298633214758832 7.910336240981667 -0.09996680490364074 -0.08797003755308076 0.7080805250665547
Ni 5.448074375168003 7.855473149592674 3.7066389940996602 -0.5469644023471032 0.20841465069509912 -0.3186296156893093
Ni 2.9330635329731725 8.2649338601469 3.4339768835069697 1.0884094175378738 0.5013579173618979 0.5290571830493792
Ni 3.3782292969929077 4.12652662828864 9.053082259340156 0.45217117122460193 -0.027380191785165747 0.0832230097863986
Ni 7.289595032497873 6.106151396770779 11.472776329124446 -0.36138911814402275 -0.949151014123462 -0.9610356813761902
Ni 0.3920228756114698 0.15695858384385905 0.3157159723802745 0.3125031910765973 -0.74623286776656 0.11600097554836797
Ni 4.571240658332345 0.37562402881358414 1.6651799755104153 0.2743765594082049 -1.2737784992674193 -0.40909902262547604
Ni 5.861447101954661 5.574261744032567 0.3378708135007501 0.25001278585185976 -0.49247244194680984 0.5115757384351641
Ni 7.794570374944144 8.753511259263238 11.318621206335838 0.8398670455839535 0.4534312688839481 1.0209503554539514
Ni 9.110932215778668 4.916997843586648 5.724401855242211 -0.30202337459119594 -0.3023159661309503 0.16184991556168254
Ni 7.694204120149525 -0.32082960098894797 2.810081668402526 0.09523854619003598 -0.6081353174294688 -1.1297103331691898
P 8.50791253117458 1.487605156468443 3.594625230467052 -0.5583124803700706 1.7667188819895834 0.009514367248338453
P 1.8478087942762251 3.176719804964897 1.6722414810237354 -0.29325308459773364 -0.3860760793677415 -0.8787850628053898
P 4.7507145670095525 1.0470380443247052 8.212644748953334 0.103808290136918 -0.20285258322628935 -0.2640839192329452
P 8.462974035238993 1.6557405423472669 12.397551669368347 -0.3323896455878792 0.3781794502284842 -0.7518494426223891
P 6.177859648125976 7.70469338307297 1.5064885401345005 -0.5161749277700722 0.3815763917251751 -0.27399397925780555
P 1.8085260077205492 3.2995553077273088 5.995331114302845 0.1435878840277011 -0.3714007367437539 0.09406278071437994
P 6.971023197921129 4.053237308017334 6.076349602904045 0.44272596665130204 0.07368036040328602 -0.7279716075635269
P 2.3484203865140336 8.398339937948444 10.025553479709338 0.07278098851746821 0.10969405949373366 0.7969728173235888
