# total energy = -340867.30854061496 ev
CRYSTAL
PRIMVEC
9.19983633281567 0.00000000000000 0.00000000000000

0.00000000000000 9.19983633281567 0.00000000000000

0.00000000000000 0.00000000000000 13.46489040678353

PRIMCOORD
 96 1
Ni 3.2947373585507105 2.3291777440829717 10.802558130451365 -0.26046766263659654 -1.5615314799825302 -0.16544071823673442
Ni 2.4634033550657293 1.3069471382750146 5.161106299945486 1.0148444996665296 -1.3097937410197638 1.1636021008206283
Ni 8.633494336577023 3.440527163707925 10.646459908768708 2.0570771615380252 -1.051571422773918 -1.1081899425989108
Ni 3.9406946614666336 7.19268958076951 12.81511522991326 0.852916422568744 -0.10674217595426133 0.7294163104298534
Ni 2.7908807264531337 3.6191327847921775 4.179918923628781 -1.4471125042093014 1.3343138376483148 -0.525115939013444
Ni 3.308215118666525 5.454325321080828 7.126387280852332 -1.0719253038399217 -3.3646103886583862 -1.2666269758243025
Ni 0.43966569460127214 8.310018893961209 10.584184377181014 -0.8750554205596285 1.1081176946000786 -1.9535714902431904
Ni 6.835450739092235 7.204879363809411 10.293544990132002 -1.0446770096469298 1.705946745007533 1.0606299334317604
Ni 8.911513388249325 7.053459258863201 1.784380920660215 -1.6943888649666043 0.6834367583759455 -0.11914492049398837
Ni 0.3158782178351726 5.1792962161918945 3.2848677742147063 -0.0032758425377943583 0.25911629081502474 0.3190731309846311
Ni 6.401586461234331 1.8506298615271057 2.1485518389567853 -0.15077026070875327 -1.083912558108785 2.6568401957433987
Ni 4.957883757006013 4.605980820357524 3.1494241049115845 -1.4554639614977902 -2.2702594088250962 -0.5846302923289931
Ni 2.975760635864339 8.845090570477186 0.611186521784372 -1.3782095105900007 0.8781001209232233 0.06510058915407498
Ni 1.8109141684076702 4.026602732430101 11.098301586655497 0.715780979034606 0.798544789796399 0.25545478280303746
Ni 5.319041728928569 3.5625537918145245 10.269711894325837 -0.20403683334237763 2.474682164751983 0.07912235735446374
Ni 7.3776706883795375 2.14447263156064 9.057212115027601 -0.641870762008701 -0.0819845093936072 -0.45250130087051105
Ni 2.07455387601102 6.6517944079031475 11.605927391667374 -1.3577651266927198 -2.0590921350855247 -0.2248028622451354
Ni 5.728462041852876 0.853826683148569 7.254357923164275 -0.5140162295558567 -0.05379339167137187 0.8015329258904454
Ni 5.868833143454996 5.8525678329534525 12.512922688493301 1.380726106364267 -1.247351158313826 -3.042862796165385
Ni 4.94270402718274 5.4591184357704785 0.986296045389955 -0.8748808426549772 0.5724998276140463 0.6440554283648456
Ni 4.3381827867662235 1.88708881261173 3.8329967783295777 1.5342420481389576 -0.5661088364860379 -0.7223185230428076
Ni 2.762922424069542 8.91847766429552 9.064806579857366 -0.49622728100355173 -0.7412899219389879 -0.4802766712115665
Ni 0.11061423123037574 0.3641166392626564 2.7861952498476827 0.6945464951358619 0.35187680777821334 0.1499109980322515
Ni 6.962748873373826 4.820888995310041 6.826241702999449 -0.28849988618346445 0.38275292853177956 -0.25243476502979106
P 5.32906035061193 5.182184964776445 5.254902310515301 1.2397864585926908 1.5440716326348696 0.30013361376765085
P 1.0334176066958962 6.614903064514467 9.508810917237218 0.7716657060173678 -0.6119693464635784 -0.5009311142371243
P 1.07435687803745 2.247694794358895 3.9495623836343023 -1.143612802182895 0.5647564362232016 -1.9201911150105315
P 8.857583948113554 3.613143691389177 7.621935540826637 -1.1776171841527976 -0.4461113381837672 0.8629115861082429
P 4.216505752437372 0.3579628687906642 12.474009221095434 0.9106577431442703 0.5351499262106784 -0.727827625786495
P 7.130342290459015 4.824789725882809 10.629036338882468 -2.2029661828950773 1.3810986592123375 -0.4545620400542817
P 6.7371044895099415 9.25264331664142 9.28622271897775 1.5253835693070632 -1.1000488015490153 0.5635924978220874
P 3.4477214356605304 3.643300754638079 8.92219991804491 -0.021109785395421708 -0.06213353610595106 -0.5262374542123969
Ni 0.10266005280298082 7.87078191172949 12.828889224756535 -1.8185543786036356 -1.863844875010319 -1.490432507153175
Ni 3.582581835344988 6.2577470213635005 4.554175622413385 -0.6531478775844172 -1.5346711652565763 -0.3579209570897642
Ni 8.956491387707496 3.8703067142679304 5.3987077109919825 -0.5943128097240797 2.344926558621684 -1.500651613778022
Ni 4.476097532087849 3.3968555409981818 5.738749298754928 -0.36494521092639726 -1.412229319178871 1.31256204779352
Ni 4.859187913645971 0.8786671610248228 9.45097982654505 -0.9806639971300788 1.0278887344449976 -0.5000471689702742
Ni 7.95580679841233 0.5554750733657098 11.385063242722381 0.21011363566407684 0.25387046903505306 -1.3659710595422796
Ni 8.840104259226148 6.1149011638083755 11.08183387975631 0.34817596188785843 -1.130666269324556 1.299255560492601
Ni 8.83752830507432 8.44815443535299 7.986188337665891 0.1892966989187256 0.3554802088587555 1.1245210756587665
Ni 1.0537952440041078 7.554151147288533 3.551674065457554 1.5863691078515003 -1.1699712375717657 0.4934936841224727
Ni 2.3180919413938543 7.5755591662574755 6.220496884360815 0.43646687311546767 0.36987864367227263 0.5399180370232831
Ni 2.559587643127739 4.76366601379443 0.12362647963161028 -1.6705105156871103 -0.32873019445842094 1.0199823351137272
Ni 5.807525434641487 8.836957915226415 3.2754692214950363 0.9490761950214687 0.5465897926165038 1.436269133736894
Ni 5.116406135542263 0.25508937978653196 1.203311902828842 -0.3935759872892125 -0.25451170216347785 -1.4781176943415641
Ni 7.288607073580081 2.4924840374726167 6.435423458985844 -0.9235937344796481 -0.4235226542499738 0.7225753762486201
Ni 1.633329729147892 3.5470980669035557 6.737467883042074 2.1911524780896006 -0.9953521952698728 -1.127461389234013
Ni 5.993362127023372 6.524027081972474 3.19245817896875 0.2940876646838871 1.6096617598308536 -1.3391575388938615
Ni 5.646923893111261 1.7737468299312933 11.429187497375946 0.4931491562988604 -2.2805973004159945 2.2159556531762097
Ni 4.0124165849225335 2.9900755810794983 13.164676808234463 1.4826785742393689 -0.12260793934192431 -0.7895690686603499
Ni 0.14175291700784926 8.350921365957735 5.683921034616892 1.713612746193223 -0.9517815097677738 -0.6584047551079822
Ni 7.5960932007820485 5.862706052508147 4.604157412811481 0.6423492443070163 0.6085667485399325 1.000897036347502
Ni 5.3356014341903215 5.598560353910689 8.586803327607885 1.7254629606635894 -1.1673520547813638 -0.37051884835943283
Ni 0.44417913426872524 3.5016600756325595 12.85186121588909 -0.5747575132999715 1.25392906864166 0.44170292470342637
Ni 2.2791306348474545 8.882506304532491 11.691738864350148 1.6727226928470806 1.6742653547438522 0.40671201045053823
Ni 6.503631044991749 8.09564430951157 12.613801652997017 0.21396951907505732 2.3025210970722796 -3.2377485591361146
P 8.098569857441147 8.066186433818164 3.777992797319042 -1.0519784284043496 -0.6119572622787202 0.1587753904014169
P 1.5545239317744652 5.369162436854139 5.2726763941629144 0.05536664969576271 0.19340377910856368 0.27084746320902386
P 3.8424404102469043 5.000644595926359 12.069887093871262 1.2720095802924545 0.5958475012010512 -2.1266715247973953
P 2.9563581811993194 8.254838276094548 4.2031595499800245 0.007116556440123228 2.8831993467320602 0.8147342550720679
P 7.234953628532004 1.5362990561502814 13.102294558546191 -0.9300716288945079 -1.491096365989419 0.4689123952386828
P 4.005130314607363 7.138511745054812 7.843365479701408 1.2017107347668916 3.91773515417993 0.2769857148962778
P 7.921141815397729 3.8612908747365324 2.4878537598847057 -0.1242174499208893 0.07738249184522157 0.6083410056823716
P 6.264499701175793 7.407772552610901 0.9197149904342037 -0.39967078733304073 -1.9814401916290005 4.018798277471543
Ni 0.5043203038449062 1.6050770320040917 9.273431266646671 0.8474001207362052 -0.3094330367917058 -0.8273545149392396
Ni 7.1718611514847295 3.427141401954675 12.399696623749698 0.20016963707748753 2.0295041370157625 -2.169893568710824
Ni 1.9268413050761914 1.8867668183427513 0.034480066305844825 -0.23741360903061046 -0.9298307165282954 -0.2088658792999048
Ni 3.377747481093371 1.6704878677880124 7.620090973657204 -0.6744947186913094 0.5316624818827101 0.02696572995556646
Ni 6.490226883565986 3.5453592978510717 4.339747678913459 0.8900290111503252 0.13466718449930357 0.05255283439605143
Ni 0.1853555409456682 1.743341371103465 5.867312410521792 0.6196554022539263 -2.2428684184066534 1.2696043132850716
Ni 1.84521115797201 6.807593634907466 0.9168336017186588 0.5608933537233695 0.2398445870696063 0.6204107923627122
Ni 7.589220923098422 5.348380006750641 0.7496587771831432 -0.03630783329209876 0.9287269419411553 0.2780480947225211
Ni 5.3706620101639535 3.0968488806727725 7.978122841219792 -0.1713221167181759 0.6089688690743577 -0.3979419775673921
Ni 5.290476237352046 7.645919513947409 5.609675596075827 -0.5067364080649918 0.24076401356008212 -0.799746523413984
Ni 7.970627734621599 1.9433458113204045 4.023915460259569 0.8194938812442402 -0.7780628677929633 -0.7517903072496794
Ni 1.3870869119056384 4.425001641519087 8.813511212543025 0.6914130917132028 -1.0881530785526938 3.1598605884093836
Ni 3.756458740593385 7.549597228341551 2.4032134263573885 0.5978820151325768 -0.4606612109734841 -0.4863277625016527
Ni 7.771175284580051 5.957169971190187 8.80249716857671 1.895002531560046 -1.2615259071523113 -1.0912993374911595
Ni 3.664506377209378 6.331630906339684 9.82292000656026 -2.5673552642076882 -1.189610609069248 0.7149145172692526
Ni 2.4168337839351794 0.998228233014673 2.4959864151354774 0.4968039794426282 0.19174798867269557 0.49125759570310235
Ni 0.6793609883797542 5.903755721884779 7.445101808205393 -0.9917464801964855 2.1170118902204442 -2.626693496956689
Ni 6.3505917688643905 7.71090715726353 7.6157955701090305 -1.0359550563928996 0.42869725647237783 2.087672517826379
Ni 7.428260587954191 0.11943319426588439 5.798493035404827 -1.28539268646758 -0.09383009587828356 -0.500518452179738
Ni 1.3841705638123187 3.6212855464762055 1.8908073864266188 0.2866245235376225 -0.5535947631794274 0.6814040442166329
Ni 8.619970577279924 2.269158012345377 1.1265696287277545 1.0735363570807834 0.32493370353046624 0.9164254988659829
Ni 6.360711588746572 3.493288224639118 0.8635840294822436 -2.5593822733045406 1.0830417254680573 1.1013729196770774
Ni 4.618382199631325 8.087235659173103 10.70266262844347 0.6851881938494134 1.575985450624331 0.9195889841956291
Ni 7.771000487691177 0.10111448031188396 1.1264279512494038 -1.365253978870597 -1.7909530719465996 -0.8571926813465947
P 5.524133678595369 0.7696233418434366 5.191658036169793 -0.4776837136734096 0.21265697091122088 -0.7866909757816064
P 3.1525998883873383 5.406062980079077 2.3292918220525527 -1.6370190687978838 -0.48873842882567436 -0.5680703310877829
P 0.805000392184293 -0.03466038309647279 0.6295346752143934 1.3798686434599783 2.599954281189632 3.0094446257162555
P 0.2984574078998094 5.699077764849524 13.321556096015296 0.7088881085695146 -0.6151955667103598 -0.5494473166699569
P 1.463086759220824 0.5484684780727374 7.194007917305072 0.30381209106050255 -0.885392026598946 0.7685001638051927
P 7.919403046345245 6.855782377219164 6.644411539307284 1.4005966200359492 -0.3152902669034312 -0.8214414918889142
P 1.0134447621829719 1.4159191987336 11.355763604212587 -0.5638892031268998 1.098752965555727 0.3975272586274767
P 4.128417320281107 2.398958502088744 1.7453864947032915 0.05413123462676484 -0.49475506733339947 0.035447799284648626
