# total energy = -340864.8839484884 ev
CRYSTAL
PRIMVEC
9.30083985741737 0.00000000000000 0.00000000000000

0.00000000000000 9.30083985741737 0.00000000000000

0.00000000000000 0.00000000000000 13.61271927463091

PRIMCOORD
 96 1
Ni 6.2281864485032745 6.304592847305095 0.9937026522977892 -0.26968661013170325 -0.1505152072751537 0.12571100374728025
Ni 8.36398479163851 1.4228982747529215 8.970632066361421 0.5491727228523317 -1.6253223491862463 0.4538292756533152
Ni 3.22621019739303 0.6051349581745027 7.880171847736764 3.6827841477571996 0.9469666048776335 1.4605056376867556
Ni 5.416139428054326 7.489733754733496 8.946836797865428 1.0472493983597964 0.5036405427484875 -0.576897956681742
Ni 8.961275421541623 5.1029615509447845 9.318941075492171 0.5243628628975034 -0.006961004698865431 0.043364740138880156
Ni 3.449086221067773 6.765626174414945 7.54376047285401 -0.09611272126487319 1.299639169084265 -1.7717587584063357
Ni 7.051022443098311 4.1322701063494405 4.7244573654646596 1.143921077451933 -1.6767847787315961 0.1415716249286207
Ni 0.9278229439602296 1.5597694329717386 4.400869988472099 -0.7682541092326576 0.2568886870360866 -0.3691497359260481
Ni 0.45540631904227863 1.0796321809514882 11.050151958065136 -0.11320670063268247 1.3044468748855536 0.33334198219881944
Ni 9.17328806435203 8.400630100376084 10.140209878584091 -0.10741580498251822 -1.4236938681750448 -0.9080375319126038
Ni 3.2735049676799752 7.8531268658212525 9.642773994654952 -1.327699931876223 0.7107128204830792 0.5509454984820382
Ni 7.133474387757852 8.440381889600548 5.450818539262174 -1.0115856264095997 -0.10377666556803417 1.7561171952143368
Ni 1.4206660732054548 2.8218933912683895 9.541604109935928 -0.0628974108551691 0.12440462623103092 -1.9747375827978442
Ni 8.052034625380074 5.325716663702373 6.448726101225002 1.9705456562036838 0.43405157880575573 1.4756070121045683
Ni 0.8913376096668907 8.053773882419142 1.5747735477066256 -0.26412402844226124 1.123198500192601 -0.7381063820046836
Ni 4.863130096349077 2.3855909971365112 5.195662090959131 1.4586683273677008 -0.2720882775946604 0.43688082072443474
Ni 1.8849453933989126 8.529651349819645 7.032221725564774 -2.276335182705531 -1.9222703661370635 -1.4792289251278719
Ni 4.925287608606237 0.9967523976620153 10.08657565590234 1.8479372026411272 0.6068518227313549 -1.809696928213006
Ni 5.237833028610663 6.035361438161298 12.327324675127624 -1.060864932260702 1.0881132264536937 1.4845063714767273
Ni 1.4557488408598023 1.612802821403629 6.789371218376119 0.008382053416108145 1.135141017266458 0.8186726708945257
Ni 4.4498379798356655 4.471471733166529 1.1498925848259505 -0.4639627645428913 0.9988069865876927 1.504028757780371
Ni 8.475911097564389 4.512562843319473 0.8114824594742349 -2.3156964581119728 0.11060705822630627 0.8398984130425211
Ni 1.8299495277732083 3.411808455225083 2.535301034589173 -0.2439220995730896 1.7127156883002503 -0.12410663537463787
Ni 1.5221103326980234 8.304719840553275 3.827202561529026 0.3020146328404476 0.5096312131142836 0.9988244700891894
P 2.9419393303231787 2.791219221670288 4.655591157473385 -2.501826072156627 -0.24972019431210543 0.0769520891760223
P 5.224718844519297 8.03322832734267 6.801718083185543 -0.1843164720953148 1.3874084034804492 -0.48216746047637604
P 7.033815889503257 9.161513201189145 9.882766353778875 -1.370764110055549 0.16248600648378467 -0.24549124383242238
P 9.442584579374294 3.8628526804100214 3.9594502722926537 -1.9685782480646679 1.4714708784490078 -1.8313317328739622
P 5.878530677772219 5.526745014731288 3.8427619363988454 0.9760277839096481 0.717102783169823 -0.1484017604765767
P 8.685152090120026 0.8132486889486676 3.065665611679353 -0.019116409114476755 -2.294296395169642 0.018454607160761766
P 2.290368999457505 3.770309324587975 7.640737538999711 0.31430681994423937 0.25970635899053984 0.14037271952451308
P 3.0228194330597127 8.501181479249666 2.2684645916890127 0.32238188364288994 -0.36879878034453256 -0.11991470878047734
Ni 1.123773966552637 3.632517383230828 5.654723640035386 1.1193053357857818 0.11401222725311332 2.6059979162805504
Ni 4.217912239053902 2.7914982468637217 8.359299028556787 -0.8842540563397611 0.0436277639922797 -0.024573832684622196
Ni 6.859443745287003 6.8558908244906185 10.71073269159717 1.2581683035339881 0.24164127395871288 -0.19244989983572663
Ni 2.106342583548459 5.564608733480188 8.97438960563299 -1.0837199824820045 -0.5429935906248132 0.11609019282806457
Ni 4.997108693395969 8.446287922861554 11.42339930890098 -0.1084946398689938 -1.4085770671382645 -0.7501831106635597
Ni 3.0199082702082247 2.2291880753773623 0.5434471383262894 -0.9326897832436453 -0.40626489561079066 0.776604538079882
Ni 4.598428196178682 1.0862636797154197 12.755866448546143 1.723660360237212 0.2750776992402876 1.0182054457189624
Ni 1.2401832772530117 5.7294475169208035 11.32689844575207 -0.003679505734116244 0.10397412629082094 -0.14123583885575675
Ni 0.7604747939466706 3.083730632786203 0.112673163360303 -0.36937110790823485 -0.5161831553001884 -0.0964428509107823
Ni 8.167578957980806 6.740430199447918 4.10181171623426 -0.8049938878558524 -1.0824763398828905 1.0606864977013089
Ni 6.2227547580711065 4.541739577712815 10.868163356152131 0.20732578850629457 0.6445976740215609 -1.3573246967211914
Ni 9.170748935091789 0.9636972130799497 0.9421415868032488 0.1889614270664939 0.4957853083701269 -0.7723136240140119
Ni 3.5812697560369107 7.765931492873345 5.350261579884723 0.11053840977189996 -1.7105747306978476 -0.3282136598333186
Ni 7.506624079775992 -0.07537865600600742 11.990859355374138 -0.11194274631859431 0.39306305220853593 0.47488969586804014
Ni 8.44600889766812 2.820256443466914 7.247357590373678 0.03910750752442297 1.5114921560369516 -1.2085010182158478
Ni 2.0879641241409854 1.170222360419501 2.3009719568079707 -1.2406567770127859 -2.4664582341802936 0.3327858525850333
Ni 3.021256891976486 0.7107413434691181 11.177730647258645 -2.4430917915402115 -0.5279906894580777 -0.2718476223387641
Ni 8.51085435262202 4.656874673363178 11.872169478759435 -0.34674000077228023 0.01869834774045167 0.33969286411751176
Ni 7.8451932494879655 8.281607253697217 8.066965263480691 -0.2405048463614245 -0.9413772837153143 -0.7761530523647601
Ni 3.80897291555805 4.6112261517174895 6.1006217105694365 -0.6668544285372322 -0.21210315529027987 0.4345963955656322
Ni 3.9550240026408234 5.211520952869903 10.51018984440483 -0.8992075923257998 -1.3569032929130567 1.9397590098401305
Ni 1.9872639318309056 3.4260573417697446 11.656326750127167 -1.3966448344770528 0.007938023900154072 0.517463821784825
Ni 2.865579435720264 8.783443364926796 0.06937217367536647 0.8436951610807921 1.264912307126041 0.3972297819917159
Ni 1.4393793628450486 8.098362108329784 11.980472177506595 -1.2696984156607747 0.2402482502659282 0.06830984011999204
P 3.0880555232844196 6.824137757477909 11.518497605410897 0.8153824301790279 0.834417335323292 1.0041749357678253
P 7.952683054838255 2.1549859756036653 12.929619156832976 2.585411864599083 -0.2576782728169176 2.567711361995526
P 1.310255804163896 0.6673566462261517 8.78993721126197 -0.8085795483245817 -0.37408008334813 1.1137445538685526
P 0.2243334652684431 8.037813641354758 5.536851307237443 -1.2617022848291755 -0.3928303673724396 -0.08761548242713943
P 5.193923764004042 2.4053645825111514 0.9071285754472596 1.0016346858444751 -0.31984857569807496 -0.0799674789635784
P 3.809326347469732 2.7835832322099967 10.761943115431961 0.7726638082645789 0.20996656856325133 -1.2526211484635135
P 2.3603857213297026 4.6173926084923655 0.35648537738232516 0.34518139803590875 -0.7858054878528595 0.10061703689312994
P 6.801322797494846 1.926854977452595 5.865666686270965 1.8817803764428171 -0.6239501729745383 0.798732737437489
Ni 4.097150135335968 2.2497243296140534 2.861230363038617 0.9656024748112659 -1.573584297382006 -1.0998264011255638
Ni 7.134069641503844 8.559618655594381 3.169871290502933 0.348672956128935 -0.44779875318851914 -0.6147461378777671
Ni 6.3925601899548345 3.8347269409119447 2.2818187374467307 -0.9073944990119663 0.6410696062636443 -0.050286921180010165
Ni 6.429986769234022 2.851172434899324 9.212585042511199 0.7431855962998041 -0.09104533404429482 0.2015415777243497
Ni 7.476303342089573 8.658328468191304 0.839120834967782 -0.11337793610322408 -1.223609591722512 -0.6166922058605444
Ni 6.18558860230579 3.664335556122006 7.0739173903034915 -0.4576926152634634 0.5982355418172536 -0.3598847656843544
Ni 6.437213521743945 4.065620288478004 13.174498177177892 -0.14917746230033663 -0.20780144259113242 1.5691401455677234
Ni 5.952639769148105 6.093417280074989 6.325598793950731 -1.1127701057704256 -0.0582632545172674 -0.5746053039928234
Ni 4.502750457350402 6.778768261025654 2.897943567906593 -0.3610952410526878 0.616213723562229 1.2359799403624068
Ni 0.7506428762140589 6.173544014789252 3.048568807993716 1.4273021543515936 -2.07617377315816 0.07219220589353373
Ni 5.069869163003594 9.290199620400585 4.238851219653116 0.5795330803117439 -0.5395205444745482 -0.06827924399237273
Ni 4.556407002047626 5.208805107653818 8.512264359932837 2.7200772493261733 -1.7835526657174703 -1.594650631134002
Ni 8.723592460935354 0.6489819071545904 6.327341771325712 -0.6535661960687583 -0.08577277279144584 -0.25677221606288037
Ni 5.122437509446429 8.975859138318405 1.764317221773826 -0.8217855054918943 0.31920040059111476 -0.016275340121255845
Ni 3.9798758465359496 3.614845787646719 12.760834957157213 2.3265418854669093 1.3913722732242038 -2.57600471235257
Ni 6.469868770215422 1.4292414474836383 2.9738347001845393 -0.7454006016732517 0.9168836694493241 -0.08742856322731395
Ni 4.069889373937534 4.338265105821468 3.6496792927949326 0.5424958250527884 1.3902037068373991 -0.7209542957054293
Ni 1.3115114175343459 5.992019524781325 6.128963229550435 0.11796375570169361 1.0653772183087586 0.1615292989974702
Ni 3.0264281588947832 0.6233478626338727 5.016042412938376 -0.4931458138647507 1.0935508525294972 0.6555377179728322
Ni 8.310179433504787 2.7495793619702575 2.562118145930048 2.0094207360023266 1.434815174899187 -0.5408451768232427
Ni 3.5126388592920987 6.675082499145838 0.8372327644922165 -0.9356118419864468 -0.17088502918075732 -1.13432134957864
Ni 6.563732845286386 2.3960823444096038 11.565434293366268 -1.617448345754808 -1.4889721205575648 -1.9182794998101158
Ni 5.8718433739696 0.7212605932615538 7.638001231936109 0.30847375820223005 0.06601435921759599 -0.23225700453033551
Ni 0.7803925423379179 6.031994534160536 0.5372323171845517 1.172960659217393 0.6478480626380584 -1.7602451013397815
P 5.504999651323053 8.218538259141509 13.421120174897785 0.48817201479924316 -0.6044162167066687 0.22434700565463941
P 8.315657628135861 7.1791136085637595 12.319088781501451 1.7632748893050405 -0.3021272471589119 -0.24727713208825158
P 8.61222420539634 3.152380131210577 10.301874285407415 -0.36244661287425967 -0.013860302921860001 0.03485104624091417
P 7.094848000146902 5.832565927573972 8.61242696370357 -1.8891005642533143 -0.07155328675795418 -0.9861633296817532
P 8.246291965048341 6.650798006477359 1.6566813932389723 0.44798335839549946 0.30035832818394725 1.1871564911018007
P 2.7526486390980245 5.818996002333333 4.340333612588787 -0.6953813323323315 1.5721912736892214 0.09301068530078174
P 1.5884625236964636 1.089770096312898 12.851631615268365 0.11255286909876745 0.08424476618269362 0.83781247704777
P 0.6354026810741694 7.026151997523622 8.068489671120814 -0.5001973213948934 -0.6417622614552947 0.77428951679346
