# total energy = -381168.85060307133 ev
CRYSTAL
PRIMVEC
9.26835180215249 0.00000000000000 0.00000000000000
0.00000000000000 9.26835180215249 0.00000000000000
0.00000000000000 0.00000000000000 13.56516972180637
PRIMCOORD
 96 1
Ni 0.6986826670210551 0.46906295344398424 5.228613807061607 0.8755632134339825 1.261863492997388 -0.00768477023876741
Ni 0.8977168189824253 8.162201998045907 6.998624355477407 -0.7097699969538357 -1.9446662173337605 0.601713473063525
Ni 2.6349275964885885 7.26230062849596 1.701927088259251 -1.872702325400949 -0.6192249995847271 0.5613522956376591
Ni 7.648355294550133 3.264897482251971 10.953020494748918 0.5697137802284769 0.5396982077029931 0.8217693075419784
Ni 4.360092296894168 8.4830352710426 1.1977797151364566 2.495933875041908 1.3823744406009677 -0.9827021106060303
Ni 1.7317823037369764 6.08304186117061 8.260238918211432 0.5682145699751311 -0.03536475265253909 0.8238881536571939
Ni 8.623747391178831 7.6536475235448505 1.7261953411485085 0.1981009274739169 0.6817675982036387 0.23264189867357998
Ni 8.629845966797962 6.686541333608405 3.830112173063713 -0.12398913596016713 -1.1468565059311733 0.25232240782164284
Ni 8.743874501512497 7.090836116407942 8.834846156944796 0.4279374954882178 0.28974918520953324 -0.3621655912987311
Ni 6.314361390505354 1.3932279417071864 7.734900385064959 0.5322209254893414 -0.24932835819032548 0.47203294314553546
Ni 0.569454035018718 2.4567527975491257 7.4389628323882455 0.949498884381184 -0.23932676689292331 -2.228350941516769
Ni 1.3441705545460034 6.736414335746006 4.98906583481704 -0.04155828305776069 -0.6142288319217164 1.3813339151515953
Ni 6.693928210156196 8.066339433260698 13.8935831206168 -0.7191372971013485 -0.8405476165907461 -0.8627025554212303
Ni 3.143899146829859 4.890167884750271 11.648289627726621 1.8325779465762373 -0.5978658171826607 0.8850400425761662
Ni 7.491191849605456 3.7758802649782743 13.308286691516349 -0.43264004317020976 -0.007150237891536073 -0.2673610473223202
Ni 7.036847965980227 3.01665394215654 1.9190373071355002 -2.178808868922583 -1.2809953287308327 0.4827814399112911
Ni 4.864235035840959 2.1296448502452114 3.217454642010017 -0.48081506021353965 0.9351899239576796 -0.20606749061916121
Ni 5.650812265428734 4.582440061488306 3.079890054214601 0.8848832052833276 0.36563760900773157 0.9205965995245371
Ni 8.702241064307124 2.133101945542986 3.287681871985267 0.3775181624954014 -1.0500614138872948 0.39893545182891293
Ni 9.093393323963914 3.834836252080538 4.989500520526062 2.2921610939941943 -1.2785314405713724 -0.43838260208094176
Ni 4.885969321292117 1.5249497603988031 -0.06471626787322082 -0.06848236114211431 -0.012304785509282034 1.4380215976516268
Ni 1.9041458459694558 1.2211517183868543 12.814798850034226 1.4433898039420754 -1.2004930603097066 -0.8211859242346824
Ni 4.854762780092098 4.645131194448487 5.592607941674056 -0.35326366082341093 0.9389352499327248 -0.7133546289813004
Ni 2.9848912998362356 2.789384682647876 7.127886353546961 0.964121005169733 1.0826992545269742 -0.44318516567590777
P 7.519840325652162 0.33378579492334237 12.255276781023806 -0.4850743497105259 -0.23529913379076897 -0.20564865791418777
Ni 2.5823667722696073 0.18471918229002196 10.562166676026681 0.902165389402543 0.439224895476579 0.8372496625657646
P 9.430084747240748 5.711112163571688 6.8447131752512 -0.4860259149905178 0.1695421419996177 -0.2155540899533578
Ni 4.638865788493271 9.29541559261162 7.042642539653602 -0.17532275323713675 -0.5183750207451847 -0.46638834326524836
P 6.059222196518382 9.752252662926129 2.707661915681125 0.3102095099464141 -1.3746238501212715 -1.0204870426642876
P 0.6586044592820817 6.00024767271211 1.3927496947437408 -0.6183857915128834 -0.2637573891314619 0.16282822031455185
P 8.489921656582135 0.523744376601654 7.7007029466730055 -0.4041838447120459 -0.6466761538171444 -0.5402885329888243
Ni 1.4022182431518013 6.368201247300991 12.639591777406688 0.6560923049247217 0.46663285517588665 0.30206914022746684
Ni 7.388878511824936 3.3882314423792823 6.763973780432153 0.35566481406573586 -1.4569400318226844 0.7262965338539492
Ni 3.106028660538419 2.5138736509544475 11.33595172617749 0.5818352460823593 -0.36417156598516637 0.062100883095802736
Ni 8.938621113836465 3.992036770433234 1.7589274530885108 2.0461435453446564 2.91756985379213 0.502639869398115
Ni 7.222252079483401 5.725533719291091 1.682609989010935 0.05005552189549444 -0.44461392770263425 0.42972364085436315
Ni 4.883179547338684 8.813433483308204 9.541076043003324 2.7469524764504625 0.917695109607026 1.065785766601087
Ni 5.1601179052408455 3.302007963679021 11.907221431353939 0.9691462262984665 0.40324590627880874 -0.17055901329990625
Ni 1.8768042075554208 2.6140181943658547 2.5044292002615993 -0.478582314228279 2.5160399017631634 1.8074045326344033
Ni 0.16578115863870052 4.505781522056955 8.851775728716685 -0.7274805268597213 -0.898122329681421 -0.016309792903617074
Ni 2.3666273426548616 0.5978930463101166 7.180153371007392 0.22254800477268769 0.6202524124079769 0.3503647420090611
Ni 8.562585536299435 5.756100744202781 10.799666342478197 -0.22851090722434195 -0.7758218942775864 0.46430549259429066
Ni 3.416008693337541 1.0893279478231852 4.813112659853117 -1.1272099353448393 2.1638797584165763 2.8018658406588908
Ni 5.519998745233583 5.594247513143697 11.165762539325327 0.3465083443774484 -0.3194690808714692 0.3351528101553131
Ni 3.316392445990405 8.0312772576267 8.552255957990132 -3.5248561929577424 -1.5989893677186722 -1.0710796680101746
Ni 0.3628717371846731 2.2149878355050205 0.6993453541893953 0.39542281068996415 -0.4934139799244728 -0.7124223469750182
Ni 6.7100458742924705 7.953738224754895 8.025968345598374 -0.9206786177153821 0.7684040045469605 0.9227506697530624
Ni 8.258129441295148 2.3231309666965334 8.946989508861561 -1.0123728981975855 -0.4593730882896798 1.2592854478575668
Ni 5.8844025410046426 6.838801820342565 6.0020587086938395 -1.2971500841138242 0.6312395075471 0.40482816316426407
Ni 5.525531951380424 0.04992212440322655 4.848720741420196 1.6505659542443831 -0.37895180961813446 -0.306544145279685
Ni 7.905737429722255 8.96352517567325 3.7317647631060287 0.15199230604131242 0.7075107686060137 -0.520487181992181
Ni 8.903299424346335 7.930669296615053 11.727998381802738 -0.3795573044126173 -0.13044594732910436 0.09653978149996277
Ni 5.406137040855135 2.4162871726963537 5.702186740591106 0.4501837084809279 -0.7997467805243 -0.4092229497978501
Ni 5.3080500715887835 3.8449665608217383 7.704243457138823 -0.47185013771076806 -0.5226427948826031 1.3374199873774644
Ni 7.926266829412794 -0.10517818538519116 10.036828142880209 -0.6106118039944194 0.611490864165263 -1.7509593051624814
Ni 4.80799467587609 0.07222270616187411 11.939004464048654 -0.2930196284306889 -0.539997741221283 -0.9403365011556256
P 2.476902194807469 8.253152336268593 13.179430647264601 1.9955784308025952 0.14198043033126515 -0.5333280425105912
Ni 3.8231766652585524 7.234718012929801 11.22855562415756 -0.8233775325693625 1.0528037525191223 -0.5612733627706075
P 6.183260551398055 5.700564778990273 13.255667476679736 -0.14846706649687336 -0.15344472221712283 0.2662143353123867
Ni 3.6927894892556212 6.216747107191245 3.9894082658046846 0.17431925167328688 1.2972385300625724 0.3510795086878986
P 6.182945427429894 4.1372255045877635 9.738883065159266 -0.5005287365923832 -0.08780522984044233 -1.134821172033194
P 3.6221831836833767 4.250892573574112 3.3058052074953705 -1.3286250147936538 -1.2022177563102974 -0.5750789011951322
P 1.9033116942890278 2.5703549880714416 5.142393108866947 -1.4432795036164563 0.2568750601893318 0.4895030749058409
Ni 2.941172483429793 0.9236005456261123 1.7839825890629724 -0.1533832728515681 -0.8815148030317269 -1.778617690309698
Ni 7.929316117222359 8.148225323222732 6.109739349120314 0.315585686656663 -0.20477191173618928 -0.9737551858253876
Ni 3.619615850178059 8.810968101674938 3.462265184522886 1.0110014717713556 -3.2608702327552423 -0.9479490233955611
Ni 4.92908569481825 6.202353356527857 1.5899737375585818 1.2204399357452786 0.039239919337229194 2.7283091503176626
Ni 4.763219267341105 3.501601924101479 1.0096432914622806 -0.5709301691340812 1.4233627100878712 -0.017587116954143906
Ni 7.77853856680896 0.8279937873562344 0.8098556224829235 -1.1890598787721005 0.3741299627494589 1.0570273036821665
Ni 6.285342180378457 7.066729132843567 3.586753054474789 -0.5132086460528967 0.24569616075437686 0.03598953072073156
Ni 8.433375441001107 6.035476678682193 13.209681621372932 -0.22917168073679242 0.1654620583929731 0.09720955387347775
Ni 6.334677618099783 7.8095226675608655 11.04775973527115 0.529990493496926 -0.5491284998779575 0.6074190080887345
Ni 1.0056347292202228 3.788818884376916 12.241507717285536 -0.6715644324183918 -0.5826364018274158 0.23414959356735804
Ni 7.599056930236827 5.295380234398279 5.710814649472335 -0.9620664366335497 2.691436188550713 -1.552414091062294
Ni 1.2978380628742197 8.432569094376694 3.465168032370776 0.5281961206006646 -1.7287953674709322 0.23911747909559466
Ni 3.4571138344786414 4.228908042618827 9.338480063366525 -0.10259318678289428 -0.18138104361607474 -0.24645232219411103
Ni 1.4230905718665157 7.331053263667253 10.272034819045746 0.5463247118805752 0.18238917316561493 0.5127548463449298
Ni 7.92544194608437 1.2989131917067716 5.66259048715638 -1.293846730772204 0.668961704688222 0.23851481251458925
Ni 0.5148152462802703 8.938287453164294 0.0918558562135524 -0.6449861677092311 -0.3941205469387728 0.3414913507788312
Ni 5.081392523312433 6.139551003343619 8.722173582128557 -0.8441510176712881 0.6596581678991091 0.37547310704091463
Ni 0.09903882901723964 1.319952350757572 11.253149196202184 -0.12387780719328342 0.3141096163317687 0.3356539181614477
Ni 2.546665080347281 4.931560344803519 1.291251971939639 0.5862819689998031 -1.6447421484737546 -1.133993533925576
Ni 1.6259006504346243 2.523355175055315 9.597548111768312 -0.40774250859758165 -0.2020545128050262 -0.5591524597728629
Ni 2.02736858587271 4.67256551638257 5.926947984047283 -0.4877058737961021 -0.7564452895231876 -0.04300529991693238
Ni 3.9814059706837766 1.6601379427401992 8.908952192234036 -0.4469029808471271 0.3009802780386623 0.5235046286622661
Ni 7.156354096729574 5.537441783706537 7.9526084126455165 0.45798597813416614 -0.4940315589038137 0.7409677627128788
Ni 0.9080009823669045 -0.0002780505601427318 9.076414629926399 -0.8295183553597778 1.0659487745415126 -0.630011805787586
Ni 6.018821450129644 1.5535611630374901 10.189884781051578 0.16626038592455236 0.4297786624620147 0.7865289962824455
P 2.6801015441597777 2.906592262100042 0.17052192068913408 0.8109220804148293 1.0221621163738652 0.43488435911969614
Ni 3.869212569666184 6.259650308621269 13.401899827270002 -0.7444912024851049 0.700888892414122 -3.0884302003825392
P 7.058878838695537 3.52507865972953 4.299914740997677 -0.03877454966503644 -1.137056489121616 0.7812590061327577
Ni 3.3446887246609305 6.367014898244382 6.7658181824811 2.130513267140989 0.9653669617616923 -1.1322572679607599
P 2.6761902996137694 8.24889816269841 5.685800294246694 1.3084642235750625 0.7355273084235978 -0.5415725419075705
P 0.570681164824148 0.49440355466019237 2.2243349685018186 -1.1799635728977873 2.0473589058089967 -1.8139176511625728
P 1.4584956765246901 5.218397302646762 10.618665623012483 -1.3690453275922294 -0.5713531156041128 -2.0088550933068436
Ni 1.4890997748444001 5.055339185827059 3.3431900321417607 -0.7598836257807752 -0.2212503690071867 0.6338103535980698
