# total energy = -340871.81220791343 ev
CRYSTAL
PRIMVEC
9.22853206396703 0.00000000000000 0.00000000000000
0.00000000000000 9.22853206396703 0.00000000000000
0.00000000000000 0.00000000000000 13.50688950993229
PRIMCOORD
 96 1
Ni 3.7210086815629957 1.4657215868009306 10.211167573872629 0.3941943375995018 2.3965170291044666 -0.2736705344801158
Ni 6.400642132404271 5.843829428729024 1.8177162523999302 -0.2631102424657662 0.9491391870489202 -0.8004381501643699
Ni 8.433780006089856 4.2879635418502 0.29886785287495987 -2.6508256141182023 0.9671425656048762 0.7612026017025149
Ni 0.39037428426852705 6.4632023504865845 12.098607230853691 0.6242286234469056 1.1197663345826003 2.1409974545017643
Ni 6.092141537880938 0.5759637531758239 3.977333002153036 0.2623805633885933 -0.2703422414378312 0.971156828970592
Ni 1.068470200524004 4.672894837975203 9.015497748935886 0.12352556606018723 0.7435949159230807 -0.6390998841317831
Ni 7.367589252957256 1.8522309618892137 2.1460425021093132 0.8232836873039757 -0.22379601824717585 0.17453188190472524
Ni 4.3476167723685775 6.714679846097007 1.0277788346012504 0.2199069676054148 0.879884980737788 -0.7501406874613984
Ni 3.172898483515663 5.260170925614119 7.661796697197968 -0.5643784840584926 -0.7760491797970441 -1.3326040540460597
Ni 6.6737236213073166 4.01798283968202 6.1177433312138705 -0.49542612525849516 2.4959585576322563 -0.3153375752015989
Ni 5.376173572213128 5.4578460799618345 9.012904531458213 -0.6007053435139849 -0.43784729840276204 -1.1701072489289976
Ni 5.386444928272373 7.745008524075768 2.926524366073041 0.7854355061079504 0.5645150096363568 0.528980821285489
Ni 7.043566267695694 8.404728587514384 9.856868543845962 0.6427040565432738 -0.1671759557602863 -0.8346217380246141
Ni 1.6021008319433463 2.737099519287737 10.50718473322854 -0.20682802293426963 -0.25215760010900445 0.2783185747750884
Ni 8.299846321913925 6.368794468648249 5.957105044137102 -0.7081841405239545 -0.12728271910977434 -0.8234451525825045
Ni 4.1923005796668 7.3559428456376095 7.530833677456424 -0.18539299298894524 0.29415425625576436 2.7536828531957607
Ni 6.025068567675559 3.6669294843418188 0.8311806499319839 -0.6323404539207627 -1.3191247886127022 0.822716501946596
Ni 6.274460415065507 5.421171893996483 4.2583574885045925 0.6595728072741545 1.2929303896055215 -0.595499116722697
Ni 0.7015972957168166 7.1403274251810265 1.187916012393188 -0.18818649657368236 0.7620181556252748 -0.9503776874417117
Ni 7.6560823902151425 4.20447301330754 2.6518343440512826 -1.1031842618542034 -2.392363411947409 0.9985851003848738
Ni 5.478231907037189 0.2994778588367892 8.028589313777198 0.3391591031012288 -0.7750024837000847 -0.28609847583082343
Ni 8.607082607560246 6.315075184173083 2.974865262128326 -0.117310695498727 1.0530117547648705 0.9884639527904718
Ni 1.9260223033534685 3.2420201878137203 5.8333956505074775 0.6578486254941961 1.192631655283759 -0.4200154124276637
Ni 7.849724676101143 5.1028890556072035 8.135172397815857 -0.13997368431388152 0.1433361730282112 -0.38979055210485125
P 2.68505982762729 6.685231600647727 5.900835916284426 1.9374905255209274 0.7360119613695002 0.6173925743616787
P 1.338007933158632 7.5593027756659135 10.266302515148771 -0.2686244874157761 0.6884174994199886 0.8550725496797984
P 4.170318216564267 1.3070185228738687 5.703095239359873 0.6741566186256003 -0.046525911475681164 -2.1839698442982325
P 6.2175111444081885 6.4850555141418305 10.710679399823299 0.5240795273291297 1.3797568004724625 0.287115347131112
P 1.5206313518975183 7.685761348963147 3.347128552446928 0.39105064976419746 -1.0458743723891406 -0.20692392508218554
P 4.688749455863596 4.649961936081922 2.72490678287671 -0.9676079352770691 0.7206976996099329 -0.35447979261869916
P 2.5647935992678397 1.5191455582537283 2.618337541635974 0.3160626262930815 0.1104669331040162 -0.4084464766431417
P 3.311289548622962 3.8397798877467073 9.23290442744377 -0.617237279730737 -0.47581760699894826 0.10638530683547485
Ni 3.3465702262640127 3.094575932864446 1.1280699055570769 -0.22052326103317504 -0.5437651786835151 1.1416561926771565
Ni 1.437297708397991 7.011930860174501 8.195467011304691 -0.3133825083577571 0.4113824193430141 -1.1937819668381182
Ni 1.517124509756896 2.458877738089094 8.04070545337305 0.3273351138831072 -0.8593446946925909 -0.0526389663519545
Ni 2.2136018159484037 5.136231741538964 11.23344989484505 0.4614806215509859 -0.8264325173456026 0.5488305090215645
Ni 8.57491194518601 2.8719099139988216 6.893835182529457 1.1097390322535856 -0.40236684610796514 -0.17929870716574925
Ni 3.3238588091375085 9.011855247375612 11.590774960497795 -2.5925073379932835 -1.0821639508487944 1.059857059821478
Ni 6.877323493166294 4.512493724169524 10.568924534820587 1.3733388127612605 -1.6482869284022192 0.1348178511445549
Ni 7.260399854369548 8.666071383778293 1.4838132008337626 0.31143361216150234 -1.7162581542358701 1.2295133588014568
Ni 0.9703893629699647 8.127540401894029 5.626240948141743 -0.48368801088596053 -1.9682473470878104 -0.37643161429944205
Ni 3.0948804744187632 8.75015253836569 1.500925667626805 0.00812391465871504 -0.2090448280799303 0.3414255305379023
Ni 4.444682471408226 6.915178931221119 11.831994942846897 -0.44351220999802327 -0.765413554460069 1.0493091091023026
Ni 9.102950086244254 2.4507843155698157 12.52603222519109 -0.46982282286809407 -1.3225196732268643 -1.2583428814386393
Ni 4.601825913435905 3.4809007373137493 10.920738321193385 0.2588051873325091 1.3465548597991972 0.47041031994044796
Ni 1.5475140654649737 5.531775849405324 4.525105435931036 0.3429255121221965 0.89704452323621 -0.6862091789147601
Ni 6.268701811129327 1.8851491353513194 6.322250367763436 -0.384421317373138 -1.3124167804649074 -0.4646672468090836
Ni 8.553953949129816 3.0948989314826614 9.438979391571472 0.130893062168852 -0.8298615976318096 0.59912437218011
Ni 6.278087228121466 5.382282860363371 12.706552461498797 0.6826453728229017 0.8260954457211579 0.3283080193193378
Ni 6.850920663260188 8.809049029264248 6.209116871747373 0.4366923588627124 -1.8042549312618281 -0.2967906654373469
Ni 4.08392070045767 4.719462010189889 13.164341171654813 -1.1652483781747995 0.2990416662550527 -0.8197517628913172
Ni 0.2439839276678294 9.148751290307171 2.4916971662593452 -0.061369918467049145 0.9367223014418061 0.7951226514887274
Ni 4.795938854451304 7.5199615439673 5.495061980752593 0.8547187658848054 0.0800510398163202 -2.5310075788165896
Ni 0.8402135370036713 2.3053057379256794 3.879570548951238 -0.9422000367269256 0.18262802864929836 -1.3910377727029204
Ni 5.5483410642537905 9.066469699449831 11.478168413656022 1.4265899587759174 -0.004939603393462461 -1.1021316522199727
Ni 2.1728117047337956 1.0413106309980784 13.388609263666787 0.4667683523124865 0.17587939707155517 -0.7736703951522225
P 7.482973587915682 2.428155955230852 4.368398503464544 -0.4317630398818951 1.4035305058532925 -0.05872553886566661
P 2.4210130715023213 6.603928234176982 13.328719782730515 0.41833571073239567 -0.028033766208764622 -1.2698575669464582
P 6.408993953818121 6.7766494381345845 7.425561044954524 0.6024619211937754 0.38702867308899797 -0.517993726146366
P 0.42903906457527885 4.344109930227955 2.390503544878906 2.6345083650154177 -0.09902783802913913 -0.07319442190580297
P 2.7318484846087525 3.031360489013753 12.333424457736573 0.7196733721104767 -0.2010918917814408 0.7143002807240214
P 4.263526389249232 8.6785575875053 9.547655506656165 -0.48583308225342137 -0.8536502154109751 0.11059445982081599
P 7.469795244292501 7.8524194074302525 4.170941142470825 -1.1578852529415091 0.5532106403671311 0.1446950010489508
P 7.807190372348172 6.714882873799885 0.4121305483383094 0.5772332285339735 0.4668866230579056 -0.9930397450866123
Ni 1.8082662356841477 0.9622128836631452 5.5692686061545515 -0.021979846705200857 0.6627640605179425 0.45961425776620846
Ni 3.2735633100154238 9.112603130662915 4.007061794973565 0.7895127615011177 0.3669846099539293 -0.02914371144349174
Ni 5.987047016045654 1.6070380965360644 9.858705944557007 1.705656981681256 1.3603621979959346 0.4893979167865443
Ni 8.497004678472498 7.79412277110838 7.7945823519994395 -0.5339978148841061 0.30087126326462377 0.5959043225809157
Ni 2.1519921366568373 0.34502158685833034 9.245438619536912 -3.2181809214168315 -1.9355439433175183 0.37465575334594187
Ni 4.3377330146511905 4.902482255802583 5.350321685664377 -1.3292749896728266 0.2553928192168505 0.5204043924703876
Ni 3.330604865992232 0.575786565362403 7.411838217946351 -0.8040199539783571 -0.4958390444261977 0.022635478011328758
Ni 5.170248110303001 2.968994070102368 3.9712412482134973 0.8146352676003583 -0.8674261861491448 0.5150734671757774
Ni 0.7484588581006758 0.34729457427737054 11.490378684277752 0.4787352948663755 -0.12904598165778422 -0.5887651404329731
Ni 3.445915372695066 6.639993337033698 3.5106701356748538 0.42294929824500704 -0.3372505732246063 0.1257259161456157
Ni 8.889909426201443 4.37517316876831 4.753479301807121 -1.6753542169326567 -1.7010089413862834 0.27451591319954655
Ni 2.3716773397029334 5.511279279946581 1.6400467096112705 0.49203406885781065 -0.9913477020961702 2.5594318955955533
Ni 3.215718871759052 6.534455845664862 9.698135948616663 0.6915555308283381 1.2004161843251844 0.38548292586843286
Ni 0.7850730586083584 2.273956414894905 1.2394647461539476 0.5596327418433911 3.2975896996634626 2.9073813432949023
Ni 2.7625610389350452 3.538911289145203 3.591684649095596 1.1438043493684107 0.9225809769444177 -0.7812302097773514
Ni 1.349349798923961 4.423696789756185 13.48599426991187 1.6139465032491367 -0.8294252814253392 -1.0891416677182082
Ni 4.602813366354449 1.9256439335435591 12.835570106705488 -0.8709493688110549 -0.8350932783443942 -0.0018828188450096606
Ni 8.07860149696845 8.394854058328946 12.208404612570188 -0.5347899717680983 -0.49725006584111137 0.5113322549657904
Ni 8.602496027181589 0.679768126244637 4.744942909754291 -0.11141078507452425 -1.3345629775446435 0.6323291410668529
Ni 5.024114306890485 1.288127717974253 1.968980196722898 -0.7353925826179464 -0.34429359611431676 -0.782455083323388
Ni 8.585903126737275 6.501611500458349 10.07262792940095 -0.4174450805973262 -0.30455205455032064 -0.7863749872030844
Ni 7.775121223825375 0.871793573333171 8.167211092183223 0.5185873938663069 0.96297095072569 0.6003865267219853
Ni 6.723603836491695 0.8203943417899852 13.370524109606318 0.5779503092056563 2.0783664099341044 -0.6078560956261532
Ni 4.058588380257647 2.965025801364295 7.094574209484243 0.3267363039568437 0.5627327209249535 0.5248068924134576
P 9.168537262805842 4.441323285778787 11.59136927795531 -0.3597911775292836 -0.33706802490015497 -1.6644769078985207
P 0.4649638937463707 0.43006435447481345 7.242056301414507 0.6779744497097936 0.3916052367160868 0.411896125754639
P 6.406576078447482 2.91650218037642 12.299144152958792 0.8138734497336693 0.7576506226851984 -0.2283288731205229
P 9.219654101271388 0.6366025909063547 0.49302139943093465 -1.993223557417174 -2.965746156387041 -2.534880945729067
P 8.09251812314755 1.1629980532776758 10.51863826423045 0.4839335512378633 -1.051981256617827 0.29526600126270436
P 4.879087927311852 8.894735948410773 13.447863821604965 -1.294260678381171 -0.37600198296119114 1.9346692540220491
P 6.647809903594507 3.066115140333711 8.257706999328374 -0.047935647339014224 0.43812060666880676 -0.6266593443755853
P 0.9382002435318307 4.90334050927384 6.652710254059429 -1.8208202918196772 0.10550059023767636 1.4013553525788445
