# total energy = -340893.2851222218 ev
CRYSTAL
PRIMVEC
9.07185747004023 0.00000000000000 0.00000000000000

0.00000000000000 9.07185747004023 0.00000000000000

0.00000000000000 0.00000000000000 13.27758040481429

PRIMCOORD
 96 1
Ni 6.40196440406438 2.0665509707693235 11.483500006262146 1.4787167613781436 -0.1593196929406611 0.38706569697452053
Ni 4.824976217593279 -0.003614227985998553 5.972441893560671 -1.7326047139146936 1.3469307550813772 0.11922848134673016
Ni 2.4785765899161163 1.5471780630725283 4.805554278097234 0.7931616711076147 -0.2502927789861238 -0.07659856249134549
Ni 3.400921403079919 4.114096400297012 4.683985038709758 0.6918432372720859 -0.1357421627310372 0.31461200988948396
Ni 4.961117581513662 4.456940034952779 2.7229660778257823 0.6838669039348287 0.5853036642469339 -0.5855918849113142
Ni 7.153340992770028 6.1119461950172225 2.7184256131997975 -0.7004556615314452 0.4021788984668751 0.6450779560920891
Ni 5.227167943324353 4.662599042087787 11.884801782782814 0.23672352494212132 0.8122158595255883 -2.0996343181739454
Ni 5.760239355686957 7.98591070515712 12.388194613679065 -0.5183904473641523 0.4563458714275818 0.2767360607793169
Ni 1.727118354493917 6.542033882236613 0.2727617219111981 0.49897553317265037 0.057134026008830635 0.038639309638752804
Ni 2.8763412492386378 1.6094200766567053 0.35535191163140595 -0.5769846028582772 0.5650112325464849 0.583870274234517
Ni 0.455877163420688 0.11582856802819008 4.582358463432774 -1.1417747205328916 -0.45083496891168157 -0.4307263710872647
Ni 8.642205156510231 2.6208414575778365 1.4703593890267488 0.3099038057805372 0.8953475951497611 -0.18630110662551141
Ni 6.923342192245377 0.5000326149173013 4.731930712225824 0.2524031404609072 0.8143411333987072 -0.07024459524885968
Ni 0.8446924354234615 7.351914879279874 2.5387266331851044 -0.7440584858230604 -0.36102993503239117 0.7071425866333176
Ni 7.62213829549207 3.812683938362269 3.911747713925285 -0.4779588217116672 -0.41885970155666574 -0.8543649820898124
Ni 7.415916833198597 4.176909940897048 12.819623121421374 0.7633147629495113 -1.037103568175046 -1.2140790265242576
Ni 7.966388068043995 8.72263624417053 6.7988245992046625 0.301459531667926 0.37878237391980574 0.6833107743210425
Ni 7.1321763494684856 0.9237328073451724 0.5286298309822192 -1.695689843166215 -0.4948162595886382 -0.7886771529736998
Ni 1.9011891541810162 6.395396379310708 9.205253614447466 -0.33537392502718366 0.455388392610319 0.11682012901555365
Ni 8.702723517189439 5.258393276476479 1.2592028363106285 1.6757841053812235 -0.5668889091851721 0.17077267197260912
Ni 6.528698251866588 1.676588108806136 7.15765103221819 0.6688588605617707 0.6334264878960898 -0.587865254326523
Ni 3.3424351384570956 4.338570439668368 0.12270594311901714 0.2708387214582755 0.22233794564441065 0.6569538815940686
Ni 5.848490384421378 5.3432514305453305 4.807148203441461 0.03876349392144292 0.8283361621262186 0.6557966280611739
Ni 5.366665894480729 2.8400901070899174 9.364770433316448 -0.21875048540346842 -0.2327971933045217 -0.7657999912652101
P 0.15041139560204825 5.502399024818355 12.377944322008934 0.6207283236031309 1.3469580087748867 1.1587558284719204
P 3.8086288181068944 6.362991704697287 12.668457854469837 0.6709044302368897 0.007612265129619148 -0.6406299476230645
P 2.180067122347636 8.495594869156509 1.297766394909226 1.5414959014878935 0.7983954087027282 0.17658285089648298
P 6.311998794282383 7.6222017984938315 5.732887705642313 0.5931702114792043 -1.4935222018220922 0.9090078662456732
P 4.784733458190946 1.2375011390513269 12.64171674042785 0.41508377945400127 -2.0683308800749733 0.4965391558170158
P 4.211346711566853 6.277153790029822 7.897053676348739 0.40274556960362257 -1.4883298589878753 2.3204661115864744
P 4.549463908520047 1.047581804495906 4.0591418097578975 0.3407076785352713 -0.22564155609634687 -1.8458216989600211
P 0.05983797137461461 5.437335663584465 3.607239934247512 0.8454365692519311 1.0743974195294979 -0.6917105683489635
Ni 1.3995698714054037 1.29630491868296 2.464770130147313 0.6275404614289579 -0.6291443155809681 0.09637214557384693
Ni 1.9195596654050298 6.092604995051989 4.87012322310312 -1.1950685468600257 1.2678893874764938 -1.0040785193992774
Ni 6.0898562222614325 5.964709949503275 9.037119438239376 -0.007143038802684473 -1.3396912999101442 1.081515518631518
Ni 8.689034084381024 2.3777066075458406 10.097719358096498 0.22739710533487287 -0.16202706456949514 0.9479706206621158
Ni 2.3395957346312324 5.12997206319888 7.200550938651395 0.5459896971386597 0.22866517341401907 -0.9017959218782662
Ni 0.6182389167686095 8.986926665646674 9.18006560239143 0.47972465536283826 0.34133785592010246 0.2441038765665925
Ni 1.4047680456924947 1.1662689147891265 11.441158019058708 0.48288222715521356 -0.45899822144876434 -0.35165620712697504
Ni 3.9659166816140297 6.798468075209056 1.6935951198637453 0.004602274658701751 0.9727455136139505 -0.5755900365035957
Ni 5.77178783015025 8.159972432986825 8.038021268403035 -0.19607361263124296 0.2769962564192391 -0.3620308654930797
Ni 5.391976376611591 2.6714261344099848 5.2451220562939564 -0.15919679420955163 0.4045818514814129 -0.3897630413010255
Ni 0.8138363268672947 7.359453592774765 7.02986757051543 0.33625992717656283 0.06528750835390047 -0.07138410816994158
Ni 5.451759916841838 4.515598664866099 7.151530250034071 -0.7386897653119794 -0.41059926132008645 0.32926806923976193
Ni 8.256424420805942 7.14455943481208 9.257859501107125 0.7276972708562177 -0.1481096831574546 -0.6693298866609182
Ni 4.606153945378743 0.4948054106865474 10.441143591625515 0.8743835913035845 -0.8714196235792541 0.024798032880286328
Ni 8.205658306825903 7.067720802680033 4.95187335882859 0.9988105861321185 0.06614548547882157 -1.3993468067892478
Ni 7.410818449342847 6.030208759892104 6.964423191270969 -0.12152113403564879 0.03853080908534655 0.2855228058330115
Ni 2.3389879201857955 5.180239225022218 2.469537391208162 -0.9994441059510595 -0.41520025042720743 0.03697889121719438
Ni 2.367455408689971 5.260525162964204 11.268231180589067 -0.5240504738634072 -0.6418044275471398 0.770640350076647
Ni 1.0124192852345346 3.3049320799879243 3.7597723301084125 0.22779768320740124 0.968435830495003 -0.2833507378823572
Ni 3.6298950837189836 2.628053584206523 2.715769373354666 -0.7933958986056078 -0.9444253265130187 -0.3517778203065038
Ni 1.174642239164319 3.281508544195132 8.277707905439353 -0.2765843656928011 -0.2759819562221118 -0.7434658465443841
Ni 3.657791045207301 2.918117152540654 7.161754233317757 -0.7305856481476063 0.31107520038081904 -0.2598523976501009
Ni 3.8920445468500087 6.688145217433633 5.892908919782435 0.7625030656814933 1.4999623010204812 -0.30220926534975695
Ni 0.8859222129103246 7.327865385326856 11.29862371723237 -0.14518659597338868 0.6203506285487381 -0.004252090408134612
P 0.2804909444113757 5.483456986578482 7.9781261443268345 -0.37891684261514097 -0.2669396435141854 1.2595302168785212
P 8.677032017048003 1.4745306290567741 7.947255520798836 0.151505596212881 0.07023122551242097 0.3274659830340167
P 1.7553136872762551 3.1066031336277327 10.368927070836005 1.3584464690304605 0.8775100527477081 0.2756261155445898
P 3.852337027033955 6.1080634400523435 3.8036021019245605 0.8979832330003953 -0.5178042358433791 -0.6656210703507633
P 6.8713241619448855 3.9912543793170774 10.457900219419034 -0.5016916465522328 0.6714749580283791 -0.29237273887530935
P 6.4250069218466 7.894339376616283 10.165647611895594 -0.4331851170404024 0.5737624963765537 0.7318161781205977
P 2.088532081236378 8.399351534057466 5.5644351072396745 1.4375935089752725 -0.7879050506943656 0.9900444099037145
P 6.838075804593768 4.0392807923639555 1.6423572692991875 0.14831537141035747 0.03226348801939605 1.087751986459533
Ni 5.339713406161446 2.933983831123765 0.5646822994539984 -0.6775265635390977 0.11922359625072369 -0.02979728586709062
Ni 1.6505700217984958 0.8904862643655351 7.036971742041121 -0.526585581580435 0.5003603293353189 0.1673559329815763
Ni 7.003020315741926 0.8401347342684272 9.368872727230276 -0.03752910729370956 -0.7507868056858297 0.03775793547506401
Ni 2.8680586434373914 1.560023813143246 9.245431056476558 -0.568762214948485 -0.1472391076270432 -0.190723146952607
Ni 6.148405989886018 1.8623978919618147 2.652010545214116 0.8179769303790816 0.47300584858176603 0.8813880476458755
Ni 4.183314672217618 6.802759063756689 10.387130659883958 -0.03833463391414043 0.871895534774408 0.539351880107168
Ni 8.085946076647094 7.482994146774082 0.330587555315696 0.42431301136175315 -0.206380908094522 0.028145609196280556
Ni 7.800091850144047 3.7721871669528877 8.298752800223287 -0.5689259942198589 0.3440444562179881 -0.43740609710028533
Ni 3.2885483055333222 8.647911354811418 12.427921184395647 -0.5801164636190396 -1.297045954435792 0.15339021483010357
Ni -0.2107918640488584 4.865046611705115 10.413341070268363 1.1122684835436585 -0.49429998207385195 -1.7544794025005976
Ni 8.710398308545248 2.309903545378789 5.727921770904524 0.9082239368917971 -0.8420434844099821 0.5892353952011724
Ni 3.962224435654438 2.8088375583656076 11.52452838851485 -1.9807310813771177 -0.052957011813005564 -1.3571799436132108
Ni 1.0348630604287121 3.443350480114345 12.458221188093527 -0.205333183556298 0.20740420715271374 0.3822885873008513
Ni 3.2058764690965633 8.153885216675064 8.124750946652387 -0.021654859265614317 1.1626412795692558 -0.7179702733764409
Ni 5.433480124191771 7.8245314339650305 3.7681510975980412 0.3336492290265931 -0.13133709168480606 -0.8956754108028253
Ni 3.1045256782843746 8.274740500885589 3.590509614840438 -1.2355716491803947 0.5959842838892315 -0.009064938415745679
Ni 3.648292810515181 4.506191148747925 9.363562061911493 -0.07489752063983876 0.004180099519618607 -0.5032181104990882
Ni 7.395995034360111 6.384292425859749 11.462336270146345 -0.9800446183785251 -0.3710636651193093 0.25905355589788936
Ni 0.48213565464928443 0.4353167058216239 0.4084558432620278 -0.018774709504341857 -0.8032108278135006 -0.2152674119508744
Ni 4.622365354542849 0.1919986042702575 1.604741719798323 -0.2186309291064686 0.27606140330979556 -0.37022497126809784
Ni 5.787055766145318 5.719978452569834 0.5397201766470867 0.3790999051602245 1.0484375051306267 0.5253666215716694
Ni 8.126805722352259 -0.16628261011385662 11.500004436420097 -0.3403659789251364 0.6138030572382075 -0.23919126975632357
Ni 0.16299315462258385 4.834801039151603 5.749683342422629 -0.7055402751432043 -0.8588171043238952 0.7540909303583981
Ni 7.9184614454284565 8.85015027170867 2.5097810577962347 0.17861427950421496 -0.2372382597950108 0.36241036031968554
P 8.459198577289476 1.7064435914916813 3.496903468685998 -0.5571349151222017 -0.18555831492221592 0.03159680096967462
P 1.862670047683652 3.409829967041391 1.3243641736043796 -0.8194985092299305 -1.5396354512403871 1.2112194455882754
P 4.588119092878329 1.1950085590151391 7.902484090185132 0.27593001993825383 -1.4444460131207317 1.263054942202328
P 8.536037209421522 1.9259643967255995 12.461301083678984 -0.8364883589197079 -0.7834763254990508 -0.6242831308339248
P 6.266929806746136 7.777049332361827 1.4503368925711828 -0.3452153365976377 0.041480635742289856 0.2846578867295549
P 1.83573570307916 3.3491573847864755 5.927351133566677 -0.2731856244238972 -0.8708899763280292 0.432730546001487
P 7.200197136213006 3.7650113277537787 6.125280011015768 -1.3835016122268755 0.8813451102230822 -0.45796026710255316
P 2.5585268691345027 8.49779933050339 10.224360672953281 -0.47726899473349416 0.16242944221423639 0.4584878574712491
