# total energy = -381176.4628901549 ev
CRYSTAL
PRIMVEC
9.16641376659655 0.00000000000000 0.00000000000000
0.00000000000000 9.16641376659655 0.00000000000000
0.00000000000000 0.00000000000000 13.41597310272624
PRIMCOORD
 96 1
Ni 4.104353511696717 6.819371993330793 10.008960474641082 0.2811838121380254 0.4799987349598315 -0.8166726097453613
Ni 7.381731489361242 2.490588002403278 4.591080009557698 1.5541130760312718 0.7012779003224245 -1.2609111563864477
Ni -0.08463166674735002 1.8668135328862114 1.2809394351415508 0.4347092669944126 -2.0795144074956187 -0.038219191382198696
Ni 2.215953073950657 8.578938482964254 9.711044688030057 -0.4602418640478783 0.10502056527746431 0.7414339037160198
Ni 5.95591413176476 6.905838776151579 6.0607329919613 0.7836581024925536 0.7500522415126502 -0.34654202582886123
Ni 5.7660410331376255 0.23363447548123345 6.84237419250502 0.3925424038183756 -1.0294018286554143 0.3127788133354871
Ni 7.8029832089957205 7.1444221985261605 12.828152500929392 0.7384344547680638 -1.0551123460476408 1.0120854488641537
Ni 9.10887637284214 6.77018501605778 9.97563506007273 -0.13720229221633146 0.058296421748047986 0.38974272958605133
Ni 7.722841251802661 8.579048479931693 11.051434734148048 1.2215833053211025 -0.38195665788272926 -0.9983488160043515
Ni 6.529034997776296 2.3136395474501925 8.383789196465642 -0.5460259496932338 0.8558168840449906 0.6506040281166408
Ni 4.727467999409152 5.118314723960777 11.631407494589622 2.484277778860218 -0.9018447728383306 0.3097477398186472
Ni 1.1815140929150887 1.8964852148528057 6.622486588029441 -0.28750538348067906 0.5103426373590114 -0.9446148168160055
Ni 0.8949609930404828 8.146320410027775 12.230054990178104 0.10218695248341111 -0.5728407558932328 -0.05012725567369432
Ni 2.3547784132722733 5.369098643307103 0.6417580570519015 0.7220416152323371 -0.4056804838622304 -0.08860381448233771
Ni 5.176539785391673 2.486435616882466 1.9084226357440925 0.7513341935488674 -0.761194888393031 0.27154654615857754
Ni 0.7229899008639997 3.920246087446162 1.5751290744805895 0.3913188158239196 0.49489442112474125 -0.5310688141627693
Ni 7.509208808208763 5.367292859758317 4.909494647692323 -0.7266127795427874 0.5219385697267269 -0.5954456377769423
Ni 1.73016063367151 6.696147890557569 8.199426945907188 -0.3222078199588709 -0.39190168491058314 0.12580176368887366
Ni 4.361123099354499 2.557319495982767 12.944844617119546 1.1086308867910712 -0.030142842131967447 0.5042632639341509
Ni 7.260578996141447 9.010254925119376 8.786805252181573 -0.45566555753110555 0.5914565712222072 -1.0096580703695837
Ni 6.7649326608625815 6.494890105800527 10.649358235862323 -0.6810777712254658 -0.7262176009868976 0.2782671527118627
Ni 3.3091579348403615 6.757223706727918 12.273831033294528 -1.1049259271356584 0.2255659656634051 -0.3363414311467756
Ni 7.251880069299834 3.383396721447543 0.9760177583460746 0.02629441492015471 -0.5764950648163685 1.3481366024640202
Ni 3.309717086091508 2.3632023476952884 10.95408833460618 -0.19843131423014213 -1.302694153860505 -1.2666164343013413
P 2.3946339811409025 4.035220417661482 6.235757416625603 -0.3502690969714613 0.23277276782448944 0.18125583089212008
Ni 4.110284181524455 5.530500860195516 5.042473648194572 1.3024054189754926 -0.01152342725856725 -1.9233674558559843
P 0.7246545216379057 0.7885838424718936 11.026199596534816 0.07495742734349671 0.4401276097965065 -0.6689064259702544
Ni 3.711820166977697 1.2985416998559318 6.510973495722858 -0.1430060433823021 0.2647680897841634 -0.592413792929154
P 2.304729793087656 0.3174695808560481 7.71100466146486 1.3832853824510112 1.1054622592551027 1.231395149205202
P 6.403885948072895 0.8820244330282944 0.5019519114372902 -0.2694909491811294 0.7995997134234745 0.9302096971342689
P 1.8935977944575395 6.080751523393752 10.57506078420584 0.21571992610726073 0.6325538554831494 -0.02402901592474571
Ni 5.9491034861975125 5.5421055402603 1.2212578305334882 -0.6968257780883419 0.8847646774275922 -0.043938353254163044
Ni 8.138437294028 0.8366305178491258 12.628979158705315 0.7495310789018576 0.6758694875516489 1.6865292597128696
Ni 0.8240651976020428 2.9713022493523376 10.336725771649395 0.533513676158836 0.018394700457103803 1.2130289879931884
Ni -0.10204785325848047 3.002330560584009 12.758979991314158 0.5512553164129732 0.9559153294304893 -1.3476174967357566
Ni 3.0703820177727628 4.801312630216344 9.188868917487763 0.6364254226234136 -0.8107832408441198 1.8924612531954312
Ni 2.468735271538786 2.464023734766827 8.680255773030662 0.740616292910731 -1.657683539125771 -0.19789472500038174
Ni 5.986419957401098 4.3965146236279065 3.34956623747037 1.2039756195416684 -0.702214810314397 0.47301124789840476
Ni 5.844074715121443 0.8525974943142511 11.6522830857267 -0.22624216579482329 0.0894983012721491 0.3595217259179808
Ni 3.798039456621746 3.30122898677082 4.743915295965425 -0.17796456173535802 -1.1454737666510337 -0.7687449328261471
Ni 8.365406869923842 5.6980720736744495 1.3808524305903247 -0.794821832418857 -0.2950094051672081 0.2794298055613962
Ni 3.8210196564024845 8.946163358758415 11.307813832571423 -0.23068168962341562 0.028465968650176785 0.29657160744800537
Ni 2.6122904804602665 4.382572508005049 11.722716893901898 -1.3595368738811617 0.09781247756479929 0.3533204822032754
Ni 1.8504331511517955 1.2666792449545163 12.990445693254058 -0.025206324062298523 0.5568006717112347 -1.6130476455839513
Ni 4.401867809376591 0.9026057822774738 9.012448447978382 0.6124691689181323 0.09862366061218499 0.41146469464417523
Ni 0.3724323155609898 0.18431641848868868 8.408139775132389 -1.1104229456944874 0.3122532798493203 0.6791059922110755
Ni 7.832334066473952 4.958314968407208 8.44145144007981 0.09362903561107101 1.0020200942083517 0.5259919138604942
Ni 0.31925244836995065 6.090000435072557 3.7588200378814705 0.22837900963216798 0.4039976968431687 -0.08525392417349834
Ni 7.87286794897512 4.492056156262387 10.896762498384094 0.07709761361495109 -0.630819646400862 -0.9705654752434962
Ni 6.413409852170296 -0.3355017503848354 4.456732463452233 -1.2031742066862958 1.714628331941931 0.19258796807548767
Ni 7.494194222153379 1.0870266978852292 2.7012661107800504 -0.8359098607084186 -0.3630575069853812 -0.025922376292716647
Ni 8.25881064206177 8.139665593497732 5.686802884360354 0.045802403046095314 -0.8339524798717315 0.9262494269349403
Ni 1.7508583963778956 0.3030526449904134 1.5952126874521089 -0.37639613307581626 -0.12425987312305052 2.5673683768338105
Ni 8.426015198982576 8.59423722785219 1.2798587149364655 0.5876454250062332 0.6174195709448721 -1.0851037502034087
Ni 0.2707153698462208 5.364799595163039 12.287099417491822 1.219354930211216 0.8223115531986934 0.3119766291491659
Ni 3.8008077136356198 8.010299993375845 7.698501672832658 0.9066522215293031 -0.3084233645802688 -0.34784763201416224
P 7.122532802005854 4.931356544970769 12.946293827165553 0.5651783542519686 1.3326030256047954 -0.8257288064103585
Ni 1.0157853286407525 7.067387655663245 1.4230857662384209 0.03063546549766982 0.2879239590753364 0.8091937848698129
P 2.5281519667836 8.063446861476654 0.29849327069007847 -0.524080041549762 0.8076945746164671 -1.2054612029482594
Ni 4.233700778990697 0.34151216801396606 0.22748381171861848 -0.21833885178734655 -0.05609812854514855 1.3403183919711819
P 5.787307113509111 8.363051101537863 10.202123399236028 -2.2645505313657774 -0.02614631937806465 -0.3528666824953084
P 5.196962555679462 1.6616325229571884 4.260376876877377 -0.25680358352144805 -1.079540140072702 -1.805042203049814
P 8.487485170952914 4.173944926429613 3.38287790241779 -0.24754684080987044 -0.31866663957483177 -0.6791283608085787
Ni 3.9996547315229636 4.648508509616057 2.4058325890675594 -1.0919171735808162 0.5074971974904163 -0.46809375599212927
Ni 5.544864630860221 4.79828771361178 9.342051610984317 -0.08012225937388782 -0.7504605326946623 -0.8246751683348635
Ni 3.9968681416811824 7.130993402084683 1.3463738811466586 1.121030803117321 -1.1726125318493548 0.5254823212139272
Ni 3.003531360811882 2.0956713900564186 2.6654859305550263 -0.21827714531147568 0.9874913044645574 -0.5918404369241872
Ni 4.279661178552175 3.4997551801698004 7.348747065391951 -1.2436315433703937 -1.087973615552036 1.56338704513403
Ni 0.7121157839912872 2.382020995541262 3.446550563661088 -0.5972754918968294 -0.8061485702855857 1.0564863435770322
Ni 2.7015163538809737 7.151278676163173 3.3977559089052725 -0.4530432894169101 -0.13819962313259423 0.3129819304852287
Ni 7.553363424221456 7.4960825034277425 3.0997475415133198 0.6532147262666105 -2.6846847287594926 1.1614156346922708
Ni 2.0831317357684043 6.2882791352948 5.597854753282428 2.339751442178648 -1.2978262842452424 -1.2233928477260156
Ni 2.4324362722840083 0.5822258649912763 4.424775594487099 -0.5325839652557149 -0.08584836322438764 0.051538791309240266
Ni 1.9502553991024327 4.49751933897851 3.513938372479628 0.6869936224892684 -0.07592081969803054 0.8855267524045976
Ni 3.8362084043229814 5.646107672973608 7.205223022277912 0.22769561041189817 1.980187293058506 1.0907298381409343
Ni 6.121707060936768 8.20006309503554 1.696262318231083 -1.2542378581313303 0.624535356054047 -1.7219117529772217
Ni 4.313521911695394 8.166614850520219 5.282700608590965 -2.6213949675619115 0.663097018377329 -0.3048934970501394
Ni 5.220071085255546 6.867431501687561 3.565107128449329 0.49166203023037264 -0.5185341720308683 -1.1706260975469451
Ni 8.263888835391858 3.7230215248285394 6.48722698373563 0.40621450198882947 -0.904606394743868 0.3152851246971086
Ni 6.167099142833146 6.961029754563957 8.31531425095225 -0.27242483499847275 -0.3680274493961468 0.06479848453262388
Ni 0.3378868512954649 8.425153556070972 3.539415503421226 1.6666363774436845 1.5437391889961156 -0.20424380714686116
Ni 7.917792543759883 1.2343768021833461 6.847043563772794 0.7193645826208063 0.16342085959322825 -0.5516412389974823
Ni 1.187848084956768 4.228631752074563 8.127543927685986 -1.5772429771805159 0.9806459994079498 -1.7519062424567826
Ni 5.805438280308592 2.483942352287188 6.111619422381242 0.21197588568379622 -0.47096156445822757 0.467995025630736
Ni 1.5253921123703824 8.272037777396276 6.23790419077345 -1.1649383031335485 1.2063227796176064 -0.8259859167264871
Ni 6.428204444290803 3.0505458979779805 12.069961737202211 0.6393968465469118 0.5402126854455663 0.444523424871357
Ni 5.576809583487217 7.649519106590803 12.717416720526042 -0.5199043129055174 -0.3395499107817443 -0.498325044072845
Ni 7.802387392088761 1.8325953095988166 10.416095000146196 0.6519235182590127 -0.039475175276486855 -0.1846679418974626
P 2.5900435937957855 3.23318669599602 0.20504534700251517 -1.894337387172221 0.7485638298925817 1.5180975771686114
Ni 9.315001523408347 5.8771288038367775 6.211823909793728 -2.1531376894087244 0.3126798258637776 2.179890532022536
P 8.646476620971628 7.31578830738173 7.890309801445319 -0.4833486252686708 -0.40575915961896575 -0.7451820579045424
Ni 4.173404108006372 9.066307546443356 2.8925105049345876 0.407605211688769 0.8695427182715154 0.5198104676401306
P 8.753146180145324 2.8612869490857125 8.618783967777535 -1.3553580599131239 -0.4309901662716125 -1.225520692702296
P 5.310195267243669 2.82315466704029 10.261864585534788 -0.17171909504627847 -0.3743978716988649 -0.5957148322779289
P -0.2111400956400155 0.9308310041222491 4.878865992109013 0.6265099632819147 0.07533923616294766 0.24331197679291644
Ni 6.051180671980643 4.744224204115649 6.597586941166895 0.31524552970842484 -0.14959140990930364 0.7280112025522107
