# total energy = -340874.1830583732 ev
CRYSTAL
PRIMVEC
9.19918929269371 0.00000000000000 0.00000000000000

0.00000000000000 9.19918929269371 0.00000000000000

0.00000000000000 0.00000000000000 13.46394339815972

PRIMCOORD
 96 1
Ni 2.269182366966493 5.402067396789399 8.821414254420487 1.5952671816720783 -1.3571354635285207 -2.110890864924371
Ni 0.8745190693682148 2.9498855615976334 1.6635243169534661 0.2917268777611943 1.997517042586205 0.05416851562260349
Ni 7.634830174216664 4.715163948723189 0.6794015093773386 0.24518091168085515 -0.01849934435576814 -0.3967973224399876
Ni 8.725366441230257 3.321091239063385 6.059905087061179 -0.3982466532920045 0.4259425765453761 -0.05787244683675194
Ni 2.7612285920925865 5.988396110722652 6.367677756275418 1.9730080017012472 -0.7021641595821196 -0.3578739059019127
Ni 4.704594080478539 1.9615154884265924 11.456388576083388 -3.5905648480094614 -0.17923031582165908 1.9989630310041122
Ni 6.138444083689144 3.113999094656441 5.827396503164988 0.07927970886793444 -0.9901040594970562 -1.2305934792395128
Ni 5.820014153934063 2.504819595066345 0.7871286130143996 -1.3332604566831359 0.9783008962145411 0.3318797958309962
Ni 1.7163938963926804 3.7277321928375744 7.082087699588215 2.7556649166227962 0.12647102184175638 -0.7394173875066234
Ni 4.003247905568029 8.26117536061661 6.262255049501094 0.44128383488813683 0.4066225360605255 0.012206826478837042
Ni 5.07071260638703 6.044915928385954 0.5359281968411792 0.9667515008140448 -0.7152765285943617 0.017430536771621596
Ni 3.1608873613605186 2.2528354079841217 0.9803649388398875 0.5470639040394448 1.6040269301425796 -1.9544937449471436
Ni 5.753136049374785 7.880338132191635 8.094724313614403 -0.1886410676125977 0.5511678989054895 0.04386019171805995
Ni 5.998460023568298 1.1197804890760334 7.0768910776809895 0.8418033433747181 -1.6845266274605442 -0.04923302599419908
Ni 2.280966528168754 5.451844208862337 11.404862078248803 1.199140145826238 -0.34888764324290233 0.5017258422242779
Ni 0.8647522903296198 1.1322269918915362 0.30504694949196626 0.43088783636579336 -0.033680422971580706 -1.5150875866976938
Ni 4.7112450941781745 8.573901793146554 3.3706040344099337 0.9652042109315828 -0.8717009022650988 -0.12054565749625691
Ni 3.939157155297809 4.102240379180463 2.2038184489285975 0.5921906211747543 -0.02746812351328173 0.5234958869115177
Ni 8.113868745993814 1.1409846198888447 5.409367873237575 -0.7551322271387189 -0.31480227152341916 0.8254783809624493
Ni 7.879638993822102 8.654109522672323 10.716544714822103 -1.745704484521445 0.053587960528785124 0.2729190010260719
Ni 6.583491651842286 3.89882791040264 2.7485567091448004 -0.7456996209709094 0.2935312779597848 0.4207240084589141
Ni 2.6095247650929903 5.156945804755487 0.31217356126666684 0.5045861944912083 0.8440443168900947 0.7976906693262198
Ni -0.06204025102589158 4.900500010972954 8.02667791204288 0.6465684245946866 0.4837029232842961 0.14160530638003355
Ni 5.293765343835288 3.1061613855664127 8.292590591300234 1.4016458872360698 -0.4634745120525631 -1.0673363989176585
P 3.5162888319991947 7.41178663595748 8.370075360860454 -0.26551062437714273 -0.10028227926153052 -0.5313215536035236
P 2.324294708701657 1.9317009166416377 8.342810804286481 2.908663552441436 -0.8709007749613065 0.2467978784589879
P 6.850102549550267 5.690544766923432 4.188578448304349 0.36369282657653496 0.2366502485020247 0.022058265351620077
P 4.0800795327040795 3.974482041337373 6.444099099578823 -0.01949230439665675 -0.03128415482526225 1.1543607847280182
P 0.530552190747033 5.157801329339257 1.6271442839272519 0.5867169996546927 0.36138371882738407 -0.7054004071312302
P 3.5591846506456757 7.041335291995699 4.471334842754006 -0.32501469328004673 -0.6449751119656376 -0.4699912301251583
P 2.5348089514436833 7.309353665631817 12.603408783922898 0.26324933914679177 0.26838048972577006 0.2990858892294268
P 0.43229013274697914 8.733102959240485 5.567219518294527 0.37731350268376307 0.07986823438155277 0.21617861091123414
Ni 3.738614833510701 1.5683237490768411 6.511485919293827 -1.3133310647490606 1.1418827068656656 1.0093446528942231
Ni 4.968095652279912 8.022263221206842 12.671078018742437 1.2386402608033893 -0.9545102215528465 -0.43044149285699423
Ni 7.957841300130001 1.9099724320516767 1.527874914723726 0.4320381479201527 -0.8614242029294389 0.2712043323278104
Ni 8.711328478705159 6.78490789659131 4.88939015032973 -1.1672258136161444 0.3493085328304048 -0.13060561283542024
Ni 6.426608681394701 1.7893894616853732 10.32684406772548 3.1420091620502593 -0.04946391105808255 -2.875168506007784
Ni 1.9232560610728042 8.870722827769619 7.419170825026219 0.33890610655015824 0.6817064059484002 1.0828990292426062
Ni 7.00498009677998 4.5052936492162585 7.4419388179814066 -1.4649916984825673 -0.25617134925408785 0.4187851395649885
Ni 8.485387195888041 8.646409801418388 13.595350902210908 -1.2639116337756684 -0.3698683592596275 0.7674400979717945
Ni 5.3233867326497135 6.188368082787246 2.7598661921909047 -0.4223049797927888 0.6637215393352053 0.8023487369235213
Ni 0.7680743326879025 6.845659341228103 6.978846120543053 -1.2325256632652193 1.7247751905679456 0.46538509881171464
Ni 2.536354415207914 0.3650541797327683 10.716504238390183 -0.2874526758658727 0.7660357614251 -0.8862276351263642
Ni 0.49935682068225035 1.614080515524964 3.6163208139768557 0.2467899080391879 -1.0770441131237258 -0.09079902236144362
Ni 3.546811741342755 7.659336813906612 1.3545134368900291 0.8228100901016668 0.46918930304915324 -1.1075487094704861
Ni 4.926202545242366 5.654502344136191 11.623273824809832 -0.38167512208656845 -2.28761075561935 1.0969308247453236
Ni 6.432422568888714 3.585052770318398 12.035149117166446 -0.4945264962623612 0.6709052015678381 0.6700845054387556
Ni 1.5964916660177644 3.024150614982373 10.485785816687558 -0.7477539323967767 0.291568240696143 0.44132600097998187
Ni 0.7663816818985068 4.139395903845514 12.78616815331337 -1.0174109748421252 -2.6894057883842457 -0.35994981459433495
Ni 3.3651829522893304 0.34685542399004193 13.025880622172474 -1.4707365713861444 -0.4737177870471261 0.8211792393664632
Ni 7.932681518015884 3.8095221828838675 9.803757018911028 2.1344930777243434 -1.1242477673927218 0.03046782957155398
Ni 2.5835830519076857 6.0572244433653655 2.6579980520743116 0.29332378993466907 -1.2159168510639446 1.030439011670677
Ni 4.560442787707714 1.6785944284925323 2.9916885165822653 0.9778573809192191 1.3141790145716528 -0.6565885278348499
Ni 4.478018053615398 0.842427698287741 8.934888091471327 -1.250818548037136 -0.1635537856266667 0.18327826063878758
Ni 4.730250618802586 5.4508782940096925 8.43542915979037 0.3140977892572268 0.46661819988786735 0.17661653234789582
Ni 1.1722434643582296 7.556563473585255 1.440453181127063 0.4984818813656835 -1.3359801696071443 -2.297032563153883
P 2.4138212167581767 2.4132508670356625 3.1441135600051697 1.6577416460572159 1.0848055022366996 -0.01163861268019286
P 5.472385998061906 -0.08771610764699239 10.624707370470496 0.39480394615904263 -1.305577646055887 0.7828245508476648
P 5.060299124356618 0.35884012751408983 1.0681932765935682 -1.3677322652077606 0.13899717933322514 1.0627528933120343
P 7.081526549054775 6.920871911087341 13.400998714750889 0.10224608785612069 -0.5038233481832549 -0.01823863449521375
P 0.6961311546251383 5.164691521954786 5.722081426902816 -0.26412377133194515 -0.9764841547207764 -0.42899499021845466
P 5.122117674925854 0.9013834612175218 5.015373044681769 0.7767053253238043 -0.5226520508539837 -0.5026324131989472
P 4.526231003545959 4.070751554984258 13.34240447995167 -0.09214165243226712 -0.4017754923808694 0.2649696642720082
P 8.045675157397126 2.5158218251974174 12.882219646179228 1.0233795337207343 -0.4955600797331982 0.6206717593335827
Ni 7.289446620478271 0.24243910850028275 3.3825464216642462 0.5370782535816427 0.7416956420178388 0.9412435863509273
Ni 6.426590283016556 0.680712393820213 12.950279846534364 1.6085399875215844 0.1317736650015924 -1.51839916756943
Ni 3.631370687299962 3.4524188622667227 9.612460802060994 -0.41989045681402526 0.00720731638171662 0.8381726886006662
Ni 0.22774892346992345 6.313201078505185 13.099689395779205 0.338527640164817 0.8041410529372539 0.8225905178916929
Ni 1.2446962774956272 1.6054148794183836 6.021613462545637 0.5188511890506549 -0.7682697929619414 0.2427494194212271
Ni 4.8656166860088845 4.668110096615802 4.56993175123631 -1.3964648572557627 -0.8324162457328633 -2.0007928851239996
Ni 6.6573703392859676 8.199862765446378 1.760316344539686 -1.6184965845136643 -1.004180077974148 -2.056302745265846
Ni 2.8921606501657933 0.5826076419533041 4.323904958997634 -0.8520391621701133 -0.01921873902029593 1.6962891673131109
Ni 2.2059379420909715 4.227901301914954 4.443694039346955 0.6739457881663748 -0.2729853354876331 -0.14407150853233897
Ni 8.836547840364155 7.135461394588619 9.100480854133043 -1.909862222280698 -0.3056612284540994 0.16533813122059912
Ni 5.394965622825195 6.176326344290946 6.056983424611657 1.2353700746925498 0.9471000451317044 1.1017292745752316
Ni 1.7423540079561306 7.210581972557129 9.901155273057144 0.04787188398061433 2.6915691145841514 0.08764684988570712
Ni 6.297396871678108 6.871343477119369 10.233269916476926 -0.3983988625991526 1.2469922323125104 -1.741405342925459
Ni 8.762604758596964 1.6913813013037287 10.928574983923328 0.6445915033739736 0.05519618555616945 0.7006415522900062
Ni 8.447753313391203 9.283085677147092 7.499591055819571 0.38857827696430497 -0.3730174464115705 1.1780702125298164
Ni 6.627758149660615 8.389577641694798 5.652486801810339 -0.07301367335356458 -0.41544167701405227 -0.04405456711705316
Ni 3.9478135922153164 7.366756605446109 10.617180593971128 -0.5342942630786024 1.4236825553211352 -1.0481868225724011
Ni 0.6893467526839461 8.378023460219357 11.870108305849099 1.484483745768908 0.23429640355786746 -0.30947057489786056
Ni 2.4491093060414495 0.40671178753005005 2.019955176849389 -0.9579570424508663 -0.6187043511945667 0.5649479834087174
Ni 7.766663752819007 5.968231488275067 11.568488974205659 0.8073258784231387 -1.3041170023499606 -0.0394602628781514
Ni 8.235794797964747 6.574025686286372 2.513516508415773 -0.0426448312537201 -0.05563661552769774 -0.35994724349117363
Ni 0.3778787692191632 2.4620893618231747 8.471983977408968 -1.7333297650061759 -0.5839738896919169 0.3209775470961956
Ni 1.413565791305074 7.871654097706908 3.641134706581835 -0.008699584656526954 0.842925115683987 1.918534553243715
Ni -0.30264504122505737 4.458193801163507 3.715065829403232 0.19293738099510643 -0.06038724283880568 0.02359964169681097
P 0.6737044515845516 5.140644841718479 10.112928884783239 -2.5734544351268904 -0.17825766749574462 0.7490579959201809
P 0.5373669500121655 -0.0299378409185305 9.6397925127152 -0.381146246166292 -0.13050508270181393 0.06962778760046717
P 2.54638153129727 2.156197926774325 12.20227722448441 -0.5543005309972002 0.41954155811503874 0.2395023732388391
P 9.211607978051411 8.998499563990855 2.2578094095157866 -1.2945548125828221 1.229091954993322 0.217617914460922
P 6.159786202338047 4.598950593166467 10.19337671314381 -2.802131435615452 1.4378724736682722 -1.4662515390315973
P 7.368228475697758 6.5429140288421515 7.51401078469119 0.23244109551668357 1.3800110825751137 -0.29691433549940477
P 7.778503109155704 2.4659622204228246 3.7552147701925738 -1.1024489263500754 0.7654117546878559 0.6557873720897931
P 7.527273255577451 2.201246355663842 8.102035829089468 -0.822698504224467 0.5085546922206531 -0.2857225805486434
