# total energy = -340891.89103771944 ev
CRYSTAL
PRIMVEC
9.08805437265374 0.00000000000000 0.00000000000000

0.00000000000000 9.08805437265374 0.00000000000000

0.00000000000000 0.00000000000000 13.30128620899242

PRIMCOORD
 96 1
Ni 6.304392460413449 2.048147567361151 11.447233411056246 0.08815155743626754 -0.705643633490288 0.09178761152695805
Ni 4.706348965825578 0.33517017455328174 6.149091241934918 -0.24994362317682117 -0.3498055270714814 -0.06911228141662935
Ni 2.9436117484845137 1.6046414221189835 4.880587872168203 -0.397314114175406 1.2397247521168198 0.221844808058076
Ni 3.4738633734573523 4.626419526932833 4.815783682297537 0.2792320877282933 -0.4351964910434763 0.07240869277971401
Ni 5.06688117393406 4.426218775441271 2.840104261125215 0.4149724506871176 -0.6684320574369972 -1.2619231425907298
Ni 7.07118796662567 6.1803950454899 2.631260769851163 1.0778046454388341 -0.4066392482310739 0.3428470934757773
Ni 5.293046496990894 4.352869087970737 11.75795126630483 -0.27754827226796713 1.7704690930606348 -0.6522922144523411
Ni 5.499218100256479 7.839101303535312 12.40410103207487 0.7482128743110663 0.46934639745230783 2.184553227605528
Ni 2.0915975556893165 6.5397548945742585 0.1358309706236339 -1.0937963928814003 -0.33856312138844274 0.8548259808866311
Ni 2.692190722109551 1.8066506964462083 0.2656729133643435 -0.06920175580664212 -1.2699002472589356 0.4199495921867349
Ni 0.8625963233974387 -0.1753794571761705 4.493919328265331 -0.5336607432596616 0.4452348491160848 0.40545294123245657
Ni 8.873176491138738 2.4784851217044452 1.345544624955071 -0.9419017887602165 -0.8712584154110415 0.5706946560845074
Ni 6.933294916447203 0.8933130386349135 5.12890987197552 -0.5012784702742141 -1.122282673246551 -1.018973948453871
Ni 0.7581891186475338 7.2156789443352505 2.2875287392000017 0.1504290753192506 -0.543706814641754 0.33145787780222913
Ni 7.535433052124033 3.8398847664539772 4.0623994180380185 -0.34492891570547046 -0.6949912959827644 -1.2641654016576873
Ni 7.3685763724116065 3.75623831329095 12.772068177529363 1.7202546769897726 0.4505197516641079 0.3407495875168003
Ni 7.991889674958261 8.593773345110476 7.350251219417481 -1.3000346047504707 0.10907648051439281 -1.5278780535941427
Ni 6.866325043200968 0.8693978233482438 0.47292599510954597 -0.4508804774376364 -0.6088390283647127 -1.0702111493622923
Ni 1.8948411768345197 6.591020609729912 9.403597153924357 -0.26787038285857095 -0.244452775265579 -1.4131636580676825
Ni 0.14424832665574994 4.925180228940803 1.3184922132720656 -0.6668168904310774 0.9832911503402807 0.5331028138736624
Ni 6.410931722737458 1.9741617160790772 7.11836951011124 0.37560320486087573 1.029921191493994 -0.33540580670638365
Ni 3.330535666717445 4.080245630562598 0.13766948403898377 -0.6832835206275328 2.081882393507163 0.36893684858429365
Ni 5.9181137940465085 5.537969564433701 4.617647736777144 0.25604176565475906 1.493431441880499 2.530068354831772
Ni 5.352073410647333 3.039445282665753 9.25035256216799 0.0678742952444702 -0.26145728024337556 0.17073050588076402
P 0.11006724506171876 5.628722876177072 12.418959092296104 1.1656880368153795 -0.28519344751805076 0.3020408580926927
P 4.148869529718838 6.15415783229111 12.73777713047648 -0.3739949798334914 -1.465126424288219 -1.3618061295313129
P 2.3672018949572404 8.38901947833918 1.3577417028331782 -0.3588876918784077 0.6745610531528705 -0.1769795721142694
P 6.362428776134776 7.814454499865372 5.755120446281017 0.582774727177493 -0.5372075800706555 2.1238368835620776
P 4.6812568474875595 1.1493753344177813 12.841833536324591 0.4839273805902763 0.13836443084523267 -1.1614894253529997
P 4.0307793501881575 6.184357437230347 8.250788352535151 -0.7604127588113678 0.8463508535360843 -0.05196765131654275
P 4.8455416077904765 1.1195574277654678 3.775503171115264 -0.1990144404271218 0.09413682848542497 0.8420249724672207
P -0.20678595574644326 5.490884354325308 3.7540617242500387 1.2999852395697742 1.1011669743138583 -1.332128657071538
Ni 1.611930041788339 0.9736578016160496 2.479213074865936 -0.8012354492546846 0.7997375245529196 -0.3071977197032838
Ni 1.856489587053123 6.509909723758593 4.525789317612584 -0.10494163241041281 0.15543115651953232 0.205683110696549
Ni 5.863321913764033 5.534561544014737 9.286559371099052 0.3830465485127984 0.4547075644932104 0.7040336086906906
Ni 8.650864503168943 2.2709866624890775 10.377184977521138 -0.15744972961145787 0.47625109499194107 -0.8042680654334212
Ni 2.337211315270366 5.231556720578352 6.931619988011963 0.5249732427879926 0.6507415821357696 0.4458349445939289
Ni 0.194908777384996 9.04648568951107 9.203332786051641 1.7266592949645359 -0.2181406197336114 1.3661705771475956
Ni 1.5016283249217957 1.3156503786453728 11.47258544775155 0.22781876625332378 -0.3332458229405874 -0.6390021822116543
Ni 4.235642273612861 7.219395958605532 1.309910363454394 -0.4282259732629142 -1.3619778792224866 0.7494336340920449
Ni 5.8042950001075955 7.836238566383384 8.102851184577915 -0.607673804412018 -0.043842965326879334 0.24471219957455273
Ni 5.281722781145486 2.986225635803227 4.949966988649283 -0.0368963588057171 -0.5027745952037663 -0.08470190832477026
Ni 0.76180798192975 7.384016976923121 6.883216101202794 1.1292045971773648 -0.4281889493773916 -0.06612877330827321
Ni 5.017996529044455 4.5887313651263275 7.159151245652717 0.09872496207673966 0.47944749044205176 -0.6422343159957068
Ni 8.034912524727249 6.913719247160679 9.414144749919686 0.41802974945620264 0.57816191099583 -0.485292636368919
Ni 4.391556935766805 0.46597999509297683 10.525294818512933 1.0470221128403387 0.7709002886062529 -0.4182292670615184
Ni 8.35927427612247 7.280349539805492 4.873112038577165 -1.1235527982082263 -0.10030799029314337 0.1815497079834551
Ni 7.233137096934792 5.929592006817576 7.228810274210876 0.5279374676226392 0.5619246232013612 -0.6161214209587389
Ni 2.6239666973491373 5.200311989377298 2.413305595184972 -0.5251773883789987 0.05593409216345851 -0.3078009005049215
Ni 2.5086392863714297 5.256567046426315 11.416946560794283 -0.3337443598435607 0.23038704120113226 0.5348316236393111
Ni 0.863608732663232 3.1539911209607117 3.8961461851411086 0.3516744619594201 0.044215003954317406 -2.016118459737476
Ni 3.5837015995469166 2.640588748939226 2.64585164127155 -0.6640853504325273 -0.07074261793120074 -0.35832050652102804
Ni 1.3246657286603363 3.3209477692720957 8.026954115444887 -0.940115129173439 0.8062532141842502 0.31053089784157484
Ni 3.8926409225395244 2.6668259621380157 7.070391853055801 -1.408540300363058 -0.7504067966385916 -0.23026799912476473
Ni 4.173998000274659 6.894243546473112 6.157923922055425 -0.10422609440062695 0.39729611645327706 -0.7694913240738683
Ni 0.8769827135926879 7.439944864011917 11.362757218521882 -0.703820207128304 -0.018423753922826334 0.5681626336912731
P 0.3464675350407828 5.4942196703086665 8.079453988394928 -0.30551133313979645 0.508176225835312 0.3429093141722804
P 8.529620768743916 1.5217856296931553 7.933099959522982 0.27182833906505444 0.9254744964421288 -0.014437515581568684
P 1.875229155330194 3.258785476830211 10.33810543457825 -0.8981678382073758 -0.5190949296303448 0.47534838067201357
P 4.160929377974741 6.293813965032988 3.4630167804705994 -1.1635203397400995 0.36782998867336003 0.9859697256137084
P 7.040670279780663 4.048337471386654 10.36041206422717 -0.20953539456310363 -0.5091411608517425 0.9861067654122049
P 6.22585349385164 7.872127293408676 10.493783807316477 2.007686784030355 0.5039740148285062 -2.449782830407142
P 2.4759041142404836 8.751860052278106 6.0117561982997145 0.8049753759130911 -1.6366241473523104 -0.30860617001503626
P 6.894752477522345 3.7112615318150888 1.768432701065235 0.971438621877069 1.1514322982273137 -0.14799398351519674
Ni 5.242316977047824 3.122391955636087 0.5764243944143942 0.4941243757279361 -2.0401986406151313 0.4066184222954674
Ni 1.3424328751111967 1.243618459070171 6.810045448404935 -0.24755763944314788 -0.20580652364829072 0.40972920001030727
Ni 6.806416588262823 0.8313561362236114 9.18221032989763 0.05448681819397067 -0.7534561249878765 1.7718585172089936
Ni 2.669806843997802 1.6329052714602499 8.97353951165814 0.23581078331986485 -1.0026908950231312 1.0365728924825568
Ni 6.64395852690447 1.7019108689034124 2.609659373227608 -0.4073974665533371 0.5228374273919125 0.8611537228768716
Ni 4.201498453042077 7.170102351265652 10.304439645671566 -0.46748234766037555 -1.2664814513853737 0.12277274705456276
Ni 8.012601351051105 7.024248165388487 0.3516949839607495 0.5534438394238598 1.0497397688818177 0.37758809650138847
Ni 7.880224749924132 3.619726647388968 8.370353523303159 -0.17356206179228817 0.3744189547447874 -0.8749831725607964
Ni 3.185054091072753 8.386056772588296 12.256297458518059 -0.8409001148341583 0.6208226830891501 1.7821645271206918
Ni 0.11426774382877128 4.7507077595988 10.262740925436026 0.43429223406165207 0.34761057630269165 0.3183282823988066
Ni 8.65320922121719 2.6620819977148193 5.829914225603746 -0.39338212611085155 -1.0291948548509307 1.2749136413131268
Ni 3.782530054816443 2.725798347467751 11.391673590172697 -0.9493091369678812 -0.720725981744707 -0.30975622445907947
Ni 1.0687097631145401 3.5299821096896093 12.62612674632947 -1.1591720900737326 0.21113642050163636 -0.8070751958649133
Ni 3.2510061022205248 8.327602406362242 8.181355616532812 -0.06133906522911372 0.6036831951953862 -0.4838407344137409
Ni 5.5602352978375915 7.924183669301529 3.786583327101396 -0.09509070775826205 1.0760740359009726 -0.8884344129696956
Ni 3.0866031972097505 8.646711262285034 3.7915054173918237 1.451972146294448 -1.7278330035576632 -0.7754930501832579
Ni 3.39478821168296 4.472649645629223 9.44263670942766 0.9500915236598605 -0.3297486084206063 -1.4651698759316443
Ni 7.258847202975448 6.100674631849517 11.53849383623796 -0.5328716716994629 -0.7340070151243294 -0.3156484215737983
Ni 0.5723929334601222 0.08032295165045486 0.09745938712244581 0.3958254454450215 -0.3412902905116187 1.1111981332976153
Ni 4.512509852449413 0.40875978666131085 1.6526318024506528 -0.07188367351417943 0.9617054537497052 0.2737944616524897
Ni 6.075582513511499 5.516812573672778 0.618055863047001 -0.8024744638681083 0.24901288383243567 -0.7701328143126092
Ni 7.990544642899577 8.794582996250226 11.750370011282165 -0.935500256109247 0.3193173857849533 -1.0908938745226244
Ni 0.1562518289740601 4.993395165646767 5.82315725711975 -0.004655239383824241 0.09759290535482547 0.3912630228853197
Ni 8.013982735327591 8.659416362406928 2.4741055882647167 0.0886593503106215 0.26155215395002696 0.15200027646111242
P 8.477155430400789 1.3047356252502407 3.703157713661517 1.7221117848031697 1.180103440909761 -0.03189710581891281
P 1.7067638899800157 3.4475898080407608 1.4924312138178208 1.110957735152035 -1.0939935964938705 0.8864068410167056
P 4.827265530290385 1.062420829434747 8.336182438569024 -1.0238042799629787 -0.355453212275562 -0.24472402664909468
P 8.467331243539725 1.8409581019971024 12.479253789548398 0.284787984549516 -1.3388754888770684 0.35061953833234455
P 6.247882937839817 7.911723946649801 1.4474326210112787 1.0055869856240034 0.27679159660760067 -0.4674049574552208
P 1.873629657746894 3.3829010364616177 5.74590334145725 0.5141635537669984 -0.5078196138268416 1.4002965722970269
P 6.880720521450668 4.04553835061588 6.218244974665625 0.24254270272705972 -0.38994096163978653 -0.506272838165012
P 2.346217577230879 8.676483728665096 10.292854193857982 -0.5872584739804595 0.1409738434436217 -1.3406503213893042
