# total energy = -340889.031312163 ev
CRYSTAL
PRIMVEC
9.07137430190510 0.00000000000000 0.00000000000000

0.00000000000000 9.07137430190510 0.00000000000000

0.00000000000000 0.00000000000000 13.27687323940295

PRIMCOORD
 96 1
Ni 6.494169615592608 1.7863803753201568 11.348911490259049 -0.5043095437910541 0.767847103602226 -0.1559839436992088
Ni 4.512074340703923 0.10810991696815049 5.6211224144674965 0.30533032747724187 0.4423220463446641 0.641554773430179
Ni 2.6239766458536664 1.6083092986791279 4.73904738168303 0.9740009832876063 -0.440322499416132 0.3881388754340412
Ni 3.5749923087072366 4.239751685545304 4.790786871888316 -0.1853377142709776 0.3121774323060623 -0.33625041409486606
Ni 4.892255635763807 4.616476787013735 2.313947009326032 0.032624213792924454 0.09339455100276173 0.9687381922267703
Ni 7.134200426209411 6.018339750379743 2.8261022856087568 0.6131379128503827 -0.49307202320402177 -0.5640684090172414
Ni 5.121625333821292 4.8761085895885135 11.738335608548152 -1.9859864162387861 -0.3218031283212845 0.11851602866073783
Ni 5.580782013152028 7.778313355241314 12.454569591463237 0.02399147781859094 2.093459556821801 -0.5384928745409823
Ni 1.7343560439632388 6.615508317637968 0.2174961762940897 1.0718132037420895 0.29287847486713425 1.1970804350837319
Ni 2.9290197479528968 1.60428160850956 -0.012247262382733243 -0.8754369722687633 0.6047296341820295 1.4800041127309995
Ni 0.25618921604470846 -0.028787099063303217 5.313776090444723 1.6006790967162692 0.7785084399708141 -0.693404925332251
Ni 8.551666153295365 2.785465250355123 1.3450271751038223 0.7840969898021851 -1.6451643236128377 0.5410858320791391
Ni 6.996351823018525 0.9510791624733607 5.078351250071504 -0.6664775048137876 -1.1186887852477057 -0.7314749927310951
Ni 0.7643549019297395 7.296578025387934 2.744502552765708 0.17002628072488782 0.8295525510318229 -1.2826673171166167
Ni 7.304878332831976 3.7335962161953544 3.847531769710569 1.1654280982857734 0.03738692528889045 0.19129650295757378
Ni 7.4333562064166365 3.77308390833078 12.781088264975608 0.7984247192787669 0.2560193970572559 -1.8436252055293347
Ni 8.036557237554957 8.524488316025039 7.252372311502075 -1.2500703570172018 0.6865300525892886 -0.731700735588656
Ni 6.916560015064654 0.7121355360263222 0.275746191802752 -0.2536257000140987 -0.1703435548549905 0.5100423325097732
Ni 1.8733113548133298 6.639003176960447 9.30029038512815 0.20571216416227153 -1.2435050450948586 -1.0057587353151776
Ni -0.02328712485202171 5.160224031279651 1.3003034857479587 -0.519053534869448 -0.07234364386973346 0.8986789735158394
Ni 6.450418377556964 2.0604538057101425 7.139638715075752 1.125161537456243 -0.3637167378359349 0.23683151127489538
Ni 3.1683226008204644 4.146307459336478 0.48985330267488103 0.168205168355749 1.089039337812389 -1.301652599969868
Ni 6.081558157568298 5.548324636064835 4.989833687220994 -0.026619402359741254 -0.130463173720285 0.24560745769531248
Ni 5.3003767635315056 2.5098224722188878 9.105771092686535 -0.3798915478235845 0.8371977262819065 1.246389565731505
P 0.08532716052475034 5.5690527262393 12.553243464930521 -0.5904996066255765 -0.2337374457306039 -1.1739037398569525
P 3.982668939136401 6.429245790043966 12.877983241951334 -0.7845798429758746 -0.8007091444375694 0.49521529479926973
P 2.2167082272660124 8.509085122538718 1.311164642144408 1.8424039315277236 -0.4557676303266086 1.4043303760467685
P 6.270360669953919 7.8422665437445875 5.935452789529799 1.7820218308952407 -0.8453586648261441 0.4748441873420854
P 4.899621591659504 1.1232266317253632 12.59575646038025 -0.29877838529133705 -0.8867197442714341 0.057125798478714525
P 4.021585134693712 6.054607104654365 8.138683676063993 -0.23864671010676317 0.5057133661171161 0.6033934318691092
P 4.861839317884167 1.1778907329907142 3.699667462203873 0.2593276354948824 0.5033250683905978 -0.26656040579789575
P 0.20184352001573533 5.383915049053015 3.600011158904687 -1.0111235991715168 0.9539492068430538 -0.6175748655758138
Ni 1.5846874401170676 1.0169101254475812 2.697276071252673 -1.1273014666173813 0.6263284433987278 -0.38231635521499313
Ni 1.5287896319529302 6.639338817807911 4.884628424289545 2.0109929655854524 0.298700223755234 -0.4278961007273211
Ni 5.982226609467469 5.404425426245342 9.09494985033681 -0.2875148965623758 0.719250168530129 1.5895907001125913
Ni 8.679980742143423 2.1228195037186537 10.242231045176236 -1.3911295610857783 1.9810357571017305 -1.3336430368335355
Ni 2.2159190177057595 5.22156466399726 7.018008821916782 0.32090709886957636 -0.7510328602583646 0.4682637059110903
Ni 0.2934716570985529 -0.01235249032410033 9.227559734894982 0.8801739727331164 -0.3868319836971596 -0.026273846094864425
Ni 1.3044636179816609 1.3706392931776012 11.41406119302666 1.8883467168064252 -2.0034411213801238 0.8374106136236611
Ni 4.43353438239735 6.976657869509219 1.9096921012661494 -0.28160238773268276 -0.2658916618656453 -1.5022194724857743
Ni 5.677963645554236 7.867040466837132 8.143369948004532 -0.5023027977736704 -0.48725258830876733 -0.5028684404691534
Ni 5.348972115419738 2.7465036979265336 5.171475256769099 -0.42106082297304265 0.17332706296334666 -0.4656627779531335
Ni 1.0295284070373758 7.291117058085952 7.059087633096672 -0.9020682017030464 0.5269684188411505 0.6381519183962171
Ni 5.199602866924008 4.453010622924517 7.121701886759792 0.13947026231490173 -0.5113145143539775 -0.8498385549743687
Ni 8.04823209622215 7.071880085072178 9.21448153463042 -0.3428388659456612 0.3063960497375949 1.3686974573345074
Ni 4.510024210122116 0.3808117555706616 10.459985755636616 0.3835114039643589 0.20349587323724308 -0.5523534345731584
Ni 8.161542632051143 7.153667595362322 4.736790423768191 -0.7980549946441741 -0.5875996593699623 0.5569875909110602
Ni 7.64915512858747 5.971912456938644 7.147763944996657 -1.5403638447659793 0.40562211982046914 -1.2761955933493438
Ni 2.146423219532202 5.124863814430608 2.329626879727154 1.1447098919018157 0.830856100334595 1.1613899236606577
Ni 2.5199551972625973 5.571520140036873 11.468589223678174 -0.1035349818708733 -1.3716655388238959 0.026898367052740773
Ni 1.1235441298243156 3.44187896287787 3.6338673419021226 -0.5742425213367659 -1.3890585374893625 0.3573884816250619
Ni 3.5733685327154516 2.6161571212451813 2.446436244606601 0.29102110994342134 -0.29299057496496633 0.5908719023633308
Ni 1.1751511779654678 3.2525865962824367 8.460780054626671 -0.468451139331548 0.8373890163571063 -0.4936206966186402
Ni 3.525172321294474 2.748118402544063 7.366155465929793 0.0217877852990528 0.2643459146450802 -0.7448529566998978
Ni 4.141046062268124 6.566804109258666 5.95329708982835 -0.18162581263702915 1.0250391808113444 0.3253561357798655
Ni 0.5878740371957492 7.253089857205708 11.323605984635115 -0.6029072362613099 0.6615867523803897 -0.07068425388943955
P 9.297614329722695 5.49003198509717 8.375051939359816 1.9193454791807845 0.35837989900405376 -0.886393471280267
P 8.548273459323703 1.614632046535409 8.00822461434187 0.3214300612525819 0.3047968235712751 -0.32245644563456727
P 1.9036460303246698 3.2911308654952607 10.535583867272038 0.2743292511100372 0.5844896529860709 0.36642488079571733
P 3.729686453891112 6.189081156622099 3.8358478396691202 -0.009542649383112597 -0.1585589035152366 -0.9590883278418321
P 6.582397801604358 3.7889406705298896 10.64262245494058 0.7967668719603698 0.617341152298453 -1.6727453185548997
P 6.166420863731152 7.703710373361751 10.353186652248425 1.332758577346053 0.08902547540078862 -0.4070511389575119
P 2.4571812874125762 8.468917077334108 5.814818933264113 -1.1276663061559675 0.7601124539621297 -0.5367974891164304
P 6.887595117065937 4.234444931605671 1.501880307360574 -0.5984227181273952 -0.8830636355760857 1.6643632651387916
Ni 5.21857111049285 3.089882427630705 0.34481926393598955 0.48587370568336974 -0.701536810410766 0.1625402567604878
Ni 1.6812975759411615 1.283009817866733 7.046687064489015 -1.1799185785924649 -0.8037348186377706 -0.27597347158167956
Ni 6.952927154456089 0.5560761490169515 9.22157172074874 -0.6351750951560803 0.09033133869640572 -0.05293490032581852
Ni 2.458142853083689 1.4384387443653266 9.382340965271712 1.3609059863145465 -0.599625994406877 -0.765907720487668
Ni 6.64233237131232 1.953193876509759 2.4278090847097746 -0.9311072692478739 -0.34572132969977876 0.6944097124476815
Ni 4.120671755689634 7.075154851178516 10.2445279171378 -0.24913115457785479 -0.5861331021267647 -0.12982271192280867
Ni 8.042743914797402 7.412455760131312 0.19432425789511643 0.37507458605091537 0.02467719103170589 0.2412610078011587
Ni 7.852444625659577 3.9856987781378326 8.531731808368281 -1.3146461840160586 -1.982962541810798 -0.04354343180858952
Ni 3.1571648104858507 8.541596927871446 12.334745808918592 -0.48258063675439467 -1.0396679864681126 0.02910411645480794
Ni 0.16031204726048195 4.865177583610294 10.461724738081447 0.39091181019348803 -1.0817379190549692 0.3742364064203361
Ni 8.840915992815276 2.550598299498634 5.725080363438775 0.24692129141072955 -1.68212341733569 0.8391674484137677
Ni 3.9443423829057154 2.7767023028240367 11.314352275756791 -0.09633923545338247 0.06479359943661744 -0.3251473622031691
Ni 1.0628203505561011 3.376410854873881 12.716735028867655 -0.6880835131193376 1.1496039867693233 -0.7392433238226043
Ni 3.2492483305563082 8.311583162241801 7.917105381354801 -0.8221097216005325 -0.7167556842430495 0.25725018414056344
Ni 5.760767149761027 7.821121170354357 3.8397385520874256 -0.8852920106859721 0.3702224001649366 0.36563760900773157
Ni 3.378751269431873 8.630922750168146 3.240672253334891 -0.961599010078828 -0.4311696292722703 1.5430200514419037
Ni 3.5315132118992665 4.2967652727429035 9.3221705398331 -0.09543035048586791 0.061823718175016106 0.3229074171290568
Ni 7.135597417844801 5.918663490057194 11.435490500431099 1.4469831777202886 0.9353233642117506 -0.6155143835023593
Ni 0.747160112027902 8.992398871512604 0.03210450062864323 -1.114920833564841 0.7051173286731728 -1.2778963780905348
Ni 4.751857976407048 0.5181242405430301 1.4880582544070367 0.08829759609582857 -0.6539878569872092 -0.08560462264469773
Ni 6.209283107089729 5.97095089126753 0.37632596100117666 -0.7588112186522028 -1.2271384308113769 1.5514866941520182
Ni 7.81149644226897 8.906447600439057 11.441186416326305 0.6699047853277817 -1.2928673975780702 -0.5763919635796009
Ni 9.188394983683061 4.876480515933001 5.6981547103727594 0.23630494934746402 0.06564052081794501 0.04089673821436182
Ni 8.500294960884863 9.20481417108603 2.056335401798017 -1.155325462634133 -0.14576689395689088 0.476099142795109
P 8.669022522042436 1.5172327011510618 3.7845328897790043 -0.25027195305051736 0.00940946623935799 -1.108787981194226
P 1.6519335374751902 2.859215523054643 1.4623282084679325 0.7894788229393888 0.796373493176693 0.3969153360750906
P 4.556905072276005 0.867058279841443 7.843100203038694 0.8746427585022419 1.1221381772488868 0.7594182561085825
P 8.532171770019687 1.6877473230370235 12.432211375335008 -0.394436792627611 0.22944987409884354 1.0989082601866687
P 6.513999639715752 7.879450106819044 1.8523365232591074 0.822616486033622 0.9562966240293079 -1.961550651793925
P 1.8628792744191789 3.3525894260781937 5.812787852568244 0.21878596662709418 -0.34945431437964974 1.1380841590551818
P 7.214962871208651 3.9159399101108576 6.145931350699613 -1.7376101375490847 1.0702952244356665 -0.020632845759003177
P 2.0769546354814126 8.455400729692991 10.292099110872554 1.9292198008717034 1.6407862491498 0.6930177171961613
