# total energy = -381174.0575302181 ev
CRYSTAL
PRIMVEC
9.23135565155171 0.00000000000000 0.00000000000000

0.00000000000000 9.23135565155171 0.00000000000000

0.00000000000000 0.00000000000000 13.51102211577630

PRIMCOORD
 96 1
Ni 6.836160410534601 6.2023263010333665 12.036470136912769 0.43232379748137156 -0.67554398589143 0.9748072812389857
Ni 2.68711838741464 9.206606374123046 4.274873708694019 -0.8983681271436399 -0.27627917574755645 1.0170458781932228
Ni 3.5608661986071932 3.078712493603632 11.455955414444466 -0.8544328592132704 -0.8492988804208148 0.027074487619288854
Ni 5.639961346886095 3.4413478371543667 5.632244856707797 -0.10966294914548211 -0.9855897165664703 -0.34956898558064314
Ni 1.100571450588351 8.693869187888835 12.70142776194951 2.0253453776523824 0.021208515756815087 0.29733213976311373
Ni 4.499251961981154 1.0047499790597856 5.528682893476274 0.532655956144231 0.404170217865291 0.8007757360094467
Ni 4.449568805934263 0.9869703880998612 1.703713148862402 -0.02719584368850155 0.7221825116855757 0.38619717832663814
Ni 6.9248368127988975 9.10483067820759 8.510633240411769 0.894197540705718 0.5381228927960732 -1.3220041670430265
Ni 0.9120856311596183 1.700452634050852 5.182166420006081 -1.0833877959535665 -0.1927656313039325 0.2864987965930356
Ni 6.816423772179296 4.925048240811123 4.201454891029185 1.07228602961345 -0.30445126730639827 0.16655606278810026
Ni 1.485343584960425 7.416000320905723 3.0823644178942584 -0.08746533000252033 0.5628507345600564 -1.2600084420665203
Ni 6.68236602559569 0.36064137073279967 3.3400734038500866 0.2229321275849838 -0.0875198373895396 0.8076601218341057
Ni 6.796151715196952 0.6516755505439383 0.8239492632001792 -0.9538090817207638 -0.5969934418800363 2.0151154723942586
Ni 3.1021047487918194 2.506396138077961 4.383272902280163 -0.6469175804039891 -0.3173312085928599 0.5522279647388877
Ni 7.4339368449115035 1.3640158778024354 12.367962579081157 1.0293290664359498 -1.3478589233226013 -1.8277447868536525
Ni 5.49640453535038 0.3663001917392554 10.23073481493936 -0.7575099833422761 -0.18108793785568814 1.5004184147212933
Ni 5.965468178058421 5.09904083188727 7.433845454490681 0.40023385892536234 -0.5887697684186635 -0.5108360320556622
Ni 6.031352363251039 7.568105367762772 6.742391992500059 1.2086725107967056 0.4810914538033779 -1.0599976991644005
Ni 3.4574657840993455 6.098335079764648 7.321244147817851 -0.3714516445863474 -1.7223262148068208 0.24707787159325192
Ni 8.500278428791962 3.849752241961232 7.122497676596826 -1.2246467747377747 1.651579483110562 -1.2794251560302354
Ni 4.155476278000059 7.686506735183328 11.610440304785143 0.46083450332655473 0.7400285387280611 -1.7575714111623604
Ni 2.5423984250684626 1.6960308146999672 -0.25955248767685485 0.07327952542044154 -2.165252984615019 1.1945340145127945
Ni 2.6692003261201362 3.2486432881987986 2.0257619142125116 -1.3338502677483348 -0.8850305294944694 1.0883891058228996
Ni 4.79882791516468 8.175879360296268 4.420346949660305 1.9146221055631867 -0.5395457412855288 -1.8497752842911304
P 3.347224935063302 8.888484627461592 9.326725696827943 0.030662976301495583 -0.37656171211940304 -0.8569777371223113
Ni 4.574229032477783 3.9562359292523683 3.3026476418201143 0.333852860396967 0.8563606723636026 0.036540261017879
P 8.078460864242226 8.294197645516077 2.1751261715804633 1.140530049492513 1.9851752331914003 1.0684975091052953
Ni 1.1453527567911517 5.039738603264967 2.297360397862163 1.6758031315446171 -0.009873036139337835 -0.3512152629348145
P 0.33539361306125576 5.485483841629928 9.22443396813229 0.38182501740087144 1.056376300361729 0.6117135216990304
P 3.22604492959553 4.354356603877844 6.078311346248983 -0.3028913790184461 -0.22800362857062023 -1.3341850253799346
P 4.3339922333391145 6.27648178087816 3.0571794334410565 0.6736786505479171 -0.8722989408604137 0.21529466564438404
Ni 7.1362810137008035 7.382148939779013 4.407782151500621 0.02678729539617322 0.0535139127577401 -0.18297769867923327
Ni 1.4260782817606767 3.616743594287579 13.191783526437959 0.3368217132173038 1.397309207533929 0.2317983197263621
Ni 8.998863946832214 1.4738413158347419 2.974653883438753 -0.6879058498908928 0.21326657947076172 0.32193656857535524
Ni 3.811229794881395 8.10436404816411 2.175733594781483 -2.0336284435967813 -0.1407992655389704 -0.9927216996255614
Ni 4.877543684694939 2.5489342248605844 9.46896980959185 0.5365576051914823 0.4603367377545298 1.6741828223323747
Ni 4.73342376046527 0.6178490940774526 7.800493668337511 -0.15505988922304262 -0.24661250192105916 0.36900961080375805
Ni 4.732417542700664 0.7132459232466427 12.926413438437665 0.28089919101807104 -0.1382009086841749 -1.0347288972952824
Ni -0.11002483531410004 0.7967426118621265 0.6455920871781075 1.0714303664813742 1.1147061464508736 0.19972200801710766
Ni 8.646863124977134 8.832422604668434 11.2019075841349 -1.2550737237690641 -0.11415569480951307 -0.7560164295158851
Ni 6.675377889377277 7.464991125279721 10.121930364840681 -0.104971971427716 -0.6144705156188772 0.9449590875293015
Ni 7.418068144568767 1.8588996222316123 9.980133049689682 0.6153624313055273 0.41204936350305166 -0.028999215445827477
Ni 8.362371206907065 3.9565313326328035 2.789944611601767 0.7881801587326233 -0.6157313846091719 0.3346756134085785
Ni 8.406090907211428 3.634707812360275 11.893482900019954 0.3393509073970607 0.3279436940013836 -2.301115989194637
Ni 9.482910079741686 5.996596309271747 4.7514479823496165 -2.1459632831474718 0.8002134357480735 -0.9638533533306434
Ni 1.300836479811925 3.947696925286673 4.403026157075619 -0.956764564804662 -1.144798337850564 0.7526025187383296
Ni 6.575189986631659 2.6134244753517746 2.5069703283986815 -0.7933473047558595 0.36590140419207956 -0.3719141860450627
Ni 0.14059077696903574 6.229937285748389 11.702193517883783 -0.6416805003747659 0.6785156669252443 -1.2720674301135835
Ni 0.7781183518612709 1.7095824447774175 11.760588304246811 -0.7731001244710493 0.3914831093159258 -1.082147238678246
Ni 6.574322239201631 2.4743633340120534 7.772593742191002 -0.8091387632621612 0.514518623113572 -0.22245955882393945
Ni 8.542991911331718 6.243202743801043 2.305655694039 -1.421651126713403 1.318908301726522 0.13220663877395294
Ni 4.853172905809061 7.4972916386591475 8.662969994295347 -0.3245516376006991 0.5734300527377996 0.328978305913485
Ni 2.3461951923258684 0.8746155586225809 6.9319920365543695 0.1408234339086865 -0.07737143610162804 -0.05386898210431368
Ni 9.204861647907352 8.705971495131028 4.386893439961619 0.007756246906651158 0.3029155473881622 -0.9921010353224268
Ni 2.9974211758502074 6.261434671187258 9.730084242642755 0.8236261582450589 1.3603673402022571 0.9770593104979559
Ni 1.1255053421681829 6.847062641543776 0.6162446844674656 0.7335293041569625 0.10319431070200293 0.640445085305768
P 3.190808845123031 8.208087560119308 -0.05697038818799498 -0.7242345091185979 0.27101921290019776 0.5845019942812449
Ni 3.0630284203736675 0.6585455254101771 11.117476682328792 0.10928371142919244 -0.15493133406497833 2.348935679781077
P 0.5710793538700998 2.9336786651657425 1.456744845192073 -0.5718213134897829 -0.9678856144184879 0.8045303179558725
Ni 3.6354924775895556 7.999846639623993 6.211246559986936 -1.3343174371927409 1.1075692782957764 1.2428707539449693
P 1.4867559823731296 7.604910782693831 5.732685698597914 0.1321611302479982 0.7827096225363552 0.02184049291385916
P 5.323787416264384 5.5105469721887 9.384269352201095 -0.5251943576598632 -0.02902852602186614 1.9514696134088394
P 0.26637722890046456 0.9611225923118089 9.654611448348335 0.08781654269435199 0.009046940693616678 0.019486647969701926
Ni 2.74257114073565 4.2726037183424905 9.034131417913883 0.43438710776830347 -1.9542443479404992 -0.560522343537196
Ni 5.9556552470146 2.9031690347802024 11.798973204127632 -0.9114193039006432 0.994288529892049 -0.591813954561626
Ni 3.2251587194542255 5.242671494268093 0.7476502625761042 0.10931276489491498 0.6388121776880353 0.7439273595618349
Ni 1.4510767928299788 4.205214822180783 10.984258065972735 -0.28787587944622034 0.5306890622258473 -0.8165021456057681
Ni 2.522957190093592 1.7558499992380312 9.300906518242371 -1.3518065951164395 1.3536624173782559 -1.6022914355087114
Ni 8.843767940748261 8.610510046472367 6.650895411088173 0.28317256043328004 -1.1553964250813844 0.842520938267033
Ni 6.935397483649445 0.7134240884104676 6.146988016522274 -0.4976133627178011 -0.10330666791015111 -0.7881963566825393
Ni 6.0184100026457354 5.232009278505521 1.8713711836993479 0.4955587941816175 -0.28695311052163486 -0.39886243249913245
Ni 4.09084755717429 2.954292282306714 7.446761967300197 -0.45885346834078394 -0.21990979581889225 -1.1455066767714983
Ni 4.504569222828983 5.2241441635014425 11.55501801493774 0.8761435114174846 -0.12588712431382837 -0.455800283336757
Ni 1.664413421637796 7.92541421911004 10.504698371903618 -0.7891700334497183 0.39954326061624096 0.47622589818096045
Ni 7.420754469059597 4.879593045646705 9.918076184544823 -0.49114575271558636 0.032235462994938034 0.0011045459180884204
Ni 7.66004966992313 3.018985622621954 0.38891701305380116 0.3286965130070081 -0.4302167784406978 2.0496099066267024
Ni 1.6781035220498253 7.955369968157266 8.146011309127609 0.8038883134964994 0.1158636786395553 -1.1719682133971365
Ni 8.69325991841669 1.4815587291486032 7.6508995502141595 1.179505402314446 -0.1863918665671048 0.5283660705196255
Ni 2.0109862063773845 0.8089916976589716 2.2931989027402864 -0.13647312735979075 0.430835128750987 -0.8718379420635952
Ni 4.997892868155238 6.813155872283234 13.537098077404005 0.14767310984066825 -0.5549466492216314 0.8539965430068002
Ni 9.17593981069165 3.4140230244641403 9.135964348234298 0.6481699647538515 -1.528668153595606 2.239846600861194
Ni 8.804645455551917 5.177535048882201 0.10508882945414591 -0.9168947251929176 -0.06813706198755361 1.2093134868148143
Ni 4.169775647884236 3.1150932661753155 14.002147926680388 2.9453814766877597 0.5856170817222947 -1.6906653933684301
Ni 2.5244434383514047 5.866840374415725 4.394297910319332 2.0416014344999294 0.08496827461227947 0.6129463656648669
Ni 6.087700558068993 7.627952246367752 1.9539502755643554 0.12128227855196531 -0.2711433971828879 0.3778313228604461
Ni 8.170128225733425 7.909942467059763 13.542367335202515 -0.07893106727926406 -1.474874504813918 -0.1980145384076977
Ni 1.5759585719088258 3.2802976066835243 7.283738072993824 0.24656570784352375 -0.48170389057639623 -1.2898085561470884
Ni 0.7399485425668286 5.911215500970427 7.030852470359158 -0.16770251768771763 -0.25996835440267485 1.1674584984522411
P 4.993489511515631 1.7451323953416278 3.616238639134148 -0.1286186643123785 0.19900055647005083 0.44677056903432094
Ni 8.731856216341635 7.650587530393574 9.07058419505955 0.790748947901064 -0.8440209198513271 -0.026395202164077123
P 8.260817063526936 3.3400890971546717 5.128081753590711 0.5386756799757497 -0.7817868536117698 -1.9579395374038988
Ni 2.400540182970248 6.1417132199103825 12.237324126626083 0.17381351568146194 0.19046012309920746 -0.2097156288947098
P 6.084220336993243 4.338063261175733 13.401380533076583 -0.8901825060090541 1.3829827636089278 -0.774315484935389
P 7.574198062484242 6.027761365907628 6.0525327856282205 0.024707015828376803 -0.10823830088381359 0.7103196988097186
P 6.449505079612255 8.580268125400346 12.425776713174518 -0.8222660446727387 -0.6117641724313077 -1.2641566599069392
Ni 4.949299012073699 5.817415696326712 5.197041826482106 -0.8837879153366198 0.37690418306048634 0.39338855386875476
