# total energy = -340867.33721569926 ev
CRYSTAL
PRIMVEC
9.26420905536291 0.00000000000000 0.00000000000000

0.00000000000000 9.26420905536291 0.00000000000000

0.00000000000000 0.00000000000000 13.55910639312526

PRIMCOORD
 96 1
Ni 3.006958453597658 4.379645576655963 4.715653807752219 1.0422791988387146 0.586475573067848 -0.8941744007772664
Ni 7.871409355430372 2.257511731944651 11.414069772449578 0.7722730005840636 2.521956781468231 0.44354126346374584
Ni 6.321247779095596 7.546948960947841 0.9643902685389516 0.7863739587618199 -0.19629035662773936 0.6259018973842704
Ni 5.510342294429793 6.633803664914961 5.190534385745427 -0.8145177681858875 0.4549929569441132 0.3962707605125562
Ni 2.4122888729839578 7.078448643745544 2.7856503950762317 -0.12371068548779984 -1.9872984501819904 -0.8670654603756164
Ni 6.445341859673887 6.8478068945796515 9.672849633069616 -0.04138010560868357 0.9570568992341002 0.08067401811229977
Ni 7.229751706381203 6.988104076832554 3.829389540775401 0.5554500712206112 0.8805015312758643 -0.9239925125799635
Ni 5.5900422851140075 8.799729425930385 6.333512665491833 0.7153086673838778 0.2401515767870638 0.9262417136254564
Ni 8.829013590820864 8.367757885116308 2.29927200719831 0.5047543446379565 -0.2863771834135068 0.22438248687826517
Ni 5.0464092323021585 2.720388674237577 5.720180335693738 -1.6701991550942783 -0.6162188657685517 -0.5164335807480976
Ni 2.8803908291959703 8.926834374458505 12.92306213006977 0.24960680866269272 1.5292847041336823 -1.519126789764074
Ni 1.7239025533534602 5.720213686846413 6.720692681842455 -0.022382738570574354 -0.1078806604340787 0.10853474907830984
Ni 1.1639366999399299 4.062420529462096 9.450832862553845 -0.5084528765354662 -0.9371611887514376 -0.5162014101326337
Ni 4.330721288523529 4.267984064658192 12.931184062167043 -0.6015383809382414 -1.31786443384304 -0.8241792025350516
Ni 8.766776634245653 5.410362950077356 11.702918547242453 0.2838258777465628 -1.6587356345393691 1.2893254458630827
Ni 4.333157775510621 0.4039852916152002 8.848753767520844 -0.7127905289477143 -0.49340780927688577 0.5895495840074814
Ni 1.012142634223222 0.5583853793450976 6.329716192612327 0.819101530901828 -2.745473320801775 -1.2250622650086387
Ni 8.651326060735638 6.29112983538824 8.072495498379846 -0.8008672672819885 -0.5731557160304903 -0.8882338669231155
Ni 5.552911335135821 1.6222000661128122 10.928137919449139 0.17080918163749936 0.8944929604589498 0.760343339026013
Ni 2.2922247233538977 1.4152376353461809 1.2646432847048659 -1.282969678848384 -1.8232163028556794 -0.7077233988374522
Ni 1.8616706065285085 0.7275998638090561 8.635645460452933 0.7304565787689097 3.492909721958133 -0.859282731106404
Ni 6.004384036055708 6.5790614534825504 12.0648656373317 -0.039835643939699135 0.05682060853346988 1.0416773035886575
Ni 8.34815481871066 0.21707987349896077 4.597702824212484 1.3340922085558122 -1.2132814703236265 -0.42466396694326863
Ni -0.18775309324672942 6.818040990817199 5.4610113075189055 1.4544866851861853 0.5676041900846418 -0.4314825325269988
P 3.564913973641611 6.212458171911507 12.202070426594904 0.3118303333792888 1.442508943999019 0.5855890566978367
P -0.10487825811203585 6.297364648096653 3.1265399379348384 1.594511020232344 -0.5601292218638353 0.7996267100066681
P 5.726689368990812 3.911182316289972 10.893819583346547 1.1234072737692975 -0.8491929509705698 0.7922921240184678
P 9.024553251796302 0.10892857032023509 8.607998281306253 -0.9199157714074286 0.07588585269503706 -3.5472587290226585
P 7.138230584915512 2.8291597530035135 4.88516937901116 0.8516326707603139 -0.0025942430897374674 -0.9422442597012999
P 2.080972963784896 7.879950956198806 5.630459250051589 -1.2087966950793956 -0.5906641572278989 1.4055411085254181
P 0.7431933805264416 2.6867225384539632 2.0012424012107304 0.7240298493069595 -0.20860002723302784 0.5933895265788619
P 7.984441970371449 6.743158388852709 13.28369370247017 0.16372939197258252 -0.2457151869177704 -0.39141008998614524
Ni 3.82408022255372 4.844301247091557 8.07787800385323 0.5614654241767556 -1.1637280848755314 -1.7587561754990806
Ni 1.557295017323599 7.2303724083893215 11.871662409885328 0.10235124597541728 -1.4344986721000326 1.4574786779349738
Ni 7.740635780108001 0.9389461183106368 6.8383453578499305 -1.1539494082222128 -2.103268829602739 0.777424462878016
Ni 8.480947991611684 7.690118048014426 11.226370411615493 -1.3160479494595916 -0.5905312311944604 0.46051928607898107
Ni 4.947486007784429 7.0279031190247405 2.8116031503828403 -0.3013024372647714 -1.019077821021587 -0.12387060810443183
Ni 9.385384931112755 2.429640736584043 6.582783812689446 -1.3074059575138772 -0.6509909791424144 -1.2655393991870787
Ni 8.962890676183827 3.9842861901117934 0.6919252474976798 0.13867604854838053 -0.5330213099034498 -1.4944544838283746
Ni 2.4586840320385366 2.3833752764565337 12.57556905898151 1.1435626656712499 -0.5007341677349699 -0.3355747281840802
Ni 3.8651855182256782 -0.006272795965626058 2.4960419551390935 0.027592307795971837 0.6567057701390046 -0.6586248415385882
Ni 6.524726867249503 1.7667309919136278 13.54519453206953 0.12407321103354114 1.2664133171515997 -0.22149513802814114
Ni 5.481845587310807 3.2444464532710064 8.84402253594553 -0.5099765122688443 0.31022313679316893 0.7904499286034065
Ni 6.260372661254613 0.9224354448946882 4.505623070939485 -1.0589042089899052 -0.2080852923801384 1.3568958367138888
Ni 3.752542000065809 2.838071922135004 10.701958739795344 -1.779003098673575 1.1865895628547372 -1.4890618520578938
Ni 6.627578116415624 4.246880196382168 12.823294009684272 2.025983525457014 -0.18518164830908754 0.2022524877484452
Ni 4.473788469290274 5.580963360219141 10.372852344461004 -0.10320999443128676 -0.21514502744039724 -0.12056416943901817
Ni 6.670137892912575 9.438654133302016 9.592430739761072 1.974539350744109 -0.9775869008666519 -2.6399930422790727
Ni 3.8637588300279138 7.125408919553783 6.850982665451038 -1.1724644363072647 -0.1401570039692812 -1.317736392905608
Ni 0.5588606332707167 4.648020449390008 4.850322982991213 0.3157342964193853 -0.39245601475215636 2.2662199486484003
Ni 5.734017358370239 4.447941325967137 3.5068866736707123 -0.8122978777164334 -0.18984382967144725 -0.5870610132576728
Ni 2.214618443920949 4.304086687428898 0.5479233080351263 -0.3107561264785035 0.17205488111914238 -1.1365468964750491
Ni 5.934022368120499 1.6152426450964408 2.3995283514021333 -1.0999395296646606 2.0164596451269787 -1.6051255625233969
Ni 3.5214648330733254 7.080829545478178 0.601899369376918 0.7575236101890309 -0.5663836874139795 0.2572591830016279
Ni 3.4021325559603004 3.086130384364517 2.095301915963354 1.911857912554488 -0.8813325118175918 1.9637314614953276
Ni 0.6964322852133452 1.8490156969301548 4.061535797495301 0.32009771559440353 0.9799718561590605 0.1799643657742062
P 0.4870231768296383 3.3832428336535343 12.289254971791935 -0.38305220493975317 -0.7060912625506679 -0.3031168647656909
P 6.110644514161941 8.862272101405118 2.7849453887655176 0.9797998493575707 -1.5290497053047407 -0.04330277655269317
P 9.267822117933319 4.2208570330865784 7.137120732668159 -0.30041694933602453 4.883550773443266 1.6674200496872447
P 7.0891488052287785 0.30222443985737074 11.623557626610435 0.47294439921621123 -1.4145152869995703 2.387559305690546
P 4.3373359338040745 7.143390749371063 8.802802364081025 1.4029424945603064 0.9647918059845126 2.4097332706844243
P 5.713682419447554 1.4786882033104 7.670725279154812 0.1534382944592196 -1.331904456875874 -1.091430720862701
P 2.6649423829153625 2.874887889004592 8.117525113016564 0.0734895845487186 0.3306824330887853 1.347240573012312
P 6.917362576325213 3.649357239372938 1.7390096990943353 -1.5351841003372528 -1.7605466917406005 -1.418319491237009
Ni 1.6439894858604898 8.867469322696975 3.7819873621942186 -1.064595860058044 2.293451530670844 0.44402360241680305
Ni 2.3969751353806794 6.096257197466302 9.196667433701172 -0.06771951483416079 0.9569280869657198 0.17419146784617098
Ni 0.6358628862718844 0.9965139135113461 12.860771441081914 -0.670095304072033 0.0454830720334636 0.19269132642257136
Ni -0.1416377133062577 0.42455646786933204 10.524714038903968 0.7852557859969767 1.629187231458291 2.1147187233108937
Ni 7.699780618081105 5.59900077529088 1.653275002617759 -0.010110091850808396 2.712381937564445 0.04491331557292265
Ni 1.0129022993674863 6.39483339178939 0.7070703764957679 -1.2893015346036827 0.7354442617914883 0.22281102862608726
Ni 8.479484246577613 3.936371700768686 3.2376159519189813 -1.4761196900749287 -1.2392259581035303 0.35048121298226736
Ni 1.434729531242913 4.611704749810545 2.7204989183255863 0.18865495156966866 1.2376164475245652 0.02593446047757469
Ni 8.57964887511158 2.4279546505321394 9.031815465291288 -0.026193884786548435 -0.34166670001443095 -0.6627787158059618
Ni 2.2853506802192136 4.6180599972369505 11.674322713086347 -1.6188531965221349 0.1612793877701932 -1.051599704908692
Ni 2.354869305128471 2.601334323396844 6.047361628382005 0.006563769260446759 -0.08130342416618257 -0.6501420008785578
Ni 3.4463135690456213 0.5293911841987088 6.537428097893239 0.10877411878262558 -0.3277053527383324 -0.42734434198890914
Ni 3.821930926047997 8.087061614310661 4.508620042575699 0.5766945824216843 0.9459224798838354 1.246965235729317
Ni 7.08673084665984 4.958223226103968 5.382829720702313 1.5445143765992433 0.08313919182334069 0.3773829224691178
Ni 1.7766529598344452 8.256633697244968 9.934540378955042 -0.042719907466029654 -0.6394981480114664 0.9449187212096694
Ni 4.857298932425738 8.644405696555571 10.975188058085418 -1.0195385627080893 -1.2743066038567472 0.44574932685865815
Ni 7.494356046021155 4.6626486355216334 9.70737085535098 0.0919040825001643 -0.4315226417363148 -0.06546440025139694
Ni 1.1921462165775483 7.914265586617768 7.734276826997965 -0.044816127873426044 -0.9100144531333165 -0.8972643525564997
Ni 6.905124556135298 3.1870546780427484 7.033067915584831 2.019831132702373 1.072079827139915 0.48738088635651544
Ni 8.14103489638973 8.886961218593706 0.10663012004838186 -0.28992710554829426 0.3700393376198531 -1.4003929886655753
Ni 5.269500651070791 9.15127836775229 13.439379662419872 -0.8013390647120845 -0.05463697061858977 -0.632315257109782
Ni 8.233111870400004 1.497828059262229 1.6993088575183584 0.4979337221716973 0.1269217362259298 0.0037671803519160924
Ni 6.233210000242627 5.6078573591679115 7.687036772075618 -0.37333960563767965 0.1650905339861673 -0.7391754466991463
Ni 5.447419786382929 5.399042086586002 1.031007343165482 -1.1041509966428469 -0.8761152292827105 0.8793525052730856
P 4.775764628344398 4.84149419174141 6.005491109040336 -0.2775323314283672 0.050361226061371334 0.7623930224661902
P 0.45431310742270803 6.124559356194684 9.926662095556477 -0.7234901747534056 1.0554645871807369 0.695534312970428
P 1.7150644978945808 8.597445420747333 1.0975799495884462 -1.2309128102521445 -1.2046852440141833 1.1142400054477326
P 2.6835541789498367 0.776234182197399 10.750893218557762 1.0618198399748036 0.1976260447200274 1.0089165642178688
P 7.315436376128767 7.451555400088217 6.350434669790774 -0.928362359512885 0.0022504865970735437 0.33276476953911077
P 4.252188588182941 1.8794300953279548 13.89686390860943 0.7284722013490292 0.12427709951423113 -0.2579883478581686
P 3.592067370444521 5.097306796967865 2.483729821276566 0.7987371083128632 2.205335197347886 -0.07224517061865622
P 3.1117922435061276 1.6911350458502565 4.0928701318543865 -0.13280056360421 -0.3502958364443387 -0.11033966349753255
