# total energy = -340889.85495626205 ev
CRYSTAL
PRIMVEC
9.09528201821727 0.00000000000000 0.00000000000000

0.00000000000000 9.09528201821727 0.00000000000000

0.00000000000000 0.00000000000000 13.31186459885442

PRIMCOORD
 96 1
Ni 6.43115563021582 1.7156339394897373 11.646643150835306 -0.23839679887948623 0.8027261748675981 0.5113618226521451
Ni 4.750647669628104 0.16255906481562288 5.878839176458031 -1.3498160470489722 -0.28670731305941594 0.09929034766190642
Ni 2.631983596242363 1.5300719970870864 4.8895007915617406 1.3184370185170582 -0.17899917364745946 -0.4182094695671766
Ni 3.320751107970034 4.37496704856441 4.785096050024635 -0.49908660482921785 1.2560743971194368 -0.3764223583280614
Ni 5.230432887924459 4.387473061249619 2.8173099708424343 -0.2508224262373487 0.5248176910467348 -0.6302635167870758
Ni 7.195286648205052 5.794276702029327 2.6813818915848433 0.2047271745411829 0.28691968618053815 -0.5578666510819038
Ni 4.910178915081613 4.502646616618934 11.36945079039837 -0.3322582622163374 0.08335902114363064 -0.5405147900670175
Ni 5.662467875968195 7.669678364303349 12.83261061721451 -0.4601801575720074 0.7150181327266525 -1.4799264654155286
Ni 2.055551911914709 6.726088338101849 0.22940029188733546 -0.9210290590762653 -0.5511691844570701 0.3045165733266949
Ni 2.787767585531286 1.5264429795878875 0.48928160218335653 -0.8494909418269627 -0.014689997912006958 0.8747756845356807
Ni 0.6327469415952991 -0.0009222615900219975 4.946302646413866 -1.4664207176196098 -0.2662099644370125 -0.7575385225873663
Ni 8.899424151306349 2.247744314861009 1.4093139385987032 -0.13879766172790936 1.222116037896121 0.21535328679646137
Ni 6.822389183418939 0.7753173052630784 4.891484472555664 0.5114456406152031 0.14072933153298345 -0.6935805316781668
Ni 0.7983365543576215 7.507718678568421 2.4981046840087555 -0.40369404955982086 0.8366418537784364 -0.10502159371872881
Ni 7.405360375470713 3.5258042395977056 3.9122373029860946 0.08972327279876162 -0.3632878778286324 -0.2671175638529464
Ni 7.724604772016789 3.7159774899504665 12.634770044175472 0.9511667590019102 -0.030018143628645078 0.03665287533634332
Ni 7.969367904650734 9.103194848178664 6.999591652178697 0.28600231657259134 -1.324462655885848 -0.12861275077510753
Ni 7.069917281766559 0.41847301312379787 0.3942286295502018 0.7788768790538264 0.4034135422049246 -0.474889438757724
Ni 1.9259896204959381 6.4475271377310035 9.30195859233592 0.37736672451920167 0.6053456704994736 -0.512799069319304
Ni 0.07289504673954932 5.038722534921661 1.2134643227791504 0.13875369586385136 -0.7105688387060473 0.38059525875882844
Ni 6.1311750408459424 1.790169775093586 6.957246747990675 -0.012851916262003672 1.5248888890588317 0.18712180275459386
Ni 3.7347137707733986 4.427301300921279 0.5699076385828536 -1.1830805212602142 -0.36982825005031145 0.08487468645720866
Ni 6.066080107909183 5.440115518066147 4.914993047819272 0.3970382348062001 0.24703776238393588 -0.2018763353559491
Ni 5.307588164730737 2.9441336728651932 9.410649940257418 0.5295894014037654 -0.6245456404666921 -0.07445991888178789
P 0.27430278936050706 5.872596174925574 12.522710713346823 0.31730909710567284 -1.025286006714828 -1.278466648771708
P 4.051293249707281 6.195696971019672 12.551956592466308 0.26017301421431327 0.3745850480090065 0.03558381064188066
P 2.497064183753346 8.507444784983095 1.4811975899850924 -0.17210038964509716 0.7435936303715001 -0.48292696435021987
P 6.482161971407569 7.736901593217082 5.92757351621795 -0.1329391460646033 0.08635564187810935 -0.4884512366025588
P 4.552870763562735 1.0969364799270513 12.739720502629751 1.558793769336393 -1.0994325081212548 -0.4694073325972303
P 4.085255032519334 6.203618961600629 8.300852731648995 -0.5569971039927569 -0.059021729949846745 -0.49740921712679503
P 4.700860096218041 0.8679136422407604 3.7095507637225618 0.6111221679719346 1.5020739480468452 0.09637060291195015
P 9.257177971640917 5.694055790190546 3.470815983966986 0.3129274230982095 -0.9359458282870977 0.6248606006039495
Ni 1.6382603759165901 1.172463701263764 2.7299443305158535 1.5240257697275883 -0.4597780370375823 -1.2276002009391438
Ni 1.6928684487616796 6.646068047480414 4.9933070635463475 0.48400014280974063 -0.011156016616819496 -0.8802696177707163
Ni 5.9560999585349625 5.644877600671326 9.454712033678144 0.30136337240969385 0.4287175681873519 -0.8926906171428883
Ni 8.363712044281737 2.477572994528325 10.487180245594988 1.5104035509584635 -0.1784695263962346 -0.5393109995669034
Ni 2.2893461345134805 5.468065319507346 7.0493246538970435 0.8848284407859923 -0.38086136793602154 0.19636928949479085
Ni 0.7734100246375596 -0.17805469667874393 9.218359308266027 0.7522271376767818 2.219194986049114 -0.7042485529149742
Ni 1.3922057132453367 1.1583569189548477 11.286570943130949 -0.35765793323636463 0.658078482116815 0.9577238433941377
Ni 4.170823445132025 6.922710143359201 1.3772321505663108 -0.12528420062250684 -0.8863330503559769 1.1525707827071312
Ni 5.834823468975265 8.06651461118944 8.041777263334 -0.868562099525801 -0.41600680548890295 0.02173816300803998
Ni 5.185202050772788 3.0054722543554133 4.9235125984245345 0.9922470739819877 -1.3704725469570591 -0.4551528795607452
Ni 0.9866289004025268 7.699037934447245 7.2074561354580045 -1.0527302189687096 -0.9666021197203739 -0.4041046547346782
Ni 5.187675967463972 4.545530871026761 7.2694359343259025 1.0459131960468762 0.5144450895631592 0.03761806746309005
Ni 8.426960634982063 7.327341046878911 9.294796057798028 -1.6250179305719499 -1.9008854727033844 -0.6108907686874189
Ni 4.541647185632882 0.8332533417747265 10.58535471899437 0.18005435438485118 -0.8497619361001623 -1.2435058164258068
Ni 8.187963911106243 7.150847100583282 4.70060542832336 -0.05395357139831998 -0.16718495462135077 0.7293959987148793
Ni 7.214605027072968 6.024541955230382 7.20933340165308 0.32435751931202206 0.3406593417958391 -0.34590104981075265
Ni 2.307354792780182 5.537562368909299 2.4987304394071135 -0.502094024196974 -1.0148581265132846 0.188529738845714
Ni 2.442210538295529 5.449920232011351 11.44428949889125 -0.801999838224535 -0.5075632748416613 -0.4006038406702713
Ni 0.6521253493241045 3.4735427494964597 3.638864960969367 1.5486517958063846 0.044954710333819356 0.0266476844945154
Ni 3.587615775749476 2.771587078937113 2.926746222355873 -0.10417467233740123 -0.5783593717186168 -0.6276103954349449
Ni 1.0531608878878416 3.3560044208193953 7.88337929001182 -0.5438996473788503 0.9232242669553714 1.2903451453768489
Ni 3.66952788501711 3.0367418337094136 6.719136814105262 -0.37222117576252023 -1.9812525010982265 1.7494644657845095
Ni 4.436633060204933 6.729580926371754 5.99317414683129 -1.032418503994551 0.5103261822987792 0.4166611512434502
Ni 0.7578134351447615 7.655726201787631 11.270490484638257 1.5413076967364874 -1.330143251210393 0.8739195071829724
P 0.181301712335922 5.724024744225285 8.011346268976054 0.5030723289498433 -0.4457737523386903 0.9825984951486303
P 8.657671556998809 1.5659892655190082 8.382733916957989 1.8594032942991976 1.2046993850815704 -0.6502852113246413
P 1.8252866587136545 3.4681583425803546 10.416760025074817 -0.7984941390641216 -0.21219288679060874 -0.06520446172179094
P 3.8350620165595197 6.2880140828414 3.7953720251735437 0.8545231049342316 -0.3982546237118045 0.44324455815893343
P 6.892722998760557 4.011819726031783 10.592503610609336 -0.036698898082930344 0.5752287965094351 -0.09856452523947541
P 6.53251345229871 7.8622800549375285 10.14724863024709 -0.8818099656746425 0.4370132325372409 0.6558138544523545
P 2.4503781014892145 8.661191431114572 5.9408990138071145 1.0415415493417417 -0.8943867738983887 -0.9552298733276904
P 6.940182179990683 3.8101773251364413 1.3953226663705887 0.9906424484990293 0.08844723429981542 1.7903174952451295
Ni 5.333709814499407 2.5718637825338284 0.6827200587572011 -0.6967910681956645 0.5813518786880376 -0.011331365852419195
Ni 1.376534542440525 1.1060135713160253 6.984761794954528 0.010908419382387664 0.3838579886705002 1.1627747198233265
Ni 6.836596013829336 0.9445996024982699 9.010827712306195 -1.3379437210914182 -0.6807227018788922 2.2775916808204517
Ni 2.4891603837362934 1.7433017871903973 9.167042817959684 0.8426366379092908 0.31561551145333383 -0.5565872701488479
Ni 6.602992792151575 1.5917471040095634 2.4732509165443166 -0.10699671516722864 1.869659424809567 0.7777857028721766
Ni 4.295210521119608 7.310924062953963 10.230806985548192 -0.09446515835912117 0.31475316345303855 0.5316005182965232
Ni 8.136157185102642 7.301483160286874 0.16616625363813495 -0.5610651034145434 0.049120411675734756 1.224092959116834
Ni 7.604819908697364 3.836726453156897 8.358053869378852 0.36767032316704423 -0.42445159382214637 0.04614795931097214
Ni 3.140873716787933 8.54953774986102 12.410691401758767 0.42564998500562184 -0.32103745379985354 -0.5063198893528635
Ni 0.1738317572680219 5.011100163630766 10.345355695047346 -0.4702331709326353 -0.34501067678599934 0.10048513930095598
Ni 8.491982805663199 2.1951553946094586 6.159200333127351 0.4297228695234147 1.0507504695345193 -0.8157734949698595
Ni 3.435033325707967 2.7058736668275576 11.71336250112885 0.37369184677077577 0.5533273684506536 -0.17431616634949335
Ni 1.3130130932816133 3.401853737143862 12.681813571020353 -0.8411870499469577 0.38207955661383874 0.3223263478146062
Ni 3.238575235525766 8.34208346379779 7.893802483129819 0.7819526897656727 0.05407724146037783 1.153046179681653
Ni 5.623594640901588 7.8230157227469475 3.5818502765195457 -1.6456916568712174 -1.152416002296822 1.7689968793904824
Ni 3.048802177578932 8.383348758018004 3.74220464498979 0.5858664787289395 -0.09134306779037171 -0.20230596669419998
Ni 3.4321228354830455 4.220101682752728 9.158708811106262 -0.6013123809703644 0.7645306376344833 -0.15467062420442396
Ni 7.177032417325622 6.251496525800588 11.526250722681429 1.0147357420028071 -0.6904139610247271 -0.681000381020311
Ni 0.625425239623231 -0.07785834210123575 0.13846475339424935 0.9640047913068429 0.0024816287712731457 0.6533785055379844
Ni 4.999221725400305 0.039561747910440655 1.5775621022758524 -1.9968305580421415 2.0116928198659547 -0.3632187151535938
Ni 5.933807422468455 5.178216874232977 0.02774606712545469 0.42667842627013614 1.1261321288996282 1.4759996195572966
Ni 8.13549322952008 9.066277098731927 11.185067596536813 -1.3296861090683165 0.5044702377386344 0.340419200760575
Ni 0.1288701404621566 4.9776295260441685 6.00929553409277 -0.4512615149261389 -1.2566449249109262 -1.4933751347212667
Ni 7.614306287774218 8.683302061542022 2.959626576143728 2.022976363199574 -0.927584600806596 -1.2103326721079477
P 8.857212947763035 1.290902462854163 3.4290167966961373 -2.8908020987799827 1.1122350592025618 1.2513379108757159
P 1.972857608399127 3.435033325707967 1.5698147411083894 -0.5330825021586884 -0.2326544970790703 0.09215116551396388
P 4.388164302678038 1.2674457306976863 8.117241727225236 0.747298590026913 -0.08669219928192166 -0.20512440997960157
P 8.776319510074122 1.677561089234983 12.659903036795864 -0.8547115667959537 -0.0929356090884722 -1.3307500315564564
P 6.320065856443347 7.5166593407281015 1.542618938541084 1.9958252567060792 -1.0492268338011415 -0.3695055766035701
P 1.7915067815406596 3.1855679323043833 5.87495185295137 -2.2417903548511267 1.2615739867814275 -0.5602917155836286
P 7.078394084546642 3.859473753321049 6.087249376654511 -1.0011814003571402 0.28114190315649645 0.24437769905326948
P 2.671984646271128 8.891629494672731 10.143880647339936 -0.1916222617281087 -1.7779340339791123 0.7850094743141255
