# total energy = -381172.5986269748 ev
CRYSTAL
PRIMVEC
9.21422656619890 0.00000000000000 0.00000000000000

0.00000000000000 9.21422656619890 0.00000000000000

0.00000000000000 0.00000000000000 13.48595196792952

PRIMCOORD
 96 1
Ni 3.7922347839629897 8.459139251795692 0.3540548181610618 1.2800617611729697 -0.14410364732185504 0.5485888253244036
Ni 7.330949334460003 3.8089678196529735 6.20225724176908 -0.32153110560682047 -0.6774406886935107 -0.4137005259532294
Ni 3.466733011504638 0.9821444241163931 8.438619168931378 1.2171844049224585 0.09353467612505183 0.14003667634133302
Ni 8.752068732864126 4.146789013211275 7.983616047296333 -1.0374324122693745 0.15464568450375948 0.14701490743137907
Ni 2.53246570932941 7.229546769609634 11.897145068712963 -1.5850547599154508 0.08939417159411701 -1.1205222389120186
Ni 7.470821295789272 4.454627113082788 12.109427951998898 -0.10250499794446219 0.2116339289633452 -0.17652397263408953
Ni 5.8235018460892185 1.8925192364545462 6.982945498973838 -0.4389266475098699 -0.0789421230228576 0.8375191141770674
Ni 2.296784218757601 5.93735283121336 0.351549469920915 -1.628121509197938 0.5297665504115779 0.6183595662606383
Ni 1.5546796144428419 8.48869849105421 1.6359804223211476 0.6584800884306079 -1.0399510649261703 0.23556884251238785
Ni 5.374778219951267 1.7109805419809447 2.9213272688555123 0.28690066001714465 0.1398710972977462 1.1393044046155283
Ni 2.7528792262567787 7.38707318929904 8.180120488778565 1.2992069666428527 -1.132971520418965 0.22481468931967735
Ni 2.5169489515640286 8.328370946447537 5.836194443370581 0.011107679877387321 0.9472388847024139 0.2990856321191107
Ni 4.2069855562523895 8.846321057794105 2.7845798518007325 -0.7676650694984068 -0.26739267189120397 -0.4933368468296342
Ni 7.0551306723763165 6.337572767994442 4.654501197269769 -0.7204920113570301 -0.11310488494749553 3.610741322957336
Ni 4.438815500062957 3.265586442610175 5.156555846133522 -0.9373774185273017 -2.0240096895600947 1.0374167285400906
Ni 4.552353201479246 0.7159334362143952 5.149030587186381 -0.24646440637896908 -0.29729125922284927 -0.10813082877167184
Ni 7.036158579597861 0.6283955182818222 0.5237191386843978 -0.7284835142029389 0.034874700389998 1.1165735386769158
Ni 8.372092452146312 9.094137684931834 12.406590448814015 2.1139705322909594 0.10915361360923137 0.35276435258948924
Ni 7.47987888063688 6.020133443899931 7.144075602726214 0.26915002090194295 -0.018942602540773828 -0.8313099000425618
Ni 8.739159601255277 8.082802590624985 5.412276436935826 0.9906794723845519 -0.8995274375590637 1.2694379629105363
Ni 4.707668206760284 2.9365187644183295 11.695921100314205 1.623286806813456 -0.1588826054032425 -0.7965742963335893
Ni 0.8663704298796425 3.800186661606413 0.3827000061307873 0.06280048026598861 0.14392109899740377 0.5034927043167134
Ni 2.2205364928024167 1.6699035193455112 6.463871251969683 -0.39168082714902863 0.24117667561746847 -1.0269921907726571
Ni 4.143923388707098 8.018035791139908 10.340489002642641 -0.6189367789203469 0.7070723955170145 -1.3484495057187487
P 3.7977817484373126 2.898012511032624 7.20987347417919 0.756060395379943 0.7990793221436303 1.2552076782437673
Ni 1.4635693408180848 5.385595722098866 2.5687365913173243 0.10590219655146922 -0.21543324810477735 0.16772951427091115
P 1.6630665631329737 8.771962248312736 10.135583029253953 2.90035837500985 -1.5036477202918686 -0.13517883402839947
Ni 3.2589614136117726 3.9017827252175143 1.6351990558968577 -0.5090974520980006 0.025329479903724115 0.03711413124347802
P 6.745247014177063 3.661788976549388 10.19983014635306 -0.8399513777676438 -0.8978333376860924 0.21942102910793176
P 0.38923197143950405 7.013970721700569 13.253791601463789 1.625896219411845 -0.8153214950341056 -1.7681615279733809
P 7.730828344853129 9.208495452524557 10.35286923763882 -2.1546682671206376 -0.2690770015721624 -1.856332368683358
Ni 0.9012858991197612 0.8588700493445947 4.532170359312208 0.9750183688085272 -0.006579710100046732 0.1256050742970353
Ni 5.348600601892212 1.2923505802502 10.044067329654327 -0.31072475901993585 0.806171195993405 -0.03187987942773219
Ni 5.03608167485632 5.311568624778752 10.386691899592138 0.44399249206855146 -0.664638908943152 0.6196991110076683
Ni 4.082151212900022 6.591747211556227 1.7584328880711693 -1.5393585434299166 -1.7395847447769524 1.1275518920652905
Ni 0.8126431954056743 5.755740422926146 9.109639699934492 1.3936613263686966 0.35632044537186375 -0.6791612709290433
Ni 0.49024108880971823 2.0686860367611537 12.160673795222143 0.008511637015436955 0.6005446495664045 3.1135902445879347
Ni 8.53546069156449 7.975014566670453 1.1535787975890937 -1.5761849682296467 0.6232120092569331 0.7573549458216505
Ni 6.549748766250639 8.111154766185601 6.412287246626491 1.1348175724887681 0.06952571480496413 -0.8729908247211159
Ni 8.485455083255271 6.625978063752422 3.178746963061578 1.6530421836990177 -0.9799368891560671 -2.2611134806597706
Ni 6.972902913291837 1.3406699850730386 5.033442720329002 0.17792342408477746 -0.7547740724683517 -0.2944324496178155
Ni 0.618266318868827 5.473444159471282 11.501116683658406 0.031175911382172114 0.8798279022476073 1.8641816895244476
Ni 5.882205684404685 8.794491032597984 8.583148000435603 0.5810258628071865 1.050231878026888 0.14828091862799625
Ni 8.191714750237102 0.6683640694450615 7.169428547495482 0.27583694600381525 -0.6598134625300508 -1.091148927956224
Ni 5.65298336675065 3.808368894917374 1.7342667357010588 -0.01925242047170878 0.624421456184002 -0.45339295944684493
Ni 8.615891676442171 8.817968882233489 3.3062432965080184 -0.7333012473065564 1.0068283142302725 -0.6547566168324336
Ni 5.398725995148551 6.575281388440588 8.321979037384684 0.9139551829486195 0.8803513788512451 0.055661555228362206
Ni 8.672688169830419 7.722406541647927 8.31774417879266 -0.5012093075991756 0.17458638929174447 -0.14640966974721237
Ni 6.070369407876688 4.232969675550712 8.18002558224354 -0.5130404959061486 -0.6493290180589592 0.2585383068243677
Ni 3.746338720762654 5.301423761180364 7.679306074828837 -1.5450825903978873 -2.407741437065376 -0.03687938952485262
Ni 8.282189242219454 5.4498096679818495 0.8379694189175075 -0.16149818864921864 -0.5087079299690659 1.1577600402175545
Ni 2.932095935601594 1.2562308115801912 1.5011891855951032 -0.4858667637048343 0.42568289512608626 1.5418293735679123
Ni 7.402451733663898 6.945591945348493 12.627207600151488 -0.4266884535724651 -0.6559218407851284 0.4019606118084819
Ni 1.3536528304954987 3.0338209983865174 8.85247523980806 1.572788026732956 -1.210276879169348 -1.8012325994957368
Ni 2.3952566595168836 7.513731949538311 3.571255513516147 -0.24438438392148878 -0.7736038035803451 0.34887478772709596
Ni 4.784127859929605 6.9732899108133015 12.262128881164712 1.3657674281719059 -0.7245078173846425 1.4620297876407657
P 6.241965951739336 8.73412863347624 3.4269422949167385 0.9733612928210784 0.3085958856023911 0.4250897416267776
Ni 0.36763474547378105 5.453209717634716 4.924908344011645 -0.7766811569540881 0.6034919051201865 0.10358948925789256
P 0.818664692555126 6.7759211748664665 6.804067873171639 0.2272549233300538 0.1447363958098475 0.09374216415016759
Ni 3.98200178288106 4.840518927342986 12.829294020169506 0.2580207437580008 -0.5559663487353974 -0.044449745672942804
P 4.229007558069053 0.7887930910114265 12.279714232824587 -0.5154539904436477 0.7585397101583711 -0.362227297774602
P 3.0225519991305427 5.721758354850892 9.772878816488161 -0.40910442194211477 0.5343760241591313 -0.15679435541564607
P 1.8175430737841731 3.8093732456278406 11.773950857713466 0.3132989475050153 -0.9327736012067032 0.08129828195985998
Ni 4.831903625377053 7.2812109387251285 4.591589221619714 -0.41127391878960784 0.3786000827056706 -0.09320840313388463
Ni 7.987693342611761 1.7576229575441045 2.987259668018331 -0.7937833638520135 0.6105436697606453 -2.1827066613150925
Ni 6.291381849539657 3.765402955808126 4.062561766932562 1.7642485660722196 0.01760408623500839 -0.5322777468692059
Ni 2.480939753614438 1.9281967222428817 10.631272490312286 0.8759121121329688 -0.9767489783463889 1.2665734968785476
Ni 7.673036714981114 5.53882831214536 9.525869355609487 -0.07717063294473162 0.16126627514407066 0.7897778422370463
Ni 7.525222090235123 2.9113915682032494 0.5611851058755007 0.724566695647036 0.13579949833153387 0.04146443779237375
Ni 5.320552495812747 5.267533835372126 5.973171294670228 0.4192535945609747 0.44859399539630485 -0.4101482898255969
Ni 2.9441942152607066 2.600346917439603 13.098203855072384 -0.8620271266207605 -0.33915524644648687 0.3224597880686769
Ni 3.759376851545323 3.412415145099102 9.399088046155086 0.5088272291557495 0.4427506492416504 -0.6507480098936728
Ni 1.1481018612377023 2.5460474794874695 2.6532531643144646 0.20167836041253007 0.4506441930571143 -0.13777796221414337
Ni 4.032947242313836 4.984822931715693 3.7223522458132243 0.6823368404435474 1.6356049620591766 -0.8634726008180355
Ni 0.3089152429729222 1.035034085383192 10.312275961905218 -1.0205636615384939 0.4727129999316956 -2.4743612910774546
Ni 7.288462535139234 1.9733095761735868 11.593131794345254 0.07534977768590893 0.6751567777553404 0.04195449005491485
Ni 9.185146602062874 3.6047344848134966 10.43316385196132 -1.6484764187052061 -0.43466118736529663 -0.14010661034732
Ni 2.6463996224938646 6.027053328152782 5.66001382172392 1.5822124053706494 0.5470978426011739 -1.442839330755244
Ni 1.462933559175679 9.099500364872126 7.944722796389163 -2.4184135720672413 1.6988751828727322 -0.00886773480327505
Ni 5.862137098648747 7.6597498000775035 1.0984224365537174 2.423805432506774 0.5564492019090869 -0.04144978250435442
Ni 2.21076019827209 3.8719102022511445 4.445833055118845 -0.7371494174080531 -1.1035506440546867 -0.11812367831832558
Ni 2.063894638876357 0.15829857188699512 12.987444243006607 -2.2002423562060107 1.5597170524816106 -1.9508080685654403
Ni 6.09376432947188 9.031093945839945 11.747397299204989 -1.2302188695089136 0.32268141716117976 1.8695707217505029
Ni 6.457007574499711 7.180075586449103 10.576546433663873 0.7350732516053147 0.2491437529833451 -2.116498955139768
Ni 6.198115446866741 5.732972068746658 2.7819630114174974 -0.5304489211905832 0.9763517429079701 -1.720807207059133
Ni 1.5383151478209196 4.459685723541929 6.708762362129674 -0.49583955864682994 -1.6343757176377658 1.4938926977876335
Ni 7.634558104275513 2.064779204639704 8.817237272633387 -0.4488927575836463 0.37397955321452364 1.4607159539253487
Ni 8.894225822415375 2.9978763000238375 4.603577851981078 0.6367936045961098 0.4622894906055264 1.6650690329565647
P 8.727724745918675 4.337219436451855 2.9547859688541185 0.22028543399075612 0.3011183462784234 -1.0767281245452036
Ni 0.20777712642888654 1.073402125368375 1.0304251291870852 -0.17238346810315475 0.6125447593510741 -0.631203512102842
P 0.1857348533134795 2.448643889025565 6.865900862874946 -0.1765460841212766 -0.12670704911196243 -0.5626090508628956
Ni -0.08728636954362128 7.454032974739079 10.675452864500798 0.06814991750336005 1.0401858066447955 -0.04406150909558863
P 4.5702472297336225 8.377528845900216 6.751337618026777 -2.1141877905080877 -0.09553396594326773 0.9926535653917873
P 6.001594419776447 5.242830493585315 0.05173327581575653 0.23912570662571073 0.7059747915774617 0.548289806026746
P 3.071562470955996 1.7665515432178898 3.7961876872179476 -0.5971271392444232 0.11338693496428862 -0.2032660166146241
Ni 5.059227812330571 1.9022863167581712 0.6635653001789031 0.06284778856415628 -0.5344469866063828 -1.5750986771440034
