# total energy = -340874.50262355915 ev
CRYSTAL
PRIMVEC
9.21248527760500 0.00000000000000 0.00000000000000
0.00000000000000 9.21248527760500 0.00000000000000
0.00000000000000 0.00000000000000 13.48340341605375
PRIMCOORD
 96 1
Ni 6.705334975238317 8.017496876787282 2.3168534252433797 -0.1882695432057919 0.2671144785291529 0.7718652236226836
Ni 2.751502160998723 0.7979559862818759 5.5960301548413875 0.2752219381276357 -0.6880539454329827 0.8483781683787581
Ni 6.399240942669559 7.259281709072044 5.126322385487547 -0.6560447395162379 0.33626198405909186 0.012092412388159819
Ni 4.546389073459937 1.1077092179638681 12.791299831893305 0.6122146297051649 -0.8570281307442724 -0.0993800791622353
Ni 2.750451937688278 4.415746821131713 2.7387354990371935 0.7547000246973067 0.4307551674426711 -0.34696754340205405
Ni 8.066654697704243 6.342049834676215 1.4257481588161587 -0.7700682796232609 -2.2424794104983508 0.5097119457535481
Ni 6.596038051070624 8.93418521455753 13.431654149218136 1.001110695020205 0.966348094728039 1.1334381756427383
Ni 4.467567050265502 5.608754439371092 8.733982250385663 1.1114830115278858 1.372419643381101 -0.360769739392469
Ni 1.730537703483522 2.3187548821843955 3.658708087773877 -0.04318810535169982 0.8921380870735279 2.023770576966095
Ni 8.141146852864388 2.036180324278493 12.965788907432598 -1.0515783647524535 0.18600851508575708 -1.004552116601586
Ni 1.7060232804212978 5.200383396341299 4.96104303138204 -1.081847190939324 0.21506660879397801 0.49712485311715676
Ni 2.513221231835088 8.158318925238678 7.525492129553885 1.7729689766643528 0.5533911318090534 0.7307370861238061
Ni 0.14021033943548641 4.930107506149816 2.9597549947202983 -0.1646668161851874 -0.3632547105978518 0.5162931985154915
Ni 4.579250008094643 1.8990524823840136 4.552374425080954 -1.5976446807653193 -0.3140373683329366 -2.09198194383501
Ni 3.7985379515714564 8.50776691306141 11.413310117495362 -2.5331876171870435 -0.7995948283274682 0.19761576030738223
Ni 8.320688976524549 1.9939502922163972 6.906577107738415 -0.017451105596911883 1.1320358959785732 -0.907162071286186
Ni 6.489670697189963 0.16299465778103067 6.613433986834774 1.290283696011294 0.047736901064646814 -0.7931516438052857
Ni 2.302955470101827 9.082312763756143 3.431148648861958 -0.03237713077912489 -0.15601325427524743 -1.2738664309955352
Ni 7.5214782497612465 4.906514331605525 6.194181156311143 -0.6803591478918863 0.277126097128884 -0.6326862672959555
Ni 1.6396196872486137 2.9840621368659876 6.146449428099945 0.6297629230015734 -1.0511351065674477 -0.7389671873430822
Ni 6.883172789140301 0.4679352872053354 3.9825250993306494 -1.3090663759354357 0.001725981552171221 0.4928113133434674
Ni 6.847695508714661 5.370003673463311 9.764707335948374 0.3252625476247947 1.6226198626534185 0.06492472569784302
Ni 8.109197954262436 0.42069734819975046 8.60363848257725 0.3333700072232775 1.7795067777828708 0.794745727765283
Ni 6.534701324746578 2.3136880153357584 5.384111673266952 1.3213940442628533 2.207988318700017 0.948403080213844
P 3.3447125066667986 4.415405959180077 10.121640467979322 -0.09031822607028316 -0.3201838475503066 0.03671355337094968
P 1.491510563020361 6.386030238922385 7.131951345165794 -0.3788322533211346 -0.6780423268332516 -0.037117473677587685
P 2.7605396089596552 6.860067876310516 12.697442111637669 0.9729144350916471 -0.505297104515304 0.8169924549786252
P 4.458621727156363 7.962811564762719 9.500311775046864 0.05895333860575653 -1.1529595335051177 -1.24302810545844
P 6.640129005138948 6.101272322028978 7.817258905171733 -0.49799182910314227 0.07026439274320156 -1.5047175563172794
P 1.4907643517208344 6.64371266187371 3.173184323864145 0.6845598162367952 0.41663621154278574 1.05940531699604
P 4.089339258742509 4.374548587409704 0.7617960607044477 1.2279151610764012 -0.1397173453287013 1.5891626114362372
P 4.753614715084016 8.880937050220945 5.2734669625175234 -0.4167390556692371 0.1451940521725564 -0.06418861886276686
Ni 4.836416531875925 7.365621425497168 6.9602002202218 -0.1798383817193032 1.2798702139874538 0.6708632925863091
Ni 5.427904142815464 4.138220705104089 3.638482997811153 -0.3320649152586087 -0.5354083220783876 0.4929498958038607
Ni 7.655160622198652 4.112324409264963 11.66472160178511 0.6628576486730132 -0.7629388676673312 0.23888273737696927
Ni 0.5716181229047378 6.868469662794074 13.325350361485212 0.09518918100933929 -0.2832581781685509 1.200807506226332
Ni 0.3385569878437172 4.537701699935819 7.262322750429744 0.4813441932441323 -0.432132764516488 -1.142199466775136
Ni 8.359648576347977 7.61539032367944 6.951341494473347 -0.24174463230579657 -1.2647865801814542 0.2551035701112059
Ni 8.637156267405244 6.740812255663957 4.533686898894662 0.5257173200428688 0.010804289704355588 -0.5378395572276996
Ni 4.9932406670838345 5.216311783216378 6.383663551479813 -0.10417904321277541 -1.7382318302934836 -0.9064303353264841
Ni 9.090253925980734 9.19195054987547 3.3565044876963537 0.6847925010728916 -0.3270954870684754 -0.09720389744652291
Ni 1.3551381449105877 7.958592246550581 11.498295293274778 -0.16379366955161467 1.635104111163358 -0.787583919909521
Ni 2.220457665320835 6.6102989781282435 9.484981278459925 0.90449866552141 0.7373754173759302 -1.2488025460483718
Ni 7.768391277537924 3.682690950441253 8.521200558949925 -0.9581190219500273 -1.0777259696820989 -0.15394017379630262
Ni 2.658115198735751 4.374714412142931 7.849335857317678 -0.2948299421665503 0.8567321967704085 0.7438571684455318
Ni 2.1892734029887686 4.845048630488967 0.23005694364403778 -1.752492453977556 0.4745199712334473 0.18634095872451137
Ni 6.096629229498592 2.670266466687301 0.32745686445113015 -2.067453876786659 -2.826138597163326 -0.21023190640949602
Ni 5.033407102465757 7.198506944343937 13.148192428989462 -0.847306018360502 -1.3595582140374005 1.6428762989096095
Ni 8.900863655663857 6.167362690705565 11.084584693835039 -1.151482434738959 0.540481622836237 1.516285206550221
Ni 0.8583254016620924 3.3234869408135985 12.384816427076759 -0.9437316428801037 0.210753840351237 -0.8336987119897126
Ni 5.994094269452535 0.94626962768111 9.895820346269263 0.6077807623035274 1.1508951947769213 0.10321847907171902
Ni 5.936101675248588 8.39200282429782 11.422168843243817 1.6523675262294963 -0.7546560588332487 -2.2147500629038825
Ni 0.7484084772418305 0.7665174593588596 13.266226474101241 0.4413468269155883 -0.3052853331719194 0.20651846211365077
Ni 5.36150054964278 6.067655963609567 2.1033439474784728 -0.49619257111087456 -0.8638325552606155 -0.9736065760626652
Ni 4.465862740507324 8.06027044547496 3.2259718639417643 0.385085176209382 1.6289797434331752 -0.10006656370629863
Ni 4.1075247044865275 1.3487170427405877 1.976343390541642 -0.24624920504436948 0.3544869917075508 0.20395198693805522
P 8.965433964285854 4.692775462959653 0.2548901186934673 -0.2902268961769002 0.5794446343629956 -0.6371530448180575
P 4.861290241860144 8.7003170657948 1.1625797009405363 -0.6563432445932632 0.29056242513944797 0.5834061901139048
P 6.155828659261032 2.24300982903986 2.599249260936803 -1.5132788156237293 -0.5613656653740977 0.9896849696817664
P 9.069958821130648 8.124859179067313 9.760096487116115 0.570381752829779 -0.6717760342085656 0.6119935148332943
P 2.454952263075761 0.9024485994285424 11.611920242979723 -0.745223195555123 1.3986438671849526 1.0489589248517355
P 1.7812524343957903 1.5593513038810223 1.8174952723398325 0.7533103434386317 -2.1929103413209714 -2.1259780982747967
P 6.816354634134546 5.832230904851527 3.617313628117547 1.292608744600045 -0.11136913320331142 -0.5401980301575471
P 0.2263157534127077 3.955444999145979 9.931093109523921 0.12507208461170072 0.7327502598990928 1.2278380279815628
Ni 8.07018307952793 -0.10050084331845834 11.560804768962154 1.3695045266168349 -0.10757058539282766 -0.4854188775341382
Ni 7.73227833563491 1.073586172859592 1.6026914404072283 0.3469030087127058 0.23674589353962452 -0.017204279693428436
Ni 5.4180099337328524 3.680037754709603 9.978986056225757 -0.32100454367938913 -2.081426022696035 -0.030312277830296178
Ni 8.188793826211935 2.583263756653612 3.3216905062036273 0.7525261569744395 -0.7335676135940656 3.4419951944964526
Ni 6.86754841427614 7.919162809983006 9.100879606386584 -1.4557933198127508 -1.5981306192628024 0.09193776395157714
Ni 0.23211224908754857 3.0332015328125883 1.54475319986584 2.716706275971412 -0.8622222733507022 -1.6154490559365922
Ni 1.4694558735010206 7.860543766786864 5.340263928807365 -0.3364792422762205 -0.5801123498539815 -0.37954753422060444
Ni 4.125553537982496 2.816846318375783 6.877452757092449 0.09294435083922056 -0.21767087918604444 -0.783706696342302
Ni -0.052765430113189044 6.013753712825247 8.898844278912547 -0.5810978536957024 0.7762612958078503 -1.087651970546559
Ni 0.9992690549178543 2.3893317311433204 8.538891294239813 -1.405504855970844 1.1431559171511345 0.6225031561153666
Ni 4.755530912001318 6.1992747393668 11.07480932581124 -1.666711196545678 -1.0169936847990484 -0.9593649785419863
Ni 6.071746307029194 4.84109647434703 13.438139738784391 0.03355521024762608 2.594138445838803 -0.6454350823211916
Ni 1.565192019484724 0.33492358368898545 9.724203723608888 -0.15464645583470787 -0.004417412341405295 -0.8413559714246542
Ni 2.6100076011292366 8.708202953108316 0.466768065333113 0.9583195679966076 1.0799962537735144 -0.32763464740139703
Ni 4.7572167967891374 0.31997079899439834 8.05286821363336 -2.059844439870517 1.0350230314969335 0.016505453854190926
Ni 7.350752474417713 3.8081373611283285 1.6552357708761134 -0.043376567213422076 3.268423876732784 0.8363217514348564
Ni 8.837702857274301 1.9404902407206859 10.574655214188198 -0.3318011200742608 0.4324040159000037 -0.23314814888603716
Ni 3.1007014117216136 6.727002740380125 1.5489872580542647 -0.28780414566802043 -0.6074640023940571 0.6797024881444939
Ni 0.6863863420204405 0.3441885800338479 7.1984111344980715 1.1486418799663702 -0.017791262545150004 -0.7905699991210384
Ni 1.883713694560412 5.402118396798491 11.407956742357648 0.18601725683650544 -1.3728806421779196 0.018658495641451736
Ni 4.403180991347093 3.4734569870480776 12.294247564030147 0.3462592044811198 1.1384289439891102 -2.6576446939225646
Ni 3.2686081666002686 2.2197575164472054 9.697897472179283 0.38977692525809643 0.03579926908679641 0.35631376050364444
Ni 3.7970639539427617 6.339617738588869 4.4515861522249 -0.08250207245997404 -0.8948757977196652 0.46814543516567114
Ni 2.763662641435452 2.481327608144212 -0.08794606851605348 -1.4148567294993892 -1.0790166634690643 1.6578709725462284
P 6.019539153517872 2.261259762180133 7.652371081686348 1.6230615781765274 -0.27573230210515093 0.619040651488063
P -0.27908671101700433 3.505461160561106 5.19135331836851 0.2961597167215673 -0.07534617814148314 -0.1766692399627022
P 8.447333010284938 8.331172784658637 1.0763314934430352 1.4034927106368216 0.9858848792093861 -1.0639898510429289
P 8.543410018220278 9.224369285221568 5.501835257628187 -0.11976687034870344 -0.11440714869868683 -0.6095465959546986
P 6.754253271540613 6.171674133769497 11.728282222031451 0.3285129362412923 0.9699401829546714 1.5287553139927734
P 6.313878054997793 2.2711816087182823 11.5513398616889 0.12085933208193377 -0.17431642345980947 0.6891458929455808
P 3.4852581805628127 3.9080283379279144 4.868169204543557 0.3152241895521862 -0.10809226222425256 0.5680762446250539
P 2.629215632728161 1.4449230254684375 7.714070779926462 0.7724375511863858 -1.2396458192497684 -0.24982740931393102
