# total energy = -340858.8609030951 ev
CRYSTAL
PRIMVEC
9.37988343216540 0.00000000000000 0.00000000000000
0.00000000000000 9.37988343216540 0.00000000000000
0.00000000000000 0.00000000000000 13.72840753612392
PRIMCOORD
 96 1
Ni 8.34778678765442 3.7675709100036436 0.026184882806234478 0.5294315356696624 2.2262230965404886 2.114323287644688
Ni 6.864667746719696 1.6660080096107381 10.151045004735407 -1.4148053074361635 -0.3137548040955112 -0.6664196549926588
Ni 8.73007331998387 8.273038495964034 8.129303975023392 2.0903930020813353 -0.00029130598817369186 0.850806832424909
Ni 6.116584517271199 2.4177587735116055 0.7463873465099073 -0.441724264859665 0.8633409603361777 -1.4841621007634311
Ni 0.7244787525958358 1.273150348565632 9.239973167465497 -0.1926393901387134 0.5982437693473697 0.7596357714360271
Ni 1.1275370369579574 2.306119399976786 13.341472620363305 -0.013125995858996748 0.20900009088492394 0.37669798058695125
Ni 2.0599724969100124 5.827440228195047 2.4277455354845956 1.4867339752556654 0.045524723904676434 -1.2646431126250541
Ni 6.664407233783349 9.137488560236338 7.960609584062909 -3.1295046018253454 -1.0109148255948204 1.394046220511941
Ni 6.26987995347348 5.152651408492902 13.328389558843698 -0.13587226055099824 0.07377857654404714 -0.40228482791712006
Ni 7.329844309626124 0.9247083119166001 2.10223074809881 0.3026622937267755 -0.4076139534395173 0.11080246206656401
Ni 0.5611262052942402 9.129356201233257 12.628583651832303 2.167154058292474 0.05553248584966565 0.9890635340476839
Ni 7.015064798917418 7.71440077376497 1.6347242221285225 -0.8328415061957398 1.1143485060011389 0.3842886484500156
Ni 2.694465337053631 6.579978902310746 7.682334703998029 -0.35268799082559904 1.6389329979911451 -0.5641599402897832
Ni 5.735976984090021 2.8963579497207004 7.912148415909014 0.5869378574162473 0.7555636582491826 -0.48619689335074334
Ni 7.544971937925662 8.015363716063595 5.991351816553832 0.790301061730368 -0.1597251559091959 -0.3812850857370014
Ni 5.7723427924579 2.9421036415984787 3.078252650744665 -1.4368571450298804 0.18704184144627786 0.04952741730616632
Ni 8.02222041090933 2.0472346151035694 12.65967890365597 -0.9051650954608152 -2.23274135727498 -0.9473417288288652
Ni 5.176316854588378 4.715623875999681 1.5135154914369036 -0.8851068912583595 0.7892859902022923 1.1038681752951054
Ni 3.2843099316901294 3.0018066001389863 7.3534431585486795 -1.391310566748333 -0.9773200203585104 2.3000919188054967
Ni 1.3125458593072084 7.991838968220766 10.251180889133686 1.516711495454362 2.277037865199511 -2.055900110510789
Ni 2.1143758212674277 0.31915241240102066 4.731097869825962 -0.7241573760237593 -0.5180698307999401 0.30414376336830845
Ni 2.349773377831857 3.9357897408701747 11.563039202979619 0.3952618596320676 -1.5479033476761341 -2.3088773783076104
Ni 4.596368037054823 2.871191722263641 5.5469357498198635 -0.09023646498975427 -0.18525132520475837 -1.1588990389180043
Ni 0.46945847972869764 3.6343859440465853 9.411097886243397 1.1149095207109316 0.16536898445853457 0.26036404717919676
P 1.340835587973064 3.7883098324440305 4.54476179396006 -0.10124849982954176 0.14853237251717002 0.9723428788588931
P 3.4100003707227775 7.936619593997991 10.826263423102304 -1.129132863399165 0.9987128842119897 1.2737188496740774
P 7.890010952837302 0.1904491547849924 -0.014222717366060086 -0.4938544098960011 -0.5890276500657404 0.33550582261935763
P 2.166509213815447 5.159705080892346 9.13766959198808 -2.1269862278243368 -0.8056202085859416 1.2576455982612986
P 8.963960715303205 5.62527559890619 12.810773819186826 -0.8739076801084306 -0.8193290735316018 -0.8502183069112905
P 5.397325669848621 0.948343742384844 6.7076588146358445 -0.7494066375088514 1.0362139664812413 0.9432107373796271
P 8.523762782183638 7.0293503615029955 2.8450753126070287 3.2546103678884597 1.2253954799783413 0.6793317350686364
P 1.7360944991967047 9.158640197551161 8.261810775402683 0.25227329975126234 -2.062629201704506 -1.2754594865142679
Ni 3.4693187540393797 7.918666496960044 5.744706841672683 -1.0245599271820809 -0.7454013730042002 -0.10479945040559371
Ni 9.161885637245588 9.01941458661373 3.6100085647927087 0.5687760989055559 -0.6250668030774847 0.5490829913520027
Ni 7.380964674755075 7.3319923029498915 13.308881277119811 1.448069468805932 -0.8039531052961637 -1.5395197515981291
Ni 9.07505605559445 7.157714067335965 11.402238921981066 -2.831384418943298 -0.520599282090013 0.5416396477000801
Ni 3.9824265216813934 8.388861297544269 8.262675600662297 -0.2659302284130646 1.4744988666420542 0.8618625760184383
Ni 7.09869584029168 6.012430290777278 3.918005481735406 -0.46771580382742023 -0.4644828987124194 1.7531216029211225
Ni 4.888814045126459 9.527804272850263 4.8401014960944995 -0.9074829449607146 0.8223976851545967 -0.1033902287628929
Ni 3.838229572483714 6.14535261999606 9.897536769090063 -0.12212045818254451 0.12273495183809184 -0.4049158377820639
Ni 2.664149553549637 2.269959949046125 3.664469106439534 0.029016956057640347 1.388645361211344 -0.16887699761179303
Ni 5.300675350162621 8.639004030986259 10.32499775839154 0.43947686358638505 1.4517692862550224 -2.3377279839907157
Ni 6.746434315077417 2.0694555591385204 4.920000281820171 0.8413649702857187 -0.8930315454220749 1.6113016094271218
Ni 3.038041090137727 0.7214171586182048 6.804883183192651 0.5051058144401044 0.29521380786853024 0.19648601757831322
Ni 4.560930837154424 1.3948824767571033 9.160664376412598 -0.8504232238332451 -0.6373983280596442 -0.3006005261017404
Ni 0.13842550687403873 8.870649634146728 1.2123959050836641 -0.7206899863004492 -1.2179081704623607 0.8475351036521727
Ni 5.869190089697608 5.542066652289875 8.95479281716063 1.2755409904844808 1.0907516925178053 -1.097041382181259
Ni 2.9360254770840637 5.519564311749628 4.812603429596878 1.5443647383952563 -2.2678274023448366 0.45793224207809524
Ni 8.140547641386709 1.3113546141014514 7.673575768776485 0.7860708256991044 0.9211653275438135 -0.5429928192938648
Ni 8.8314886204929 2.0446457672548375 3.6488872439528897 0.36832364048032695 1.3800285660766103 1.4922929574006816
Ni 0.8898920603045564 8.189913968299308 6.173829946332113 -0.4350329688824185 0.9142966254484383 1.5411557445396555
Ni 9.35432332733468 6.107964404325601 9.36749643573598 0.44149415112673 -0.4170159634797076 -0.8691873918146256
Ni 8.461968109620424 4.320974657204184 4.942556087696426 0.8289570835396691 -0.9947143045755578 0.22817357848958122
Ni 1.7595348280879426 6.096980560735509 11.592624293558192 -1.5221774036649398 1.3611031899270172 -1.2628497681700575
Ni 1.2037204508253583 6.693616191033175 4.573825363015482 -3.151899424580778 0.5050569634800398 -1.1530672627275755
Ni 4.163908507830922 4.981440394786713 6.780831285896568 1.0615717285197395 0.6780898922417354 -0.12661808894258192
P 7.711971383935905 3.2276648151738483 2.1597941552107103 0.5576136545308332 0.01329311756448033 -0.4740954821015189
P 2.342569627296254 3.645041491713831 1.3411310543036261 -0.3979363211404372 0.2018079440118589 1.268009715104442
P 4.488855812264359 1.8913503310525555 12.566599505622186 0.13542103194619257 -1.7088976001057408 0.27443852299439186
P 2.8142558293585527 2.7069968614228563 9.634143074213638 -0.4268810291992455 -0.663354900024406 0.009186037374642245
P 8.531172890156459 0.7903902560315462 5.386093259345517 0.295429266313446 -1.1073471349826414 1.375359185625399
P 4.983297611721674 4.784031366437375 4.434536906858533 0.606076378017911 -1.2166244186539306 -0.5256653837590108
P 5.122945317417051 0.619647298512501 2.75741936321867 0.14350740849875285 0.4017585231000049 -1.2187175537375334
P 5.143749899042008 4.481511363476108 10.515411269619195 0.2822816731878945 -1.2983893558375639 2.711467139059659
Ni 6.69029571227067 5.264975513523945 6.435753813462537 1.1429417442577994 -1.395733892627009 1.358863501963221
Ni 5.596179200258484 9.346575543555502 0.5538098961565188 -0.47094228118451803 0.36490201639328773 2.3175587081316924
Ni 3.930208710181785 3.7429487157901584 13.37919851184012 0.25887872088292185 0.3871109483901591 0.28117327061506414
Ni 1.6275880067541912 4.696826589445843 7.143288744486091 -1.6327893469872525 -0.8746733546298614 -1.5549129462247477
Ni 5.046958881103358 7.090844877793894 2.773316389791247 -0.6757810416029006 -0.7156948470787029 -0.616827445886828
Ni 7.51619445531729 4.477009019391356 11.34554034012878 0.21761997134345104 -0.350014557758494 -0.5173666340853282
Ni 1.5485437284162709 4.696442014221938 13.481021837281832 -0.7640493271226906 1.1228321179921177 0.9997662651771684
Ni 0.4823530055897561 4.202985102533162 2.538286524660406 -1.1289976233728813 -0.9129609373561504 -0.08740516618854624
Ni 0.5355482009510961 2.5240140939117435 6.475566729020304 -0.012244107474675688 0.18693462644445227 -0.7189490923499424
Ni 3.622135816182657 2.0219089296268415 1.184128688138232 0.9967668162292125 -1.8054049857058716 0.29547965993540726
Ni 5.478227165121502 6.677876746503564 5.303009065179883 -1.930509466217404 2.569146037559524 -0.3603833025873277
Ni 3.9089351343813337 8.818797638104005 12.776658244872973 0.1562636797231567 1.0695776295433514 -0.7309887971232959
Ni 7.7634106651041925 4.488846432380849 8.734438717769377 0.6069053016771095 -0.941214789995521 -0.13871332954421917
Ni 2.160853144058978 1.6023467402290528 11.492585021960064 1.1253109185499135 -1.2319345666484396 -1.2278133453912143
Ni 6.705913218314652 8.556029581457691 3.7780716895929753 0.35478472545362766 0.0690667728906746 0.3794133226355853
Ni 3.7793989431096264 5.74625733641687 12.294585697800164 2.130852138537646 0.4447831062906468 0.87328675869498
Ni 2.743934842684839 0.21937952949457437 2.5628055401552823 0.6646435369288424 -1.5900465567030873 -0.39286147772069113
Ni 7.599065726127249 5.402934840187541 1.8543101090603147 -0.13499859969679331 -1.6349549871800035 -2.3602210228869094
Ni 0.3160035855067475 6.497370268239064 0.8210699790157243 -0.9841763811587115 0.17192452618886517 1.6025660293263368
Ni 5.7815069386470705 6.883783949312869 11.636088797766362 0.4111669608980983 -1.45564393871908 -0.46953845885845585
Ni 0.6161101444409179 1.6474170804941182 1.8144559220151042 1.0490473708004837 0.824310071685961 -0.1548176913052495
Ni 2.258019357338023 7.5678119542722655 13.82368305172371 -0.4784375611202986 -0.6591308346407294 0.22312264632923506
Ni 6.349430745520935 9.097670954736818 12.191883477273576 0.14691514862872118 1.5206835927282325 -0.12159749579953896
Ni 8.38590663423865 -0.02359415898080033 11.225897111994962 -1.1900510390407764 0.9800675011966605 -2.925237654750033
P 4.243412400460827 6.774498926539035 0.5037813494681207 0.9578387717054472 -0.28934526490289525 0.3103136396244462
P 7.22237898425321 7.510519625793802 9.530343407316392 0.4030260769585188 -0.4278367082442954 0.8791169922235117
P 5.242557591935286 6.919887120942471 7.4844942010072355 -0.05901555930225965 0.15703346800964568 -1.4045977707755422
P 7.652606101201755 3.305545987956541 6.967784558097422 1.0336274367009877 -0.08110184967833775 -1.1859375310930351
P 2.0330803708871317 0.3583218679500086 0.5121519575123546 0.4170756130730494 0.22857801301685152 -0.8043896786129501
P 8.730317196955127 2.2627468186270123 10.743837696759067 1.071895993263883 0.8217821630577848 -0.9495649617324291
P 3.050703932876091 7.391517043703711 3.543480803010398 -0.34850532020281916 1.6928037798676718 0.8168384458992641
P 8.816011812701566 5.99642820950939 6.308162072042431 0.5638992304292288 1.535670295945052 0.2820770133762561
