# total energy = -340866.8444545449 ev
CRYSTAL
PRIMVEC
9.30018138715909 0.00000000000000 0.00000000000000
0.00000000000000 9.30018138715909 0.00000000000000
0.00000000000000 0.00000000000000 13.61175553685205
PRIMCOORD
 96 1
Ni 2.095721496116926 8.242574146408593 6.328976244269525 1.1139754389324361 0.5776538610111599 -0.22456580653366484
Ni 4.098599280472461 5.890083939681607 1.9103958496538984 0.9748453335657727 -0.3348180525237137 1.3510751162670536
Ni 3.001140664556291 0.15741487180940567 8.651781201715616 0.1982600787596005 0.35870874309838224 0.20375452621526843
Ni 1.4794542702172182 2.992417094323677 2.4574390347088144 -1.7013994919564828 1.6544794303661763 0.6818892113831676
Ni 9.246779842578048 2.832453972787474 4.4176540965397555 0.7258108524667822 -0.6307792800812297 1.3552472453668725
Ni 0.14124929635276445 7.462605126015848 7.020821395004347 -1.847045544064793 0.12513764774231353 1.7429019820756435
Ni 8.34612236705883 4.989854272510685 4.103359113356312 -1.1661132972782562 1.1212359771495914 1.7521288999905502
Ni 1.2065404445497827 7.053313439057315 12.28959183031267 -1.3844012412230093 0.8028945821246624 -0.8429806515122708
Ni 8.022094743951689 7.503618926363212 4.597180149828947 0.20453537024535096 -0.6272956924080035 0.10223246100936587
Ni 5.956440734574677 8.904449462309088 9.011976300598466 -0.9957597151209368 0.557621110730001 0.4171350055560752
Ni 1.1966915523575248 5.38377275947507 8.00740138722407 -0.08284042963599927 0.5964581382018566 -0.3762089567656746
Ni 5.54921368790574 5.979923692823451 6.0685153616100544 1.5800909881522722 -0.3628682737927105 1.2321019454642392
Ni 6.770215914664174 6.389029376152292 9.933981412697577 0.5141000475189146 -0.9562153771694112 -1.2892945926251473
Ni 7.960406640163918 6.178882475324847 12.039434618720055 1.1956894682734762 0.15822568854553393 -0.0388326565964815
Ni 1.2887075479667802 1.289516663755946 6.278163772709922 -0.2232208624699962 2.2599390007356948 1.0043222599789672
Ni 5.6697440399469725 4.495940234223203 8.077242960119444 -1.3542943945352997 0.7589390024793188 0.6051777774630417
Ni 3.454691915200335 3.6191377242121465 1.6088281648322165 2.017362359446906 0.07510783687843194 -0.8308352743989885
Ni 8.207596163844777 3.2697299058333575 10.205155174409233 0.003506727601677831 0.16562635188497926 0.5509933210008382
Ni 3.8250809430085235 4.428858025174329 10.617509411130666 -0.02470393050458326 -0.7922453299409324 -0.5520065927567009
Ni 8.521653992400362 7.627748448639009 0.7350705342392384 -1.1961936616034046 1.6706010185183873 -0.2180550019983406
Ni 1.0154868163103512 2.9942213295317015 8.804246516938884 0.9111714495558952 0.01357053959558308 -0.47632282877014087
Ni 0.764899006314998 0.42615291599022725 13.512689387959599 0.08887558008648563 -0.7176874520286995 -0.18358165081181932
Ni 8.133018008519263 8.317952117341788 9.484970510654346 1.5011586353214275 0.3658988330889182 -0.17331806410228215
Ni 7.414086079210361 8.662970250059814 6.862080317315229 -0.16144522392409616 1.5008490745008087 -0.7430938079169461
P 2.9704779662013574 9.11939525678262 0.5216406693477075 -0.46634386318055815 0.433980359248188 -0.5024786612299024
P 4.097241453975701 8.574460422870278 10.356776963171843 -0.6506173978530795 0.6236452401396098 0.792944670000802
P 6.4374647213244165 8.48040768751588 13.481722573670115 1.1504717340862574 -0.0057060492458417865 1.2098906994745227
P 9.128611736633921 8.770424546933612 11.535241089837575 0.43591485726673956 -0.1017884314934118 0.1825786634686017
P 8.88494698173575 4.100887125117689 12.150438794866547 -0.5634863112615264 0.984711170616259 0.6260574491255283
P 6.633140539761726 7.097731105828066 7.810234749694769 -1.4685634749942256 -2.036210345391345 1.910760565725251
P 2.071448022441956 5.680625252284028 9.95231672049459 0.05777963001262952 0.05169202905765291 1.4688213566413026
P 0.16525585481912503 1.3955201323181345 2.0776847241455707 -1.2754504876532033 -1.1439424176081718 -0.9404593998867352
Ni 6.120402934149286 3.9539163571155598 2.0412056922901285 -0.7319313635422233 0.848057808924862 1.3130053059785258
Ni 5.2173646121699955 1.0638849607565373 12.831502245206199 0.05038385176919065 -1.4012165130081353 0.675619576324372
Ni 4.762613638114429 8.369689026940968 6.998769734686063 -0.44144812838014297 -0.9862461192035467 0.12448227354650174
Ni 0.808719601434433 5.962485852539709 5.482311902377669 0.15514987783368764 0.1987933255552512 -0.6435538061380787
Ni 3.6245132291102813 0.318592597047506 4.3812020352106185 0.026057616319000283 0.04141892926641899 -0.9558052862151861
Ni 2.2862822147376707 4.739744491843643 4.270021155615918 0.9663177557107357 -0.7745276009461952 -3.2642769444439463
Ni 2.9370717143084475 1.4144553018209085 2.1374272299667485 0.7901699354691424 -2.393643307101097 -0.2846370607939485
Ni 8.575548544103983 3.7344320740775134 2.32464267330746 -0.08328163093847593 -0.7661743438854934 0.11107988409766677
Ni 8.265908301753614 1.7352464617713887 8.312753315891861 -0.7331675499421696 -0.8544518853766639 -0.5299089895267132
Ni 3.521513719167639 8.31157219284331 2.505733947140521 0.41510074873486574 -0.8595508971661262 -0.29280699819925055
Ni 2.3598187497369008 4.854778436627439 12.672462631691424 -2.3580702950924937 0.24154871424490662 1.2075165428153913
Ni 3.6347155281989565 6.799883493600249 5.245930119600138 -2.6713041936875284 0.3661418023376598 -0.3165578207619451
Ni 4.511378535487744 7.478592137987984 0.0715249057440976 1.9386737471957516 1.0109109689400784 0.3437068703729113
Ni 4.5965123967983486 4.742897253366944 13.181338801951432 0.9215103695880581 -0.7343523142788901 1.0244653105857455
Ni 5.798616654779948 7.825702811540061 11.608935727922045 -0.08596431997696162 0.8455077888094987 -1.042635810847185
Ni 6.696567777487127 3.7924559063603254 5.99173120323638 0.4478172651312804 -0.7003217070567423 -0.922603859762553
Ni 4.039673330585637 2.504278468738171 8.449864961502099 0.1489874577767176 0.8222171937126743 0.09467110372234018
Ni 3.176011977012409 2.684320682099762 12.555047840447553 1.828732347577902 -0.862693813670482 0.09085147286593385
Ni 6.0959992579335305 3.2042194274553917 11.604593473186856 0.2779437079341729 0.7220220748483113 0.5076833453592934
Ni 4.571494908604605 6.747123564037755 9.31014104901491 -0.9178282927507806 -0.3896576260714128 -0.4068649910886348
Ni 8.002285357389356 4.46924871336222 8.121454162861234 1.1667445031043517 -1.403625379559944 1.431756333468205
Ni 1.3311535762627822 3.30361976716347 11.136498598737095 -0.3094716033391251 0.37736878140173075 -0.06446706933513414
Ni 2.256382131264479 0.6610913106013382 11.431615677681016 1.7923062435403843 -1.6435810382861178 1.2135838320553938
Ni 5.677342288219942 1.3669313744342806 7.171121627977986 2.493554061955822 -0.2735080407603225 0.3580037466115576
P 1.8085132915075637 7.855026283761203 4.048857259801742 0.24708455646147123 0.2493478985743512 0.8605777957687437
P 7.737258085620915 6.345848633519002 2.4462090655660838 -0.9706161259757735 0.5180014394558498 -0.145577146543588
P 7.010337300416688 2.9183969498872444 3.9092420053358325 0.9756158931832102 -0.1814887728385326 0.1304364342474076
P 2.86870608021469 2.195010233647188 10.123987840501838 -1.3705216550274395 0.7563277901087168 0.21459661113609493
P 5.659216234506333 -0.04376200397608167 5.2727723034011715 0.8231975553480725 0.19090852349053572 -0.4009722797532836
P 5.66098326898842 2.7012005114944246 0.4497074856364332 -0.7565843862042132 0.10947037351870181 -0.605904371216421
P 8.090181372600906 5.633510532882725 6.495243958834182 0.1566290334823754 1.4475344222380682 -2.875596594684138
P 0.800825607390251 0.043943357515032595 7.963639383247988 -0.666827946174671 -0.16150307374522507 1.2113693409025783
Ni 7.113913421611379 0.7515290654126464 10.848732383238655 0.30426151989309536 0.12767738344503174 0.3808860505263698
Ni 3.584838654896709 6.497515993170886 11.779476875878904 0.4551937601010096 1.5955250633191553 -1.5571042974491118
Ni 1.3890379058233244 7.853240648916147 9.72739648137876 0.24343358997244527 0.39572620086299587 0.32043401588789977
Ni 7.482349411307787 0.8650377804329581 0.7304325337328369 0.18080434517699828 0.34146923929164413 0.19546991760897303
Ni 0.18668905306867933 9.55472745189821 4.745357151369637 1.866548389984411 -2.9918166282218475 -2.2979417052317137
Ni 2.595736453458347 4.452052677797078 6.3683550727118865 1.1519583459341127 -0.8162113538382265 1.882251402541965
Ni 1.1499860409415472 8.567875894379137 2.014989410703012 -0.0486720112844065 1.6457993860936755 0.33292700614858795
Ni 4.8387542239293655 2.735118273368991 3.932326915817063 -0.9380027108161265 1.512720372017098 1.64856383621269
Ni 5.613840649042663 7.318303510099818 4.078857785234967 0.514027028189134 0.7260129411752594 -0.47889727436553653
Ni 4.824162239179929 1.5324746048612818 10.594205946384546 -0.07886524703833514 -0.9631018198765994 -1.153602052185123
Ni 6.8515925026549755 5.697449280589783 0.4178199533799692 -1.0705081117774211 0.23600387316727744 1.072295799805463
Ni 9.25982799720103 5.51678395506872 0.7247045519564329 -0.6101829439871169 -1.2452654794293911 -2.1276793972366197
Ni 7.795914330244686 3.2965795297795797 0.35839086367482426 -1.0320392662782611 0.40630577615105506 -1.8420923138245762
Ni 0.5498081290103063 6.489108629108751 2.8173616382741624 1.005093848037669 -0.7802483054800563 0.8226306271010091
Ni 5.3099758193942685 1.275361787536289 2.3270653705842146 0.7662825873285836 -0.1623865047914429 -1.517362755885116
Ni 3.55099529447402 1.10064857816541 6.416486301949463 -0.04097335708856815 1.2231133688123839 0.838848374511452
Ni 8.579017511797762 1.917511418507814 12.249586169638244 -0.12098403058525616 -1.1205245529048637 -0.7190848465968583
Ni 9.087979243727428 6.105299439418194 9.862316074213062 0.7863639314594909 -1.0829594501668962 0.1973223974366795
Ni 7.88312213202637 0.14189007885705773 3.1185759161994273 -0.4500155583341798 0.7392541224558817 -0.5561758936430422
Ni 8.007288855028106 1.2858058913435655 5.885899788031657 -1.9061348940277818 2.213874859387781 0.03894835623873938
Ni 0.4783948254440246 1.080234679806575 10.167940498198355 -1.075019112273897 -0.3766373025523449 -1.3460226414448109
Ni 0.983010582565908 2.7889570239837047 -0.07796528142222672 0.4823705776261177 1.355304323857053 1.2280799687890398
Ni 2.5086030531285393 6.938902606432991 0.5995640999532532 -2.9048997145236295 -0.818641560546274 0.27560426116771886
Ni 5.88516414367622 8.351665275223692 2.092113025700877 1.0624392187263574 -0.6648510249539582 -1.3852497052662336
P 4.708337778969937 5.315537327922097 4.082029147121237 -0.6715675177421853 -1.0314517692059075 -1.1065598631946554
P 3.3378258346640606 6.636023596021971 7.5198551831991365 -0.8556340786102232 -0.7587957920332352 -1.3348023472489592
P 1.7737027122104703 4.9609121077304135 1.4159358907132669 2.0201242384627593 -0.08799857679817102 0.5409714179884618
P 6.30904781538419 2.7448276628389787 9.145398564213737 0.10465315463571655 -1.0122471712529986 0.8414382467258152
P 2.3488073348590595 2.3985261050760682 4.3532708001577305 0.668035593329527 -0.11541836357202057 0.6695520299740534
P 0.4722604257367409 3.429944132269647 6.8029516234720395 -0.12773343349394775 0.026709905191018516 -0.7449470590756009
P 4.630606862121123 3.16135489099258 6.48647760776674 -0.6244913901899891 0.9778244707987546 -1.062675760217196
P 5.875594256928503 5.621810904575019 11.738887163807242 -0.6924960403647363 -1.0012204811251917 -0.01524227087105117
