# total energy = -340894.30655879516 ev
CRYSTAL
PRIMVEC
9.06642492709272 0.00000000000000 0.00000000000000
0.00000000000000 9.06642492709272 0.00000000000000
0.00000000000000 0.00000000000000 13.26962932908142
PRIMCOORD
 96 1
Ni 6.4858392866417525 1.854401209016984 11.248558289616435 -0.9828010980777397 0.009000146616081275 1.1161827309964003
Ni 4.604828120656695 0.1394162283780085 5.884098855308733 -0.631401487046261 0.22307585225169968 -0.0025420496955633636
Ni 2.6921207333563455 1.670878636973462 4.775912464432926 0.04943382915109551 -0.6428076720006736 -0.2248404003512902
Ni 3.389047746023745 4.1700386500056155 4.933090725756812 0.023629466493481886 0.508302467000531 -0.8414305334163316
Ni 5.31250791320966 4.507962437437992 2.7532492896990504 0.3606900351944691 -0.23872255765002115 -0.12783859161324435
Ni 7.355853416337255 6.01171966494212 2.7149400180898864 -0.3650400846330487 0.6859217295813285 -0.6606614123526429
Ni 5.174834251690004 4.791741535598363 11.659439597908126 -0.382901795404818 -0.42519849929049996 -0.4532448639047549
Ni 5.6833246900390275 8.009071194748069 12.375322691675644 -0.22712945349578303 -0.5723360483426724 0.7687161364707406
Ni 1.9868344769667778 6.691683396693927 0.36392901386219684 0.05465445412008652 -0.8420329428870208 -0.5024115554373928
Ni 2.822006335920099 1.6931911085572533 0.3560348777354162 0.26241038818526424 -0.48693454284771615 0.363267051893026
Ni 0.4713951610287948 9.381029804042697 4.793003581939064 0.2985621555154729 -0.4450404737170916 0.009900289832847466
Ni 8.43945438291653 2.3118658082463086 1.345567153165715 1.1156330291405174 0.6175370703593429 -0.19033876702999478
Ni 6.878179756091972 0.7129210927653135 4.933688203155176 -0.09599933561546048 -0.6284706865527112 -1.0794226406582312
Ni 0.925391852748652 7.220401028908631 2.388971218479692 -0.5108733130515009 0.5977372620245963 0.2252137245303089
Ni 7.615497691516704 3.8860963561977395 4.002942626525894 -0.11338564941270796 -0.07913315598774114 -1.2276554796571115
Ni 7.676396867310416 3.800355176283918 12.60667881464518 0.24522256355206798 0.3658150151258603 -1.2524293441676817
Ni 8.169963970337651 8.642424436287657 6.795841205428617 -0.6843757252504471 0.41927802004100695 0.8783986260002484
Ni 6.9500130402684785 0.7234227326822195 0.30219028712632257 -1.1207785778971988 -0.8317937816575158 0.7427742197939982
Ni 1.8600949238299143 6.570918617540696 9.3527933304545 0.25267207785157775 -0.5458336311767696 -1.37876409754189
Ni 0.05832975098800532 4.930004514734009 1.3112280690033378 0.4194829369629614 -0.5775003661524312 0.0735147813596992
Ni 6.255189438168913 1.6119196761000787 7.066966294409997 0.6175848928781428 0.8071618420414486 0.42507148679433243
Ni 3.410399176572233 4.171824735703303 0.24473000628252106 -0.016935599413074057 0.5606472991508344 0.5036492844992358
Ni 6.134071068446089 5.753099895772005 4.969370024839519 -0.5346521606386534 0.32039622067142887 -0.506746949587953
Ni 5.253984140729622 2.6224815239962873 9.242522031435797 -0.25107285168525795 0.9975785134972304 -0.24510814946139076
P 0.26287101578760375 5.666506471921216 12.422960407824656 0.7877075899715789 -0.7910104290925668 0.44157385532472987
P 4.2154433057112755 6.239386659635573 12.916271837670799 -1.9071404524741606 0.5597034471803264 -0.34570718863239175
P 2.315728105237245 8.72938958355776 1.4554531291278083 0.018671608267574295 0.043660674112744165 -1.480301075146128
P 6.26125487640116 7.787786963157008 5.985478711465904 0.8546038375734959 -0.3535889053733136 -0.3190823869560118
P 4.854254535017398 0.9689832234820406 12.746447726950297 -0.5775111647857086 0.9217217142679159 -0.947847207710374
P 3.8920167316322036 6.233012962958042 8.249940717324625 -0.784488825923965 0.24398586293148947 0.4468451310259982
P 4.572968703693898 1.0568096811139742 3.6068042317012523 0.6657717369960147 0.6514666332272522 1.475252199868311
P 0.23472067323558654 5.595017711889443 3.585002199837155 -0.22625630686221035 -0.6055261619413959 0.5415203485133965
Ni 1.3278685851938665 1.318067779918743 2.579522989718221 0.13590825599525627 0.0671207049078973 -0.1888040755530232
Ni 2.012465260049825 6.600203169842868 4.474359546974357 -0.12445836228710179 -0.9126074106714734 1.6203292668470288
Ni 5.732292450715199 5.528261625635295 9.158618615841371 1.4271728278625808 -0.06127761586355899 1.0840321144057847
Ni 8.660366891088275 1.9179115151707669 10.209227768992665 0.5413000049724742 2.2411632627900886 -0.46498092139476055
Ni 2.5153707806842545 4.969778920600766 7.000578305005221 -1.261667317826182 0.32014965187826155 0.9699710361926069
Ni 0.49972048558063614 0.04626687270997419 9.191739172502384 1.0001717281457034 -1.0258611624920075 -0.06975942808232502
Ni 1.6565446192676618 1.3683320393500882 11.487969024432802 -0.13443295700131042 -0.5942521316894734 -0.3974226147288123
Ni 4.042464985781508 6.867789633200862 1.8940006328839185 0.889035022668172 0.275780381734267 -1.2110875479961014
Ni 5.372500446517237 7.904054795579008 8.359362492333817 0.3272340695288687 -0.24793430605627623 -0.8131396568914383
Ni 5.244147069755052 2.6712407569006476 5.0316445772847 0.35936206041166496 0.15804236889013426 -0.5973048024728681
Ni 1.0618868790363323 7.262831897259766 6.907824245461142 0.3811981824501499 0.7278841900560432 -0.567246549634907
Ni 4.931246614940013 4.606895265525083 7.064591797738809 1.1076759790769697 -0.44545262155384574 -0.3039920682817926
Ni 8.126834987272192 7.199466653903765 9.156468966506745 -0.08080000216720278 -0.22583747415723687 0.4174160271316037
Ni 4.500663965424602 0.3658229900157337 10.501810365693412 -0.11176559731078171 -0.38221839618454817 -0.3147513636808257
Ni 8.360041567555934 7.198605343541937 4.79584318620564 -0.4103310952603642 0.058445288621086444 -0.06274160200359517
Ni 7.270910081811232 6.15142420563072 7.154386576208142 0.14448339925877698 -0.6085742047391003 -0.4390503175719277
Ni 2.539088548121556 5.178116297489814 2.4797089051346055 -0.626462654983747 -0.43343425693673093 -0.0029513693188400786
Ni 2.510211984938144 5.201407942958632 11.51093881181904 -0.9805146160364081 0.44289154569488887 0.5080247878591121
Ni 1.129758135548426 3.5882189673779634 3.7245725574378064 -0.43809463852687774 -0.5050600488038335 0.22820160351403926
Ni 3.6457544995481137 2.8981915040300543 2.631420112267096 -0.15964288060803472 -0.9503152096348925 0.01454575902465882
Ni 0.9853481203567841 3.2881475037417394 8.245031248262203 0.1092600572801086 0.7515396246914541 0.05762330694042334
Ni 3.6594629339384808 2.653905752565739 6.922752113995361 -0.3491342120360697 -0.9989530252472537 0.7368563116476665
Ni 3.9664702125936406 6.671972989045344 6.122792435918565 0.35275535372842476 1.3037706747541353 -0.8768803895835091
Ni 0.7994039062327943 7.409209326646322 11.248040596756852 -0.9912746827663895 -0.04898954252482531 1.2710065929492367
P 0.31834030973185196 5.601790331260873 7.9894840904776006 -0.7507253563202748 -0.8319326212282253 0.7986106100373278
P 8.428574673082906 1.562308199258751 7.939988663874498 -0.831536157120755 0.43484964922701885 0.07070405138378145
P 1.9105677110330703 3.372646583449556 10.363965348743877 -1.692748501149704 -1.1857374992670868 1.0315538420014105
P 4.152603914997233 5.964012137321677 3.8727940976411617 -0.18808031001312125 0.5695281465802321 0.3903122289362762
P 6.700831419379033 3.867845642951835 10.523984120976824 1.2332396586131082 0.5969235078740494 -1.4616659765434439
P 6.341728463470535 7.72939918704989 10.344392750753185 -0.07725342246652502 -0.5433795132093222 -0.6995187515394726
P 2.4712263580343232 8.589848238516666 5.581099843084778 -1.0576610806114235 -0.18869711766151373 1.4039645080669174
P 6.9538662708345536 3.9425167181099443 1.342687656629749 0.4650202592731282 0.6885121160163239 2.5989170981743692
Ni 5.50345588721463 2.9485101620105674 0.21929959118891001 -1.1732799902300244 -0.5307934490141956 -0.3075255353563478
Ni 1.25093997024528 1.0825492612953573 7.097434015156576 0.820523093839703 0.061404114139094246 -1.5658830720830064
Ni 6.960103971139166 0.554470812033379 9.20577853140019 -0.6965614686833617 -0.5355157941905293 -0.1951912100262896
Ni 2.631774609479175 1.6829641813136464 9.064271585449152 0.4031569461094282 -0.07010575567815022 1.1120630524010717
Ni 6.372028455357179 2.020570643875875 2.6088891398441456 -0.5609725437007371 0.01493810936707105 0.024467389013744956
Ni 3.996616075257642 6.780053839817542 10.509347284680654 0.7984247192787669 1.182156723894364 0.34147335305670223
Ni 8.32600620862641 7.233021492315635 0.4541861799994593 -0.48799280890890157 -0.2760511188971504 -0.011524969920464022
Ni 7.745981678121306 3.8242905379178915 8.433446063160911 -1.651423674258988 -0.07143270201968989 -0.7757871843849091
Ni 3.1746358644775903 8.43911892519666 12.51233178425296 0.11890297968651133 0.2742685730754309 -0.0028780928787434305
Ni -0.03221935402979273 4.974928649922015 10.192786714149086 0.4354430598366436 -0.5333779219119201 0.524802007317451
Ni 8.313213483147042 2.5699415919247426 5.825871554921661 1.4035587879880667 -1.22479718427271 0.9362278783038909
Ni 3.819866122585551 2.7441982777599607 11.395333735054406 0.11772927109338434 -0.316565534071429 0.13832355030496823
Ni 1.0664926228659 3.454815591968005 12.583934781237991 -0.31712397767806033 0.38998981259985094 0.23189987830123285
Ni 2.933949483683233 8.534978235255753 8.109203510844317 -0.1910440206271355 -1.1757677896488847 -0.503589377795578
Ni 5.655653961362176 7.870735684213534 3.695949854150513 -0.2702301413399991 0.32112847085176305 -0.15656295613113036
Ni 2.957014468530517 8.42652566106424 3.462205634872494 0.887571036528136 1.1380167961523562 0.17144578678023378
Ni 3.381839938258968 4.426364613685808 9.4118556485713 1.6305938819978303 -0.0999061268690344 -1.1532971193501944
Ni 7.360141835296676 6.201860727134431 11.709014809050009 -0.17554746765343315 0.10593844910604336 -1.8068345190635464
Ni 0.5383552418423228 0.07496120075367259 0.18830420451540003 0.6641660830717916 0.49985844999823587 0.050810140673331845
Ni 4.585543834976596 0.2662292195562492 1.6604286756782656 0.08519401746984037 -0.1874835569693868 -1.2358791531184845
Ni 6.203148159464743 5.77704432383084 0.4185732631440619 -0.43649849768435145 0.33683739694658765 0.9848659510265685
Ni 7.975153699341744 8.894733973754269 11.379742204220337 0.03920520944455184 -1.0378592153941482 0.011097395464742178
Ni 9.423823329388288 4.908217895792175 5.782983738757514 -0.7366213128187249 0.35961531407305164 0.1135507142356625
Ni 8.125656352040217 8.738909329662182 2.3456853862641305 -0.5535662239343369 0.752331267354814 0.8414120214735703
P 8.352117512227109 1.646843544666013 3.522423015516633 0.22316429820044792 0.3713212896560702 0.3844462570738024
P 1.7558854364735144 3.2881475037417394 1.4907895200249346 -0.13708942078755101 -0.07790853955202066 0.05792335467934541
P 4.53935946673286 0.8735047032671245 8.202011062295078 0.5588896930297794 1.0727843094061074 -0.3761593344746619
P 8.43430465359528 1.6884403019299041 12.358695775122406 1.758968805730519 0.4115801371761169 0.6023184536373756
P 6.267238716809653 7.799455451953571 1.447676856524225 1.099242760707952 -0.3725119675300617 0.41042442630511894
P 1.6147121349573756 3.1449523894815186 6.026973018128863 0.587733099624033 -0.6658540122971759 -0.23019035180929387
P 6.801695395961593 4.018448026323782 6.062535163005037 -0.3220543251001421 0.2682586194359251 1.0615120789263977
P 2.3071150016189597 8.573764400812623 10.390066679277227 1.2563183948094427 0.7023551925470033 -0.6340384104484758
