# total energy = -340890.67850838654 ev
CRYSTAL
PRIMVEC
9.09353666639980 0.00000000000000 0.00000000000000
0.00000000000000 9.09353666639980 0.00000000000000
0.00000000000000 0.00000000000000 13.30931010004787
PRIMCOORD
 96 1
Ni 6.3358853400047 1.6558239154451921 11.259769946103074 0.7580087773555656 1.0435205274449835 0.7001795250519232
Ni 4.700612817561277 0.3393398726061138 6.225549821488034 -0.10186093660256006 0.05801977104789363 -0.738694907518302
Ni 2.904675688234997 1.834793811758386 4.825836274406481 -0.045889049222630644 -0.9730766717011241 -0.364754692182146
Ni 3.455762200931108 4.45859743112363 4.6845709094221535 0.3173857159798792 -0.02944350207209768 0.7339098274248328
Ni 5.356802427741657 4.477784793616432 3.0129615235735225 -0.20737541079730737 -0.12221404633761532 -0.7184297295113626
Ni 7.322106678598003 6.176366518749376 2.4877097487172453 0.13111854791609678 -1.0589867414013827 0.7629229268277312
Ni 5.290010400485907 4.14782581349732 11.775984564160607 -0.4793258772625229 1.060327314589677 -0.7620798621011456
Ni 5.648659488976958 7.59214834522656 12.446121840972012 -1.2463826237529696 0.9646370255742032 0.9457928962845065
Ni 1.9454985278661456 6.718468617159758 0.27861141563955877 -0.21903202119962925 -0.8163928737214133 -0.045967467869049865
Ni 2.820087609605592 1.9637856302230297 0.30980497467228824 0.6283148777011373 -1.3152853602619543 0.9266939706715266
Ni 0.5845143537025288 0.14396068927004735 4.753114351851416 0.20292714521796665 0.3698200225201953 -0.5977202927437318
Ni 8.833788943392292 2.1488481961429424 1.4726355274446 -0.5676257873511966 0.4824307414400918 -0.2858069127323336
Ni 7.23290817684829 0.4545176994296127 5.064990834189989 -0.8812666915766628 2.105362221796658 0.26247029488892215
Ni 0.6011209704723655 7.232799054407573 2.279658721952876 0.13904808717581857 2.1557545582062807 -0.8167322593387032
Ni 7.812648423769434 3.898535597678516 3.6266934107781235 -0.03819656567437938 0.8572847268397688 0.18784479696354744
Ni 7.553328036941359 3.7387439703213974 12.677264085545847 1.1728555010980963 -0.5294960703590107 -0.248393762191198
Ni 8.034676216482351 8.398945110670347 7.281444019772025 -0.03164950858448098 -0.07152140507875424 -0.9345579468006358
Ni 6.85317117668861 0.5198556701628035 0.4793776101323722 1.22178205159547 -0.029542232433491057 -0.8720356598966983
Ni 1.6507042542682027 6.835838895688003 9.200765892817422 1.2650755721767826 0.8808522297470636 0.29623402160292855
Ni 0.10220589668322291 4.5829970135414175 1.5694735093982015 -0.298322528700841 1.027837569492088 -0.32336558771239793
Ni 6.220106430403583 2.1888961318862132 7.1300766448382875 1.1505560662699474 -0.38348595004306213 1.1530155835540334
Ni 3.9597078192373214 4.3976343609095325 0.971006032942613 -0.5264480275613063 -0.3148313249891417 -0.8434599051415345
Ni 6.10544602581982 5.7404587422304365 4.941893446231428 -0.718572425736814 1.1638203874790214 -0.7872815581777538
Ni 5.058279804085871 3.0231826588540485 9.61927773357867 1.0889460067676342 -0.5821643472870038 -0.8126670881303939
P 0.33371006401877085 5.530516259826965 12.808667509950345 -0.8325031490197146 -0.7724655762108439 -0.8000154608046546
P 4.035220548213733 5.979618758135979 12.696349600427313 -0.5206532752564001 -0.8958741570771926 -0.7830338386449933
P 2.464039272618305 8.491126292466335 1.4395750653219308 -0.943764295890252 0.8923170358535535 0.7289897644153962
P 6.289581050993634 7.849068038358853 5.883260914921534 -0.4424853113954057 -1.5401879813097472 1.963626303376031
P 5.007546962689027 0.657326302271186 12.652935237387913 -1.3143337949819622 0.9160501178044353 -0.8427999029600325
P 3.6566020530714063 6.362174754680857 8.263084943916217 1.078684476940626 0.3308788653703076 0.4323160841718877
P 5.062744730618557 1.004644844001084 3.784941864952764 -0.9528372047257976 0.29315332579507575 0.7053605550322303
P 0.0864668033170893 5.871323829260727 3.6843364307333957 0.3980414792597338 -2.2789484519586622 0.6540457068083381
Ni 1.6849323265065475 1.245732689692634 2.6289351021399776 -0.3609579441438751 -0.034240152129792645 -0.1612523911869997
Ni 1.9831093957667285 6.679921114976351 4.6553833845912775 -0.49516387273604406 -0.5378192455127254 -0.7411402837350011
Ni 5.806714250819325 5.403643235419583 9.212451996864578 0.7093966727748169 0.28214951848540437 0.5544990201612514
Ni 8.684645847541843 2.2461763197260995 10.336489521961868 -0.8656675515868253 1.262196965077407 -0.25736819777566644
Ni 2.333446991689807 5.359103092533449 6.901064106565786 -1.410633435446661 -1.1434058283784116 -0.26125879107932426
Ni 0.655217511104323 9.501836525463958 9.159293909222791 -0.022219216409516573 -0.8365685773383399 0.27672526214603954
Ni 1.4300859597478839 1.3884466550774852 11.642172261877276 0.4241484607594308 -0.9602085574892044 -1.4993763466100243
Ni 4.06276487095814 6.884625720225389 1.3620217467041045 1.3610558816288496 0.43687567851811215 1.1695084390027344
Ni 5.572337435231892 7.8934444975839115 8.261900965434435 -0.5440773106072953 -0.2945808022702217 -0.11845509351581536
Ni 5.253636253580122 2.8009457147964216 5.081334647748432 -0.33595370879005365 -0.1632614511972285 -1.3849555710645827
Ni 1.1304175504645657 7.505095918144287 6.767052655828143 -1.132407420385379 0.2673898436777266 0.5792566867219057
Ni 4.814127436517509 4.815527841173382 7.085238233947526 -0.18449542087534032 -0.696805980594 -0.5570942916922534
Ni 8.157375307532295 7.214857506446294 9.350029932706333 -0.2384235383523636 0.16367282770303426 0.2820189064448111
Ni 4.589471611690648 0.066005436328912 10.434432368627734 -0.6918015854008731 -0.3911979739753392 0.350092462184281
Ni 8.074787806982709 7.398565135393966 4.7167529358970475 0.6617849844341248 -0.78494673939699 0.1454629895632269
Ni 7.0008502131261015 6.058950772537498 7.209161315040848 0.47396589850219023 0.6693306579918668 -0.5167626819527423
Ni 2.257734204905413 5.421221041911804 2.3653571214165803 0.662189418961395 0.36295903373430394 1.2730416211013946
Ni 2.1863954092864404 5.245870373215737 11.546332750256237 0.6199500506762098 0.27258424339447246 -0.32554691163443283
Ni 1.3340673054533354 3.6190093722442764 3.9159451737412976 -1.3418463985799343 0.09972743519932502 -0.3303368768239085
Ni 3.936282868629995 2.354589464578795 2.4050058508975596 0.007362611012658287 0.9390190678957827 1.145452426494795
Ni 1.0505853915430918 3.192349722576133 8.318944721319433 0.1594780728953963 -0.11984168945069683 -0.48729064063555433
Ni 3.666923217255923 2.5589757960424064 7.062386176153965 0.019048789101334933 0.5991408272403423 -0.03076710597952766
Ni 3.8612430035633585 7.004423973059595 6.149833397288949 1.539671189574329 0.592277781571922 -0.7374787757230138
Ni 0.5324111163210082 7.382751475026676 11.598944316340766 1.3666598580791882 -0.06633780399528576 -0.8957000933931735
P 0.11451581734981355 5.934469348289173 7.862102713902542 -0.8982881658353239 -0.6830822032500043 0.6152469887735855
P 8.361952603267161 1.4001045691607898 7.624531338863108 0.08287693930088953 0.8689647342808582 0.24507086846555215
P 1.7980377363100892 3.3624443270443143 10.412911604610926 -0.039516570037383555 -0.3510232015286664 0.43784986950592336
P 4.089645365521515 6.321362961852565 3.798716754385985 -0.6782264178195997 -0.8753960917284987 -0.7340723211446261
P 7.081300732544974 3.9617720520742243 10.3140366704306 -0.15003209699114806 -0.22982679782228807 0.2944792436953509
P 6.243822374186156 7.548653959063965 10.475105939697784 0.5406155773109399 -0.36697612531349705 -2.5675208432512746
P 2.4797710911550577 8.68362737142848 5.723748459141917 1.1419148456551818 1.587796584326646 -0.6855921141560516
P 7.020810526240652 4.011422762600622 1.4942763261461973 -0.9742372676681288 -0.11495762188551815 0.7236441838327667
Ni 5.397841558988111 2.5966412251633484 0.26506295527082613 -0.002750823272259779 -0.11889860881113716 0.21868029428716532
Ni 1.4719526028364438 1.1713202786601222 6.954793268313995 -0.4793713857884777 0.19387197699423386 -0.4187260041922789
Ni 7.106698980621938 0.386914528697864 9.268922859935811 -0.8054754554779613 1.3008933532063403 -0.7406756853937566
Ni 2.8920993269423216 1.703783228140471 9.215579264144804 -1.2494427507355321 -0.3807461825143959 0.9869655138680745
Ni 6.448008647841786 2.0418445494828465 2.4743067849361355 0.1324120699165397 0.258537021272787 -0.14339222307712723
Ni 4.068257367140913 6.399149075010588 10.426926563413726 0.033338466251129684 1.1060744389178048 0.684421233776402
Ni 8.099931436031333 7.167734799129848 0.15287781138400078 0.37372758510471765 1.0979335549782252 1.2285229698637294
Ni 7.901337687462467 4.02419918170128 8.21593040922123 -0.6128185818377511 -0.4810629145582876 -0.4016281681697277
Ni 2.9933922325382096 8.581707011798468 12.603290892337222 1.2864118717607136 0.9299795834013338 -0.8848729208706825
Ni 9.401807621473047 5.184452626165316 9.938687301741432 -0.9427790491588474 -2.009840082927932 0.6448182746727992
Ni 8.476158331014604 2.7112106943798477 5.62684318501654 0.296096981804432 -0.6235395677996809 1.476020188382587
Ni 3.6543286688897947 2.4165164496858953 11.48113027322027 0.263317730490882 -0.06268940860942107 0.1585887283119075
Ni 1.237648535542823 3.42735399219769 12.799656724408107 -1.5293142718200374 0.7802945853369595 0.3170509583482798
Ni 3.096594780846651 8.542595710338022 8.02631289075504 -0.022201732908019828 0.27163190678353216 0.6033967743032189
Ni 5.521550032614689 7.9479238761120525 3.776783143801796 0.7310703010935087 -0.01893823166539964 -0.4823777767149692
Ni 3.179746080673278 8.555790432128095 3.552787509741275 0.13393519142928548 0.2451857967768616 0.12346411669463253
Ni 3.267244091055146 4.310418250166184 8.950444469933839 -0.694802577010726 0.2439362406404767 0.8311474063227686
Ni 7.4753964271957125 5.992286054795919 11.535591464674958 -0.060693718335630954 -1.1578014349784511 -1.266323842761587
Ni 0.7059476244401502 0.2454445591371904 0.27937436337090765 -0.26694170039671444 -1.3197935325449526 0.6517954773215807
Ni 4.672877530545615 0.2365001564130576 1.5103409681271376 -0.6002415165036888 -0.4674805478881626 0.4294372199621959
Ni 6.161916888891052 5.578475572522244 0.22798224056139518 -0.6255434856035872 -0.02647182103828344 1.467468185047518
Ni 7.87008320173367 8.834798325968928 11.361838530381728 0.19388997471636285 0.4067968568548607 1.1490866808132725
Ni 0.06127588787748717 5.163246498519244 5.8150775765466385 -0.16210059811990793 -0.4571051181911095 -0.21671879968542032
Ni 7.669552529842072 8.863379311900148 2.6903573959587606 0.8477436201185529 0.021398777390750245 -0.02334561670447592
P 8.326842457966352 1.7583535420358767 3.5938593777199435 1.4451594942479886 -0.8610812177677235 0.4419574639163937
P 1.9242742131466195 3.3795492696267604 1.7330980624855166 0.8102355958707659 -0.9266263506583848 -0.26688693589937906
P 4.743934426526068 1.0715550872342774 8.434921870021187 1.33077702813965 -0.23308464263795345 -0.7150988653659168
P 8.456570852905838 1.708711925046205 12.560781336202103 -0.05424564871744206 -0.6268714603863914 -0.6292952393365356
P 6.2983017527142975 7.630895905217948 1.4123044580329904 -0.3559844021886837 0.7110133824426336 -0.43716338496185997
P 1.7844883665876838 3.3716651732849314 6.055922624807591 0.07126172365946437 -0.3745806771336323 0.1305827300172848
P 6.656105142289788 4.110087636082567 6.095544073678392 1.679357938775411 -0.5664945019602309 0.7569800789807349
P 2.184740385602227 8.556745253484372 10.510296108121787 0.24558046111211898 0.5038009795857517 -0.3498638911132426
