# total energy = -381169.65961996303 ev
CRYSTAL
PRIMVEC
9.25371854131335 0.00000000000000 0.00000000000000

0.00000000000000 9.25371854131335 0.00000000000000

0.00000000000000 0.00000000000000 13.54375246541423

PRIMCOORD
 96 1
Ni 8.65635411255881 1.7762698056476685 3.5752658189706414 1.1040101001896083 0.18381073610348989 0.14567844800814267
Ni 0.644691773608944 7.319321317178669 1.4003837533772658 -1.0636468658812133 -0.8428857778056194 -0.3141576959608848
Ni 1.2281998101326728 2.5654269336048303 9.16906657441748 -1.0031711770936593 1.9373159476162767 0.6943796305406944
Ni 4.815440866430817 8.52590444050426 8.564121373228817 -0.30484336053849437 0.8968362638801457 1.080615632525068
Ni 1.2680463227145622 2.9410538817525453 0.1487942439408348 0.426642173715562 0.4168976927342884 0.33841142630192683
Ni 4.790890750806164 1.5844309639534855 7.315549501449831 -1.0419513831856506 0.44613087856779293 0.015642334522947256
Ni 3.9163773218607645 3.5974479079883026 4.975568139623634 0.11709420861254673 -0.7504952425873398 -2.328688499496267
Ni 5.719334852145258 1.5649333787212416 10.25122604728474 -0.28124371884168337 1.1892321426839068 -1.9993121868134147
Ni 8.810363752340601 4.16928145304122 12.345848760131892 0.885519810426062 -2.542079777470351 0.9974355601614628
Ni 7.101386988842375 0.6689605761861068 5.604661845046783 1.0025625969753829 1.6685531348504232 0.013767228987421451
Ni 2.7704893392747496 1.043791704528424 8.885568723950684 0.5745952766904943 -0.898298193137653 -1.530333714223487
Ni 2.0722407435062737 3.425948739925098 11.446082858314984 -1.0439686707259956 -0.35196628216822606 -1.1826143802570732
Ni 0.6862761345565741 1.5397725176645398 11.703454684868067 0.023801216184655784 -0.6792273482802882 0.3594656758690648
Ni 6.5695480158700255 7.6991031850080525 12.897919138226811 -0.0029418562371433207 0.5555626855390755 -1.6018571761847702
Ni 8.715328061626247 5.085084974680625 5.054095196235319 -0.278207760228837 1.0604119038836834 0.5714783283280673
Ni 5.952889457592149 8.278756122334936 6.583387877509012 -1.2216303565089541 -0.6490623946611338 -0.4227076145478462
Ni 6.609042887142553 0.7853205361976516 3.210858079335301 -0.28617252360186846 -1.762519756306571 -0.24680302066531043
Ni 3.0522743264162076 0.4737441271783174 12.79302268490046 -0.7463058870963405 1.1397713169496178 -0.07018057478014365
Ni 0.5499170377610118 3.976369179981617 3.25627070369564 -0.5697726584908703 0.3476213749359691 -0.7532100704153415
Ni 4.987337944396719 8.922361509372326 0.5830453505903579 -0.664332947666959 0.7467100645132947 1.554639123738071
Ni 8.845981315491482 4.698529384786694 1.0932491293182909 0.2530402598242739 -0.17306583888215998 1.0422568302412114
Ni 8.364908243128571 8.52916174947519 2.6315919474487157 0.22095083548889688 0.01967639538300482 0.6808854527090016
Ni 6.24504786335978 7.52119118990833 2.080442314361204 0.2571547962132797 0.4144132357495379 -0.3391228505466547
Ni 6.066663928608017 3.4855241807059163 6.861942391463675 -1.0541839206961006 0.3093147660462866 -0.8325072627847726
P 1.2984632959743558 1.9729946107982468 2.0796566736463404 -0.700995078974683 1.4481111206771449 2.5377736938958293
Ni 7.18202389331023 5.5565804482227605 11.286821733189436 -0.3450173616542187 -2.0179143752956343 0.8004623185340859
P 6.471643672368773 5.948207075946437 0.39083728552134506 0.660223810594592 -1.6905296391215143 1.382109359865039
Ni 0.3272531338138023 4.757605124759471 7.572420701823006 0.28499830078810917 -1.28844432880971 0.2921472531280646
P 3.5707416759141424 0.9152797611628297 10.659340025558151 1.5537443798379436 -0.2906866094221381 2.88537835666125
P 6.490512004731633 2.5389057759040186 4.571382364924543 -0.15733634396204516 0.15718876264058734 0.09242267400779566
P 7.358668128952518 8.292645954054727 9.648962573765894 -0.012908223421235833 1.4740180703508938 -1.102096428106663
Ni 5.291785288554677 7.715213909208022 4.352027590772801 0.9009186614796356 1.8672808972750616 -1.8315646748203749
Ni 2.884856048285333 7.832884195782873 1.9044143763821664 1.9923277850757815 0.3584318352879117 0.7810700300504032
Ni 5.333251201903364 0.7647152808409184 12.205832593718966 0.4454027421525168 0.5294469622886302 1.3504081721070162
Ni 3.85306337873831 3.9253349215308226 7.0356004520919875 -0.879575419917169 0.8146967169659131 3.0234121436399417
Ni 2.125394103531906 1.7176382441709261 4.342479603851762 1.027933985860636 -1.3325276922821694 -1.6173915243749435
Ni 9.082108454727914 4.624675456102053 10.191687621378591 0.9622937221530072 0.4744081282459313 -2.353098295799199
Ni 4.613237859829129 0.8427426366445628 4.8518190852561585 -0.2643592843815189 0.5810934828203282 1.0319078829067196
Ni 6.262777988326547 4.714695631298667 4.364840289639704 0.3922369567628148 -0.4808204595301784 1.1502858433276963
Ni 4.966082152617667 2.4484229147740333 2.830915196801104 0.08799189192995167 0.726736192494529 -0.34673048769058346
Ni 3.8178899940834654 4.258949986928473 0.6742296435953331 0.6289224293781491 -0.8448776114246676 0.6328675300688261
Ni 1.5931664743755254 9.09067739821394 7.299419344440659 -2.851615658388508 -1.44097939472837 -0.04075558465080723
Ni 2.111985465182822 5.366629365136731 6.1979057189805 0.39032508445208264 -0.8327337769732819 -0.8702651982598366
Ni 6.814873351461867 1.0366293262798447 8.184597684150253 1.1102648228500684 -0.11869626299234395 0.4828197493483943
Ni 2.183276113796588 1.8916544237116675 6.692239370193816 1.902334546445085 1.1756104381354142 0.17483424363649244
Ni 3.2452421217878156 1.0118663751258419 1.678273850331609 -1.0644457076334248 1.2251465971923288 -0.4973891625221369
Ni 2.804755859500188 3.5369748564967445 2.780044729170722 0.5183392824112428 -1.2188250258496753 -0.16075462561497475
Ni 8.05130897120854 3.196771143407895 6.182939679779689 0.3228883909656633 -0.8865585361032216 -0.32534867958069774
Ni 3.836906385945004 3.3896001329994916 9.34704519629161 -0.5594694767926494 -0.18794352732494085 0.9657870800182464
Ni 2.272824349341164 7.525429393058006 13.271915581145326 0.2731789395556779 -0.9582077250090916 -1.0212717433491119
Ni 7.700121094061469 0.26127411971513237 11.759362876940989 -0.6425343637346289 0.3834838931605331 -2.167547179965835
Ni 3.6218314566769414 4.881058985501457 12.037619421154561 0.8368907365644491 1.5846618953524063 0.27267731732891104
Ni 0.30424653846287475 0.03983078126015493 5.181135798332795 -0.22255211853774573 -0.012083927747727576 1.0409746210946782
Ni 7.7521177392536735 5.923619945447115 8.342328244208211 -0.1707942692391639 1.0546516043611385 0.608135831650101
Ni 6.550272519885799 4.430051245088978 2.125096133790816 -1.454658177767043 -0.33157897676112574 -1.9204808783368086
Ni 0.4592824156448811 0.2121868436719621 9.538174277764 -1.0743261999719302 -0.42106802206189414 -0.0018424525253774723
P 7.755301018475265 2.164213453341713 12.937263173885059 1.3682120330576566 -1.074647330756775 0.38992630635176717
Ni 9.17387758275267 1.5992554212586845 7.4789007702263754 -0.4290057888517321 -0.48774649722605024 -0.5856127108469205
P 1.35823306484719 5.391993808004115 13.27864766147587 0.37701371205515716 -0.49229400738741674 0.24942066079381564
Ni 8.82944492023281 7.165071080711526 10.696665825175035 0.12637974767953072 0.3554781519762265 -0.4236252412661091
P 2.6751297684070368 5.384313221510161 4.141909878594873 0.7247217331676615 0.11830236998803499 -0.7454013730042002
P 6.712323641189574 6.168066177765553 6.498766321782967 1.0493628451583734 -0.16343191533682178 -2.332863713919879
P 1.982229822028327 4.772272268847325 9.241322385888257 0.10104512556948404 -0.08206292804002642 -0.02669293591015403
Ni 2.275498674036047 5.555821643292034 1.9419169220255996 -1.0638204153446 0.8316356588130968 -0.8751158414839186
Ni 4.56100061795157 6.00636669777114 5.357272004820241 -1.604030015466373 -1.4729744595777277 1.3559920939526968
Ni 4.645292741293054 5.852643923268041 2.6224631539833108 -0.8352586002776647 -0.4503310326920696 0.7334249173686143
Ni 0.2546947257426002 8.44324097164824 12.56822302268481 -0.27312957437498125 -0.17922234540185908 0.26920324273738155
Ni 4.429699603779617 6.713859758488365 0.1664447869270624 0.0923357707209442 -1.2430563875932141 0.33031630799861816
Ni 0.9225670646134192 7.003510406497125 8.700736798031468 -0.7239532304327532 -0.3089820652972162 0.9356270114950984
Ni 8.569859604174482 6.256726056318057 12.886663840211634 0.4638804892417301 2.1964376377479398 1.3458457495473144
Ni 7.872147724088716 5.922342932271012 2.9330753255175 1.652321503482909 1.5667744735490243 0.5778659770219661
Ni 7.599903320893363 9.394837877093208 0.5648756739868883 -0.012138178024430707 0.28408247384205915 0.6219809650633095
Ni 7.651159668592175 7.709004663982187 4.756999006186756 0.3022835702311181 -0.8236076463022977 0.6422332875544423
Ni 2.027461998874652 8.482069575176714 11.02997829397226 0.040386117126530445 0.24279492794718188 -1.0173742080669186
Ni 7.2839350969944725 2.3750316720227644 1.5278167131462397 0.2211295271586063 -0.19343823189092493 -0.5638110415907966
Ni 8.016607526205734 2.6349316145157857 10.803255709017524 -1.0449819424818583 -0.9791233921158362 0.04946005440334063
Ni 4.385892499608073 7.897993360326806 11.525869346037304 -0.4162538885027025 0.32335247508627535 0.5411753064691518
Ni 0.37210035596356295 6.931174087673941 6.301379875747669 -0.13551873386632143 0.7243065000071139 -0.09774948553734777
Ni 8.10349994449276 8.432830538147398 7.345251162256633 1.1931502467913904 -0.24212309869113785 1.075374952951419
Ni 2.927247333500762 8.004892318372786 4.887168290565684 -0.4262251407828014 0.10527561871106383 0.45019579266578597
Ni 0.8707860310661643 3.1266557170648905 5.412720287075392 -0.2883075676670002 1.6236768431630229 0.4311428897993929
Ni 0.8211185468625471 0.4082296497567518 0.8517936988731615 0.12849833668443034 -0.323263772027211 -0.29789778245859666
Ni 0.8841844903247147 6.732811374319231 3.8659288238016174 -0.12790261208196035 -0.557927072006194 0.08309471173865043
Ni 3.3124518804692515 6.983152225428812 9.636610710088629 0.8295440663913908 -0.8129262553290516 -0.20611891268238694
Ni 2.7563774183069416 7.160092580068457 7.462364374967705 2.005115680869069 -0.33759638659979924 -1.6572305107487524
Ni 5.068159923237923 6.23237026878542 7.734606927419325 -1.0862435202348066 -0.678361143625251 1.329263162598285
Ni 6.152853064276322 3.637285166851525 13.029780927750009 0.5479396217761788 0.3313858869137132 1.3261387580366903
Ni 1.8353547993391142 6.01599981890392 11.077110259261005 -1.4256962433170544 -0.08565758736982022 0.7587986202467125
P 5.415563029450022 4.265094456123636 11.222624059934244 -0.3743384792158392 -0.06360035045946466 -3.3511061835243643
Ni 1.36285067046223 8.913524208044945 3.200754869294217 -0.04032929574666603 1.4878416064975473 -0.6328744720473616
P 4.564979716978558 9.258067915188812 2.8955191083057956 0.5206417052921744 -1.7181692552156538 -0.007294990999516468
Ni 5.930745308821025 6.768974906871489 10.109097256900046 -1.6728946996485705 0.9131979930676208 -1.5952653818998657
P 8.008232910811723 2.9678341435760447 8.761616087772524 0.11454675960034465 0.6123578401512486 -1.88836034365318
P 4.7318797868640585 2.247404384161775 0.44658261214572054 -0.2654977688613363 -0.6678695000653079 0.45902341825974496
P 3.59366313705333 9.172813405105916 6.768638996883862 0.7217299975291893 -0.3489300664450636 -0.6717832332974173
Ni 6.0965071713104315 4.256016558110902 8.965517151749683 0.47165884763556837 -0.11270610684718009 1.8985768791748656
