# total energy = -381169.9264798277 ev
CRYSTAL
PRIMVEC
9.18056219639614 0.00000000000000 0.00000000000000

0.00000000000000 9.18056219639614 0.00000000000000

0.00000000000000 0.00000000000000 13.43668075987052

PRIMCOORD
 96 1
Ni 1.0757048147731147 1.672147569067483 0.6352058413750404 1.1289963378213008 1.0644876166149537 0.21179256602839655
Ni 0.41686820671980646 4.7538694524374385 3.1471664378931483 0.3430777214293447 0.17318950894421786 0.718588366576414
Ni 7.389259951348439 8.67844955568505 3.2991892007442645 -0.849727483317801 0.9645097559677196 2.2077605189599265
Ni 1.8026859806441302 2.8088388574395613 5.325735842163926 -1.6175622456248528 -2.6077472948714897 -0.3332918456871744
Ni 0.6176379178647322 8.443968820747351 11.505547632956162 0.6331884037433546 -0.08740953706392043 0.3656373518974155
Ni 7.549084355816957 0.3789442230091396 12.968493144649507 0.826321445689035 2.010553564055189 1.7679607248164841
Ni 5.624067386055531 8.247073306781225 7.641534451622509 -0.659595947202606 0.7727705090457724 -2.793376829351273
Ni 0.44074960274163166 0.8219412273369562 9.407369656257874 -0.7933421625495369 0.376609534638203 -0.8041500517983182
Ni 1.0438666256354951 8.365842237828913 0.7322746779404364 0.5894621664999978 -0.5792798266503572 0.1680195347075042
Ni 8.97621190473048 6.128585172692752 6.325626657595237 0.7907381492677866 -1.6535528047868489 0.9436768783827683
Ni 5.832870088981142 6.743141175882312 4.052260605862743 0.19375370624881472 0.1796136673030068 0.22362041190126006
Ni 5.704865512526174 2.7054290066765434 8.185451538289433 0.3402003998815496 0.28387884247168527 -0.0651422410252878
Ni 5.34421631354052 8.313200895119827 0.2685415381440093 -0.5266966532370025 -1.2024820657152775 -0.7135482330493453
Ni 7.016547493848705 4.559122189987518 2.977406829190279 -1.1143456777876615 0.2814033843479992 -1.130252578825905
Ni 6.045051238735659 7.288356394020995 9.479833668513079 0.4278269380522825 -1.406568521348668 1.2023000316114585
Ni 7.461575238498678 2.974511279924418 13.536783705463336 0.4721077622475289 -0.34495436962676723 2.7906321767266005
Ni 0.4332004265801943 2.389590130984062 3.579934460001491 -0.06346176799907136 -0.47109166227818866 -2.9488604363752957
Ni 3.506047460630848 6.021135874634305 4.1869504675916485 -0.9959389210112783 0.527941067167065 -0.5050914162624011
Ni 4.185620204152767 5.85851139874509 8.127256873605335 1.0482755256314655 -0.08086170864307364 0.4674862043151174
Ni 2.941130756364907 8.412984423878992 7.241765959749222 1.625095834997737 0.19694778770608018 -0.13572647900175333
Ni 6.952705865456834 5.01465249760561 9.248521145533683 -1.9499120391137321 0.16700266340721562 0.7211440431187323
Ni 8.114285657505985 6.508385024083561 3.4762436840402 0.05530957120558216 0.7507207283345846 0.3307881054287142
Ni 8.407375100475566 4.390447723717194 11.013630167712071 0.6157288135060105 0.5923806256983732 0.17144038746359508
Ni 3.249964863224631 3.7103884104074156 6.512409782479735 1.8677894614803638 3.384657280006932 1.96038079985554
P 6.962648414140814 5.749528946826786 12.103305043733952 -1.8372193020029908 -1.5963295614983217 0.02167774208374976
Ni 9.1221093965918 5.496576921074527 8.565131124317581 0.3973781346441221 -0.09365937462837419 0.590094657877674
P 4.877109317196205 4.217238059801545 9.579130627484387 0.2926010528360316 -0.1684522513695486 0.7348760479928441
Ni 4.793887522348304 8.338548426898653 11.094613741535824 -1.3131927393989835 1.5859821568257266 -0.6430557834557377
P 1.7903748469551026 6.245380282902901 13.31542750201097 -0.5971291961269523 -0.14255867143223835 -0.6161869840893516
P 2.6962759863275796 1.5037485196582108 12.677991702117613 0.5523578054485326 -0.42385201256493454 -1.5328184283185537
P 6.118670165694878 2.6757757913032703 6.044517848081422 0.5854389042732175 0.8541839764272579 -0.825321800779927
Ni 8.670710341889487 3.3341506170862147 5.375102478395103 0.4411352251254145 0.06441024795526973 0.7155050996654
Ni 4.123532063109594 1.723191493982467 6.082180185774089 0.13626872465846854 -1.2357590826008524 -0.4213505862993195
Ni 0.714215594361252 8.361077526132712 6.5539160214964856 0.36991978132285325 0.6809168201675692 -0.06900378086322309
Ni 8.857589862675354 6.3056139504149895 12.3311234448028 2.3961329062921704 1.4216128172763 2.2687645694471246
Ni 7.251615784756649 5.054991887187704 5.299870526686323 1.030045118666368 0.9998755370615232 -2.0601136343715036
Ni 7.052213977354947 2.47443688531217 3.8501863368526337 -0.11016071471750705 -2.0498225368581404 1.2910889655214088
Ni 2.041499940862382 6.344475269509438 7.424155267643737 -0.5795287094363697 -2.0039368300696196 -1.4696932177232946
Ni 2.1631515683890825 1.5396628783394009 7.654406517651879 -1.801117156963795 -1.3552909541206142 -0.8736174025615212
Ni 4.307161664935046 0.8726766853675619 8.307483241084386 0.43008976594453024 -0.8847201973429021 0.3637113385192962
Ni 6.358833668532284 0.5809771794900909 5.7391962242563155 -0.03426509183045712 -0.26858437820646003 -0.574634871679178
Ni 8.18610519430633 2.9057213285956456 9.246680442845651 0.7441567019638217 -0.8362443612297018 0.18474198966850763
Ni 8.539005998934385 0.9617281371077321 1.8177944315852435 -1.1111384837042733 0.68253790071076 0.26846713590230536
Ni 5.896711717373012 6.368996550705107 1.6217270043146799 0.8674716946750997 0.67277259379388 0.42300149163918116
Ni 7.973611905442621 7.848196247481543 1.2804836773587551 -0.36716098763079347 -0.4654370350955726 -0.9234119574861451
Ni 2.5087538261992584 3.457941315567086 11.228845493219179 0.043249297606938415 -0.43077445071638065 -0.7616751704635593
Ni 4.24912215174934 4.719699400542911 2.215560642878682 2.3449774664642775 -0.6191303829883917 -0.12734853935070328
Ni 2.7915702202515966 1.6423474647016487 2.938185632064057 -2.2843968766677434 0.133374433829809 -0.45452295928623015
Ni 3.2625330526506406 4.580512899529229 13.004758200800438 -0.03716298220354245 1.9068056948425613 1.0139186454181506
Ni 8.371010894254658 7.829605609360527 8.233486993025526 -2.7105322859502157 0.7232829438386059 -2.05370773084516
Ni 7.1455068487553195 2.555253372906883 11.52408961409839 -0.14151891731381433 -2.009454160343423 -2.6003725996739733
Ni 7.846461121256915 7.888205136830374 5.624728386522055 -1.218342686896618 0.4232686292576388 -0.5038662856060484
Ni 6.616403516988184 6.18528432382134 7.1094823233297095 -0.5261027284067455 0.7169387467881331 0.7479776183718087
Ni 6.176021136727955 0.5704232053745755 1.6732694337481684 -0.2989416503420787 1.6570600466091592 0.5763446552814332
Ni 0.7471067939642939 4.1976559209807425 12.954787483587351 0.23439873346368664 -0.43531039091352125 0.5430527259975229
Ni 2.7173820984462034 0.8113266615120093 10.08589489765159 0.2595104409296498 -0.0834729210136756 1.128766738308998
P 1.3547296367049693 4.887354824427343 5.07277647196204 0.5920348123231803 -0.9409463668254827 1.6867480605918952
Ni 3.0722200016636583 7.883624036374874 12.587831238483606 -0.9861743854253467 0.5597150171445522 -0.4174728485114681
P 3.2467792081984617 7.860287047681728 9.640079460779008 0.7837866576506178 -0.5014399355527428 -0.07798952930160116
Ni 3.377326800337144 0.3970519635671098 1.0333236681944218 -0.22809361718126522 -1.7246309516805975 0.023672661026591487
P 2.103349387292643 0.6346807132266346 5.615511102238847 -0.061559665880352034 -0.646051375748952 -0.7921080330321196
P 1.0599142480727959 3.8190679037785635 9.635040250277958 -0.2784288751007076 -0.08114324443923446 0.46359046880513705
P 8.181459829916585 0.54252072318139 10.973387174031346 -0.7466229041161271 0.4860511118014983 -0.7300608859923878
Ni 8.305094458842861 6.922510996923492 10.221766297714408 -1.2395985109516006 0.2744809461965531 0.40329167191507964
Ni 4.704579014871151 1.1827409875399852 3.820733257731725 2.050359640308533 -0.12738042102990318 -0.8317840114655028
Ni 4.285036510430531 8.335160799507712 5.078554717706913 -0.3583752710183635 1.9288269363086585 -0.5142514854951143
Ni 3.4230643603958586 3.6420850288665014 3.96656189537778 -0.5247415863931607 -0.46141891507511507 0.2022136640907098
Ni 1.0529002986780032 3.6978936654776864 7.508913888576309 -0.3196133197588173 0.011320052998509536 -0.6675092885124118
Ni 5.7322419485147496 4.511539336959754 0.18359196152110802 0.7594218556530082 -0.20504496289191781 1.634274159062895
Ni 5.128849508759835 1.2542483852311381 12.588638209886488 -0.19696192877346724 -1.2653373104786014 0.3057373331076735
Ni 3.1580582566915547 3.00794688685614 8.903345783858137 0.5131641659682065 1.833236920316475 0.7213127074861125
Ni 3.820105307288526 2.611465954247611 0.7397687707296632 1.2311326395724345 1.0376980072259354 0.8476212356080757
Ni 8.880201586967729 0.934480228987647 5.294334647779176 -0.48525355560086747 0.3318101189353253 0.35046372948077065
Ni 8.52015830507639 5.427842053117964 1.1910907087108806 -0.6201212861467513 0.6251873878157491 -0.6986605173042355
Ni 0.7346258198776175 1.8929125443247892 11.670106453266165 -0.6607827684218556 0.11128685790215027 -0.32039056424447404
Ni 7.504788143997748 3.97872705813045 7.262203726951693 0.4902589792352589 -0.486038256285692 0.04268211224955875
Ni 5.185484395954176 4.603473485178936 5.064553442547228 -0.9792126093955329 -1.0435398107186928 0.546276118030827
Ni 3.4732820347276863 5.7347757836364295 10.45290439001514 1.2760629244262218 -0.08777926169851334 0.5920378976469739
Ni 2.6547798459290672 8.192338795928142 3.058094788916501 1.5031705235451338 -0.5295621477102558 -0.38888115291670444
Ni 6.8004829663533535 7.880282311794109 11.885388796876127 0.6000651388268246 -1.305269885007481 -0.969475327503111
Ni 1.2704520772230352 7.881916451836351 8.889627270009134 0.6083379203585781 0.6284830278478853 1.039934609865938
Ni 3.5424942919100726 6.666483482889485 1.2007780377702852 -0.38912695037892336 0.39887425957367434 0.15999306485860187
Ni 2.2067041546834503 4.0914643599210985 1.6814254450601236 -1.7524394892524335 -0.5334239446585072 -0.13154560815118635
Ni 4.950627257973038 3.366098972968255 11.92938021403577 -0.6651703559665899 1.340398610389814 -1.4741754218643643
Ni 5.091209204416051 1.8503239170441037 10.255895955135982 -0.23278099535460556 -0.2923110323994385 -0.03359351968472924
Ni 6.8609369673542835 0.4377549034057921 9.16931217435131 -0.8331695789591199 -0.2580737084831233 2.2568804164150293
Ni 1.2535782042025783 6.23922012577737 10.521485024529513 0.8199859903893103 -1.0924514488177315 0.6061668808491882
Ni 0.6968735126770065 -0.05798626592590335 3.4993686017503354 -0.5615497563604458 0.20932404988324593 -0.0858517056584973
P 4.8176100946469225 8.187913765027238 2.71223455731314 0.4614104304346827 0.4203828230694115 -0.3938734639249733
Ni 7.900461187147191 1.2782004715806334 7.50984112534185 0.992861053416903 0.6611959446998741 -1.748099467116183
P 4.184454272774313 6.610234179300617 6.121805327629854 0.5525681216871258 -1.6206910210618217 1.481594854256887
Ni 4.904696906111587 6.280688724489777 12.471926642790859 0.06846564897156594 0.43832012427412254 -0.5847187382777413
P 9.011795763178409 3.3583964814208316 1.514972674802286 1.3235303738795656 -1.012919514729675 0.5852653548098308
P 5.914540368845117 2.7191814886050767 2.033762563179226 -0.831491934146381 0.9721775569256225 -0.8045246615289176
P 0.8653919093927346 7.000582496469719 2.5595260064780043 -0.7069875491126921 0.2777081948845992 -1.6844466661522282
Ni 1.160257791116101 6.905288262545703 4.640008449853697 0.4871291753570256 0.9560235728735793 0.2165794458940786
