# total energy = -381176.79531285574 ev
CRYSTAL
PRIMVEC
9.12062647771273 0.00000000000000 0.00000000000000

0.00000000000000 9.12062647771273 0.00000000000000

0.00000000000000 0.00000000000000 13.34895877718912

PRIMCOORD
 96 1
Ni 8.530430633946438 4.355746654283093 6.386782457243668 -0.001853508268971001 -1.1514263846900428 0.8490708235704088
Ni 7.640394310010906 7.1350204030654965 6.232655728470912 -0.29246812680259304 0.8582661169164315 0.7622120168036357
Ni 7.403385713261521 2.017902100993396 9.849101738708315 -0.6162890568848547 -0.4577301533696181 -0.36143539800092594
Ni 2.6057447115410506 5.676431593346605 8.902473752296428 -0.8370550300564551 1.4517921690731577 1.2682076900478612
Ni 3.26096138905506 2.4386001127559656 3.9987470970613423 -0.18430284524856 -1.1593204427261388 0.5763572536869235
Ni 5.790612714823768 3.651068819985742 8.877711251712476 -0.08879716144006641 -0.10898957722754132 0.9679694323815458
Ni 2.1967484634061836 5.62291175783035 11.380855301073396 0.4980213967894971 0.8577770930951549 0.5584119820624125
Ni 2.2156828837421996 5.952823054744794 0.5121131377673183 -0.8786359388220353 -0.5656648069700839 0.3861655537577543
Ni 1.7059493173937958 3.9654385695723575 5.10816549523114 0.3513587304912142 0.5500006180702657 0.3858847892925419
Ni 0.16968651735331636 0.0006849590400938505 12.465163702794694 -1.0383880913144243 -1.3497250299970627 1.4056269833710051
Ni 4.428811992101893 -0.027276145210448327 3.526861393944329 -0.6666217437011358 0.6218125578062452 1.3630752260517234
Ni 5.134119149618504 6.184286310663592 6.235832442634225 0.30128392532201015 2.0078315371383355 -0.2935567318810815
Ni 1.7879893515568344 3.7401043745715765 2.331542200470724 0.26815937485389946 0.9536597006270929 0.009214833730048645
Ni 3.462353939844838 3.443574570157045 8.686687941038313 -0.3529684981804953 0.020038406708113878 1.5620475003870002
Ni 4.247156476768348 4.463123788491147 2.4707858911392835 -0.7973186306987817 0.5502327886857298 -1.138646459316555
Ni 6.782927742828705 5.335785319199265 7.6062904639027975 1.2937194611657203 -0.17342322222157874 -0.3235789892747847
Ni 7.122762281229463 2.2527582299203823 7.433261236986307 1.1422125794012585 1.012355928916721 -0.4634369739464083
Ni 6.189804289615082 8.395518328739138 4.8556171752792 0.5985741561035949 -1.4264431487854077 0.2535609082144343
Ni 8.079059955714685 7.357463359508225 0.9509675804368759 0.5593548055916561 0.16931099982541808 -0.6835791974910808
Ni 5.255250188386633 7.563397982228318 10.775666171240063 -0.4904281578232715 0.8797186303632527 0.2230923073119319
Ni 4.955692336018558 6.270704245482357 8.634306359692548 -0.6707352516488772 0.2790945337091645 0.49087295867017394
Ni 0.3001762308356962 2.186341828722467 11.444943206360046 -0.4818689553993507 0.10389210809997591 -0.1840195096801863
Ni 4.501667555514271 9.219858780959676 1.3139101377987754 -0.24008241411202524 0.11729501176944315 -0.9781371169431669
Ni 1.3598397880531643 3.9612613226966853 7.804068510463692 -0.47631537257097323 -0.8898320646481708 -1.2621458001244974
P 1.6057774780149576 1.0066982557842723 2.51569129505276 1.2116282509909198 -0.7267487909000194 -0.38184147246110367
Ni 8.983625437451408 8.49668431639188 4.691598215149775 -1.3377436892654704 0.8735479827761666 0.29669116374500515
P 3.458386467375586 7.3103826862064345 7.337201888035941 -0.5941382318194283 0.015988405008456337 -0.6022017255538531
Ni 5.50687914920087 2.5275079785726744 2.943298181287647 -0.12417271272588293 0.7055343616059333 -0.40571185132079807
P 6.2412811048253305 8.150136996985676 2.1331640166949413 0.7169456887666685 0.6954011298266732 0.8137220117574696
P 3.4375002329972246 8.845402344873216 11.829700477864376 2.7684247873916257 -2.1694886199629217 -0.9823051322779276
P 6.348001553935026 -0.014190782563009614 9.34339036858736 -0.21554457687166104 0.34142887297201197 1.1304094161187435
Ni 8.95852547369191 0.15971858479780948 10.196268348644777 0.13055341944124613 0.7326075636736414 -2.161155417506878
Ni 7.868637984822472 4.881094732970253 0.6591476674777973 -0.09638294420712433 0.11394769256376505 -0.05969664452968429
Ni 6.26644491296939 5.878909498673948 12.301305265689313 -0.08284094385663153 -0.25747104190211784 -0.3409704452783547
Ni 1.4950895564360098 7.9498115594807315 6.350473243680238 0.5089922939787039 -0.3272914051293654 0.5426935428858911
Ni 8.019100957983966 6.747521471275519 3.338173875682524 -1.0263625276084583 0.8528940539712409 0.021732506581085154
Ni 0.33053788394579503 6.136986742329016 5.3569241949279665 1.8870076862800276 0.7064381043671252 -0.8268104695103116
Ni 4.549541723309913 1.795778366473481 12.869463740413659 0.22609638424557835 -0.6901026004318953 -0.5966478856151596
Ni 6.165050909657495 9.295286361007294 7.18630477305942 -0.012245393026256329 -2.071905484800109 -0.24979064253872463
Ni 8.590736215479067 4.650561780940798 11.73720546969788 -0.5267390764391638 -0.04803849146546566 0.04541005270368308
Ni 5.476005828951633 1.4509001216922723 5.1434075955097365 -1.4042427014289687 0.2867978158906932 0.6947899786052356
Ni 6.843087394339479 5.393372954074799 5.003029298921235 -0.16750505696493087 -0.20174957997009768 -0.9899415657772628
Ni 6.731469168871189 5.527473523535517 10.035907671750795 -0.6932516875838384 0.10349512977187336 0.45107562416757796
Ni 8.489871208496405 4.177201272540387 9.072419295438541 -1.9879152578303827 -1.2955166622754593 -1.0765093236661782
Ni 3.950024711013654 8.770576726165759 8.83524835153984 0.22411329237727853 0.26018998349517775 0.0016953854245519188
Ni 3.4313164483210117 7.071905668612109 4.904220081121491 -0.33987566955227916 0.9543904081455307 0.21525352799380348
Ni 5.82759685473829 6.2508486418833655 1.1377762496672654 -0.3683922889347333 -0.8690128139099743 0.7756002651850836
Ni 1.404394047851546 3.8678569880814906 12.938585319391757 0.4540411345538052 -0.2679187195980031 0.5079587105078671
Ni 1.5049307122850282 8.012114558187537 8.721275180343824 -0.1973661061904214 -0.6539084098995254 -1.122210682358035
Ni 6.83885542370561 3.118114138909256 4.993044037175633 2.281393571065045 0.6922160472304724 -1.343423256148751
Ni 0.528708117440431 5.714865912853336 2.050854011991466 -0.08811890442611921 0.0880908794016612 0.23426914986435785
Ni 0.4338317137297482 1.8921013015258266 0.5443810017879313 0.18994487402568577 0.033213510637491186 0.7112478670509428
Ni 0.5107331869981279 2.3449312799761537 3.7128793048687783 -0.4277924852699213 -1.5946771134965634 0.7020322619899457
Ni 5.961232272254336 8.365192246071866 13.212879036725745 0.2907717129367766 -1.4215164009077519 -0.8239645154210842
Ni 2.5360904879831714 1.4588715491362407 10.111435578688441 -2.2008427087941707 -1.6455037092301272 -1.411357458096879
Ni 4.644952595725648 1.7978122661531206 7.681124291173984 -0.1452598724134853 -0.05756494289866215 -0.23281596235759905
P 7.703363114442437 1.1700030708692308 5.49509894818642 -0.7179373632559765 -1.6569443469669012 0.4700434235193324
Ni 5.354309311348807 6.500908854962634 3.430481911008514 0.5181348797099206 -0.11094695806422829 1.097848965684219
P 0.3152909328495915 2.1521668417287034 8.917932301924326 0.4094849452099851 -0.5927853173359596 -0.047131920490796245
Ni 4.759644472279312 1.6725131011356862 10.05785281085026 1.8623888592900828 -0.19946258370813388 0.8083941717866531
P 6.694275254550248 4.510076773023813 2.7394603905691186 -0.9299968097925144 1.054402978685442 0.35274455509514735
P 3.5607928602141183 3.9191057876325868 0.33501975974209486 -1.212162269117519 -0.05559187833269136 -0.13833537737951013
P 2.357225884317652 5.857229769801736 3.562743762193826 -0.9065887152812192 -1.867779691288351 -0.6955695370837376
Ni 8.823868546022862 4.459931569263014 3.992900775560674 -1.0491988087766835 -0.05035299853125522 -1.5288221626749672
Ni 3.349896616750868 2.057531222554086 1.7451497695152791 0.017557806378105244 0.07642372747637806 -1.2983528461726734
Ni 1.3171826185389308 3.903901703480304 10.220256508050248 -0.14663232728097972 -0.41599420708341256 -0.8869102630156855
Ni 6.917639394255952 0.7943700739815447 11.9827327314732 0.6540379934988543 1.581737779727076 -1.1303276550382146
Ni 8.939764345256851 6.126315609480684 10.018447144635541 3.2385103770028034 1.218377139678979 -0.5722671427779499
Ni 1.8448199744439822 1.0387390162083694 7.473681116852938 0.9386773682856479 0.4685848366959349 1.299479503577949
Ni 3.80792535222987 0.28853375127937403 6.0633905840557105 -0.5964172576615921 -1.710047140329152 0.60931339689797
Ni 7.067546009209114 0.960584368877288 3.3942666398966543 0.1797792463465936 -0.686034858120425 1.4961863789178167
Ni 1.9111816518837006 0.4241811789717815 4.694068080769715 0.26352933228105585 0.5138269963631861 -1.0363211814830668
Ni 0.38408964165433096 2.0034732700822313 6.067822296406995 -0.02489727746231196 1.02307434377549 0.19112783859019342
Ni 8.749654009281935 0.28818716747746237 2.183716000391668 0.7042914903377676 -0.8489471535083508 -1.0378283621562125
Ni 6.747348179374562 1.274133262090955 1.1758548647457183 -0.4378928069287168 -0.029091775159633765 -2.019912893782902
Ni 3.3422626524824453 4.9605080267398565 6.86076408029961 -1.3565927036511733 0.5620133262604257 -0.3115655097536763
Ni 7.625938117220643 7.444273481260732 8.595821876740803 -0.8353136218853163 -0.3842660227421963 0.9450506188018434
Ni 1.630457892961615 7.945068833770361 10.916431182386487 0.5679834278009315 -0.2152123903432229 1.5489230471899003
Ni 3.1302445719761645 3.243431545179423 11.324682275347245 2.3010751086543726 1.155093806239301 1.2970667803713984
Ni 8.100621116444138 3.0182615214532316 2.096614018595446 -0.29603784643172243 -0.16927577571210847 0.15120991934933314
Ni 2.2481705548582354 8.755472968903504 0.6092368638146072 -0.6331452092102451 -2.0081665518802514 2.065355085276101
Ni 4.233539381603765 4.337642210946392 4.811618361626514 -0.5939507983989707 1.5713065570914229 -2.5660224043288777
Ni 7.696613850931525 7.62699610987911 11.164508571293768 -0.7715176104752778 0.08003278498387506 1.29347906302014
Ni 2.235429039824799 1.1321889539553947 12.463615932500367 -1.0504702192899391 4.043276722228882 -0.770994390981956
Ni 1.372854921877584 7.807447702532331 2.8585456728433316 -1.4086369738419222 0.5286676609204444 0.7448221034619624
Ni 3.4242844453927512 7.314742345609429 2.3052182486528965 1.4085747531454194 -1.051233322708209 -1.2725618532514986
Ni 8.576854622149868 9.077877990318651 7.4237830820666595 1.1254605567539002 1.8031118187963204 -0.7977983985486776
Ni 5.672154019580906 3.6674312236865187 0.41973396155567283 0.90451460636101 0.4580723672003853 0.7385000178986766
P 0.2906479124710352 6.102601980928832 7.632173889467143 -0.15298706585441393 0.12166357315078402 0.6318110637798539
Ni 5.293766593530658 3.807533165296128 6.521006155160328 1.7759100615705479 -1.224499193416317 2.3608951661357986
P 4.33035483047988 5.0219080834364185 10.411306268540873 0.14578257768617475 0.0628120502302144 -0.11093255988652508
Ni 3.9565003557335827 6.914109711852272 12.97908546077041 1.1847373401373467 1.3071858710832713 -1.0169921421371517
P 7.743074321640421 2.8016010421266078 12.844994923998694 -0.1745110559691188 -0.07193021048139871 0.7098802972794549
P 0.3132752744226841 6.711522359008535 12.566362524702356 0.14609779493374841 -0.24445406081715967 -0.3002374863353668
P 3.177890724112653 2.718776634096085 6.300161132456939 -0.306290377397666 -0.28481241002954816 -0.03629857732071813
Ni 6.181157935820021 3.4941849258625153 11.398395177638037 -0.4970878292316342 -0.06012756141951581 -0.14740931465632032
