# total energy = -381163.63613809913 ev
CRYSTAL
PRIMVEC
9.26215917874713 0.00000000000000 0.00000000000000

0.00000000000000 9.26215917874713 0.00000000000000

0.00000000000000 0.00000000000000 13.55610619149870

PRIMCOORD
 96 1
Ni 3.144512257559144 2.5035523274039813 5.842749610770233 2.2824184127851335 1.685596720596271 -1.607645243621457
Ni 9.159237932592678 6.721919304511543 1.1949278101383172 1.003324671952388 0.2221605395262819 1.0154237692087673
Ni 4.537568764237085 5.459236948535373 8.549578542710432 -0.2171862262401421 0.367190041096516 -0.1591307168583066
Ni 3.8633947317505393 3.4859247020759128 3.8260478540537726 0.554582066793361 1.0084835904455083 -0.43377904187065935
Ni 1.540982448767883 0.9259250725948585 1.1881312378319118 -1.209369279753414 0.7970178116289112 -1.1705011419333067
Ni 7.414663965881085 5.372533877725534 0.9221062844210632 -1.2774402643897225 -3.0204587174385726 -2.17453543835821
Ni 0.4123448371225793 6.255338042675666 6.162972087826393 -0.9838753049785248 -0.6785074393951281 1.2112430997373593
Ni 4.369164188501108 7.959788336409135 13.047779426147375 2.684685242980125 -0.4550024700258099 -1.7953008073923338
Ni 3.923311638605453 1.2771868970388982 0.5666218416689146 0.14062391630337073 -0.4809006779488105 -0.30816753981572087
Ni 7.584920973425841 5.901931102197062 4.968218406278101 -0.044896603402374294 -0.19690433606265442 0.47524605076619447
Ni 4.0117837817926745 3.0093680949497688 12.27020079766305 1.01576958258396 -0.8271272294197819 -2.055197428016809
Ni 3.0744255000740406 6.527284294363272 10.430217330640362 -1.025546459465066 0.9779702523479995 -2.038162584021709
Ni 8.12106104968132 5.095058117088726 3.032270635617592 1.0711480593542648 -2.595923048543052 -0.49916348081374035
Ni 2.462789565451829 9.179234933968432 12.665306904373145 -0.6570060749882426 -0.0504337311705196 -0.809945832544489
Ni 7.0393705435817715 7.280538640766538 13.24142801635747 -0.5209288975152899 0.7484563577804401 -0.6321201103798404
Ni 2.211710958090103 7.05506064100212 4.906591704863686 0.39616508817262736 -0.22230657818584296 -1.643585666271808
Ni 3.7707731413116554 6.011178268119725 3.149638862589936 -1.063584388074394 -2.2881545439379627 -0.3541710031290287
Ni 4.3459254314599916 0.6059545262646909 7.268906295223318 -0.23750436897220387 -1.1494263235408786 0.07611159555259796
Ni 2.853217355628855 0.9118910492115587 3.1103534150052834 -1.9114730184112432 0.5611198679118788 -0.4240515301702503
Ni 6.534462467622286 1.1697921629250128 7.47296647841465 0.9355797031969306 3.1849136747232696 1.8063071858051667
Ni 6.8680391255879245 5.372422731817007 9.157081701967261 -0.09656934918631756 1.0743002318300015 0.04781763370391119
Ni 4.687939916314614 3.245367907388044 7.576059865868553 1.349547623878934 0.45773092470056653 -0.9401066445330067
Ni 3.15762747476529 3.9825338835320756 10.109045482282202 -0.4277251223670956 0.7742442653778214 0.1891383189639904
Ni 0.42063354325095503 3.6825973872138387 10.360539034369095 0.5776836858078309 -2.7281039762853916 -1.0422851123759855
P 1.6243511423219221 6.885164857660075 2.502267665944594 2.437380857198364 0.10182365560672141 -1.0567593947327607
Ni 5.648805557686636 3.47424511952157 1.3599896726753558 -0.2517565080158438 0.49512299219577954 0.8633553585138809
P 1.077346553507963 7.137938440126832 11.444186634674615 1.7465740316105922 1.5586289616237543 -1.0585427118854287
Ni 6.421769778535296 3.4316391879196835 12.669143290649123 -0.9488841336153208 -3.1886983385766827 3.126863821768389
P 6.158122421351014 5.4084154818615575 12.236216083699215 -0.6829991566178947 2.354291801886668 1.2455372450335387
P 0.5203879223695371 1.4182310549592305 9.774196203663934 -0.474919263554395 0.960001583684721 -1.5076488710314617
P 4.62490166186191 7.619765215748949 8.147964843056101 0.2177320714412831 0.8597342168215257 0.301971438307338
Ni 9.375157384223803 7.065980726514863 3.8434134760451593 -2.2798650502356606 -1.043699476225009 0.9762265301840153
Ni 6.564999805989986 1.2447508160672014 0.9663080860262117 -0.6207378366848277 0.23338211927371416 -0.6651454162659255
Ni 4.095652631935084 8.724046127756539 10.713512505804445 0.574224780724953 0.7152934978752262 -0.18076552151926287
Ni 7.488298130279997 1.6589730928279767 5.299976902423426 1.8433850644940706 -1.531595097434414 2.01971311906727
Ni 5.523340351278125 1.3932602741769073 9.784878251689248 -0.4361560267432682 0.47660847833135983 -0.34752058769204663
Ni 9.018138201718083 3.7416066024824515 5.701128420341466 -0.18333122536391008 2.2918913852725757 0.008884704084139538
Ni 7.916802656286449 7.036906809276098 10.710909839113112 -0.3819363461677551 -0.6315225860051574 -0.5109697294200489
Ni 0.5721976614133354 4.401044539930171 0.9156162895790108 0.785788518571995 0.674951860833386 0.19024389332334332
Ni 7.076363606803063 7.006425043862662 2.4362488487115663 0.06725054561754223 1.017224312752616 -1.4782562768019574
Ni 2.9760891575050783 8.062959525999007 1.065469686965985 -1.4888561638049906 0.35238922863825767 3.186651997570615
Ni 6.055173523578194 7.451971942509867 4.284827599326982 -1.0543962938172229 -0.9505260400941179 1.1344745873270528
Ni 4.9069066182711785 5.354972824178322 5.40526727400254 0.2515662463819087 -0.9360576712746136 -0.175411199185885
Ni 5.621982345095535 4.018471060622362 10.482123396138217 -2.2415044481795916 -0.9006985750490295 -0.31807322896520707
Ni 2.339889977098474 6.1124044043103805 -0.019289372424801908 -2.164630520539672 1.2729516324907497 2.584548231047207
Ni 0.2690675726567658 8.40354763836087 13.288725231515086 1.2174278883918326 -1.01652471558243 -0.8136140254246956
Ni 9.03473599072473 3.0757870374534924 12.72720406083164 1.3338122154215482 0.01935809281163763 -0.5040838009334931
Ni 7.776480946771541 4.344119310446433 11.297143376341555 1.1671381389983448 3.2224484384439345 -2.07197850412989
Ni 8.6865992187421 4.8925502717531515 8.134368919795579 1.0665187881123699 -1.047084590647158 -1.4497008337617678
Ni 6.553496204457476 8.998882173065839 11.175097759052047 -0.11177382484089782 -0.09696169952872978 0.7751248682105619
Ni 9.057131891292853 9.012312303679478 10.867469039647862 0.751121820427745 0.017171369572963977 -0.6714939841917725
Ni 2.3905169384323677 6.487262505134631 7.744399606491224 0.4460486032666318 -0.6360433566936465 0.5946876765649952
Ni 8.736920528827545 0.12925250324155774 7.4178871972283575 -0.09439136769839228 -0.6934152097448961 -0.22288121974239034
Ni 6.95561283934789 6.412952203125514 7.045406692630674 -0.3473730063705889 0.4037835239498336 1.010284391099673
Ni 1.0450494049219243 2.0272828472081974 5.096296467752894 0.06642779260593076 -1.6571981148489203 -0.9364873026128646
Ni 2.1714854013624953 8.440957498739134 9.402189921609297 -1.1823510992933575 0.8595565535930809 -0.5137015265289153
P 5.7286731551220855 5.099318710248915 3.290120807456304 0.8423383899425816 -0.18932472394318361 -0.6862449172487021
Ni 7.4660504242565775 2.2464347923456405 10.914657887544665 0.5912048602227172 -2.251782947287464 -1.4139442449874489
P 5.428542153463927 0.9768336035636865 12.53116953845184 0.003731956238606476 0.31292279511251914 -0.1747429694742668
Ni 3.779970465242237 5.580228532125687 12.132159431704746 3.392103966092964 -1.8556744233843847 -1.0721950125615407
P 5.38498221948052 2.3156786933577496 5.162341219031244 -2.3816249424839824 -0.43403512374552344 2.9414209493781147
P 6.727430289142656 3.2765443347297727 8.65875902108798 0.13200686405832104 -1.1583935600364952 -0.4368227137929896
P 1.9856957531011388 2.3279788405680333 12.887749694618881 -0.7352578568122949 0.12514613238274577 1.8307804883561827
Ni 4.913140051307715 0.08992074486168582 4.672599928506125 0.9440825984616191 3.892679753873199 1.8479140627126758
Ni 3.187340480978084 3.673603830782223 0.6571223976867479 -1.1366476837189716 0.8145288239294811 2.0353140588293206
Ni 0.5859232549004736 9.130414093648097 3.1861725227226496 0.932607250832168 1.4154154302163364 -0.7332670516345114
Ni 9.030512446200717 2.3580993817787586 7.477344700994696 -0.7220578131822533 -0.11559294147667189 1.5187336680907133
Ni 6.572363222429877 2.705541491833099 3.656379919824208 1.7519538078652668 2.964347219156985 -4.482501360595145
Ni 6.810530380084423 4.014071535076515 6.1223575204189435 -1.150714960445315 -1.1126706040780838 1.1178197523791908
Ni 5.522932816280194 6.620396779231482 10.573057421199303 -0.5226291680358484 1.2072072391050885 0.2848039253891159
Ni 8.96808549424491 7.2895877701524165 8.565886426139006 0.4164973719720762 -0.018478004199529465 -0.8272922942427364
Ni 4.18342085103497 7.402891761736303 5.9657844266456275 0.2766869527089364 1.1855222979324873 1.3447442889530195
Ni 7.4980697080712995 -0.08385032582432138 3.4588541898383403 -0.35021484669475816 0.1958913214171078 -0.23459850817931854
Ni 1.7894028164840128 4.708705676891011 4.8409396691287965 0.6533119139661071 -0.6435226957898272 -0.3176268854564078
Ni 4.7784312101734026 5.578774373155797 0.5339301251076063 1.1929245039338294 0.7738411164021318 1.6282703760709765
Ni 4.055084375322853 8.098239089797177 3.2603244418121156 -1.4833645445628 0.2823824604318169 -1.8355856230543095
Ni 8.225195503811756 2.7333835419190273 1.285590453939418 0.30428851647628885 0.37355300720006634 1.7492688048339358
Ni 8.271256220737012 0.8944652231863873 12.748514436359818 -1.4006084471104912 0.643498527420111 0.42800871504578547
Ni 8.996103525352671 5.951539226036128 12.353937198931131 0.1470809847826241 -1.4870689899975809 2.600590372111734
Ni 5.56475146436335 8.626830506431887 1.542182824579971 -0.7678159932539744 -0.9285744755236912 0.17222894480316142
Ni 1.5214670796624101 3.8039038842116444 7.988124985788007 1.5803316434081687 0.26825990498750574 -0.3996196223801311
Ni 2.2687473334823673 1.4787777886291287 11.002989245914419 0.4443930699410798 0.2789947749065066 -1.6848444158112788
Ni 1.0091863251039885 5.6880400633965476 9.711350602119342 0.20582914935611005 1.1718278311645303 0.23048165779746757
Ni 6.855238821789271 8.351188653285769 8.901562815559895 -1.1061325458492497 -0.03799910495159262 -0.33943626802201543
Ni 4.752311921669638 1.6847218949699865 2.691483386836285 2.2129749732813306 -0.6455214713874108 -0.5537744832904011
Ni 6.3352982617015545 8.614141348541759 6.374338262071543 0.4261040418239049 -1.2629017044539153 -0.35129625268439496
Ni 1.6828046280479014 3.0800661549317683 2.8125527725625674 -0.5709371111126167 -0.1077356502157822 -0.5331028138736624
Ni 1.488780920396528 8.28311178431319 6.717199308262777 -0.1359563356243723 1.8148221652547132 0.02999191837639996
P 8.886421037954946 3.1009986343709564 3.6402211571562404 0.06447786796841154 -0.5727605374746007 -0.4540807295424889
Ni 1.7734719029285249 4.505123421106345 12.070763358050522 -0.6632137464608513 -1.487137124231355 -0.14647240466434772
P 8.42112721622617 0.05747725416275364 1.3015361869493765 0.03711027458873609 0.3322004123952085 1.3444822935408844
Ni 3.319789355305687 2.093711051870965 8.880496961030476 -0.3546883090850795 -1.0160038100819533 1.7404468356669316
P 2.7269556035425686 -0.03502855928808141 4.887857135765613 -1.169863765459624 -0.5460701726676079 2.389928834363987
P 3.0815295760607033 4.765408614557696 6.615460974676994 0.331947415844138 -0.4882907997652945 0.08750235388804285
P 8.328144401584575 8.075583848775828 5.668119937940857 0.2147933005279333 -0.34565653790011436 -0.19852233128205166
Ni 2.1676601296773694 1.3325190351670875 7.225689061124536 -3.8120113921878542 -2.0703684793302926 1.2842665432829365
