# total energy = -381163.6570154892 ev
CRYSTAL
PRIMVEC
9.32127055167095 0.00000000000000 0.00000000000000

0.00000000000000 9.32127055167095 0.00000000000000

0.00000000000000 0.00000000000000 13.64262166084466

PRIMCOORD
 96 1
Ni 6.239154959949474 6.867343326229208 6.561977580555907 0.15337273132860682 0.685515238171529 -1.0228514291314061
Ni 0.7222940465178439 0.7083988289490578 7.085977448562947 1.1301538484645117 0.44747505130051324 -0.3453125242971343
Ni 2.305578912436412 5.654068147327798 1.0101078403014117 0.2257405435680564 0.599014071854491 -0.808390315131911
Ni 3.820760713619577 2.4084950573193304 4.3165255218978915 -0.4127006239338054 0.302447349502492 0.7618476914856814
Ni 6.855924770167114 1.2378180834822203 2.9560833318330912 0.28690708777504775 0.1806575351864889 -0.024795718887441167
Ni 3.5057949917108893 8.339749818213232 10.758926119117502 0.8637626212546287 -0.5467211759880455 1.0641716280364317
Ni 1.7590448735884654 6.828352452753504 10.693100240705343 0.31518459456350234 -0.17058678121404816 -0.9717322418580878
Ni 5.1229048831299675 0.945465763211605 8.962015449373085 0.7191414108664066 0.8879153072414321 1.0112593534184326
Ni 0.506090911466549 3.88778996802163 5.5401594284334275 -1.107934117834363 0.20784772244803557 -0.23843562253722161
Ni 2.369084726682162 3.0208559067064646 6.279821797816985 0.08267819302652213 -0.6792962538450107 -0.12024458131607034
Ni 0.20593202735756355 8.299015867199886 0.48268520185682084 -2.775742918319594 2.660716647979669 -0.3859575515120062
Ni 1.9000477287323756 7.933370398916011 2.1468031912977312 0.8234492663475624 -0.4954855177415209 -0.15054554629245687
Ni 7.38160712745514 2.513890660090018 13.276753151636111 0.21397903215675407 0.1482014715403125 0.3044913765157143
Ni 4.838391751143614 2.5215341016989297 1.9699395452296686 0.6278199403425897 -0.5585883597392767 1.0246949100980483
Ni 0.6112889033078355 3.549847314934933 0.8435535191351251 1.053354997036902 0.42398982369437954 0.3805294385178995
Ni 1.2664623469751295 2.924623112596216 8.459898195416145 -0.7376960339401425 0.20612534044029016 -0.48859753237243597
Ni 3.701578952142084 3.8134621590100917 0.5132515112762636 -1.1505822915221924 -0.20097593502886676 -1.0909432397033212
Ni 2.5293360049021727 7.194846156630561 4.2852293570175 1.2453104737347134 -1.7175545044497904 0.5812474918996893
Ni 0.3226343309472876 3.221980954993643 12.13369230518281 0.5949501861977625 1.1765872002263864 0.07571127479038575
Ni 6.578952545816869 7.407632114006458 2.0108813605696962 2.0946060117214187 -0.7309929108883539 0.09170893577022271
Ni 3.3881605610956878 3.767657436978151 8.697607365199245 1.2456658001916032 1.0012392501782692 0.5993449728313485
Ni 8.265701647309337 0.7902339890237882 5.249407570265557 0.6617497603208151 2.02016537611334 0.06686565147429775
Ni 6.033359955264655 3.1394783919686713 8.444018479410117 0.289236764349489 -0.9972041608769471 1.5240504523179366
Ni 3.774648389669228 4.871976287871552 5.256433943783603 -0.3604252115688567 0.5326474715037988 0.2590766958263409
P 8.57960474440898 2.4372977824065707 9.610217515016837 0.5542167130341423 -0.5716775888230671 -0.2003467860853001
Ni 6.765322023290747 0.0813756214511701 0.7186792579130441 -0.19184929013725022 0.3588689228253303 0.0589440826343759
P 0.7348768292347583 5.992542112819017 5.283323012087538 1.2151527192044105 0.8232019262234467 0.19630475480544254
Ni 9.087241122483771 7.335299056829441 2.6754953867510216 -1.8562899454811965 0.7614681966590757 1.610944483198019
P 7.902805953750621 2.9459967852904048 5.8934756525513174 -0.7507850059136166 -0.9292686733772384 -0.44326718386675273
P 0.08784551513500616 6.304525028246178 0.9169482689941609 1.9079650052579848 -1.5139503877694571 0.35584479128702584
P 4.093454474922882 6.9975801142288585 13.262565246181326 -1.1950081259357355 -0.8531059128717308 0.38354122876102975
Ni 7.953364523612494 5.239830897205806 0.08424936907071578 -2.9650612145048743 -2.518941391680675 0.6034322555268445
Ni 8.567598948320837 5.947818658136628 7.258475011643674 1.3149860838539806 0.10411630829564004 -2.460141290823331
Ni 7.182150586543564 8.40743156153312 4.456116204598204 -1.618869908692683 -0.511471608757132 -0.7802290222063466
Ni 3.561881074833842 4.997599047095091 2.883736292750692 0.08821146413992549 -1.2971477701209788 0.08558508226067195
Ni 7.499521196177984 3.468537874502572 11.195298589713499 1.5798534182201693 2.154954688012805 -0.6386401708865453
Ni 0.931226590770418 1.100441202467416 9.811691178811545 0.5988706042980912 0.21483340973724938 1.647334591791279
Ni 5.371288771608831 6.6992248959141705 11.619174965405948 -0.5353895530253102 0.30971585813944724 -0.8284117525591603
Ni 5.841966313123457 9.318035773991884 11.646883373365277 -2.686886621506818 -0.856105618930003 1.3127947326296165
Ni 3.1792429308755215 1.5746981117598735 7.878968669328096 -0.5253745919914693 -0.975674000114655 -0.5972716352420876
Ni 0.18786274496869135 8.677300977949228 8.818986150075787 -1.8576513446050977 -0.8308915815582205 0.9206068839371824
Ni 1.0852102468711213 5.236848090724279 2.8815262195732854 -0.4331748326277572 -0.6455986044822494 1.5391109461954848
Ni 6.8062051146281695 5.927964352493968 8.691523372103957 -0.7814767785705186 0.3916903402307254 1.222373919543198
Ni 5.5221814944930525 5.2249355073386825 1.0785296924795273 0.0941712812677862 0.5760240387172209 1.346968293187532
Ni 5.5380929028179455 4.3053269478138105 12.594226440406194 0.023983250288474825 0.7561365000335172 0.18555060161273207
Ni 0.4258701953999449 1.0646754884998624 12.452125539626273 -1.3838096303855976 0.765825959407139 1.209564940703988
Ni 0.09534540918199433 8.425738536313489 11.509637922261067 1.076778775277481 -1.4814159054768616 -0.5059421942984706
Ni 9.135963402105455 6.395565874824519 9.44636915860551 -0.7169042940057718 -0.5438513106394182 1.367889102500599
Ni 7.021162927973427 8.386868839351095 8.370089620765484 -0.36279654001451067 -1.053064976600309 -0.6825510133368825
Ni 1.245097995551196 1.3989921674574535 4.852066054607362 0.9528012092815396 0.18354231293345166 -1.3205787474504096
Ni 8.550280028187473 3.1191114164619984 3.6512021470501783 0.21609042207280202 -1.6356347868558474 0.1796751166685615
Ni 4.565884415245405 3.150896948030765 6.545074389075907 1.3941413513289087 -0.9877450723465763 0.15211443344147352
Ni 7.909554553415074 5.0795982615263044 2.7476643895715553 -1.0112565252049552 0.9968490915303736 -1.2648829965500024
Ni 6.613981879434297 4.499787287868828 6.761597243696941 1.5452751660246675 0.07800469881025275 -2.025355919175344
Ni 1.6367311653053698 0.7498020471666965 1.0803669148467427 -0.32185686437735533 0.3246881631785634 1.759632664566763
Ni 3.092182266695967 0.4521710915508048 3.184078805883696 0.6183312841258641 -0.34389378957273675 -0.1384402783884906
P 2.31194534002042 2.2177725466364757 13.456277088234884 0.1898523143118795 2.8242475507882006 -0.7443204812351955
Ni 8.644629925706258 8.046605189970961 6.647394904789546 -0.4796038135142579 1.3303065162611347 0.1858316231882606
P 3.1027153020838574 0.9944490384004231 10.037762742681563 0.6994665581452986 0.5785720019500552 0.3596957896019999
Ni 4.530640692412118 7.124489208747555 2.7639402595634097 -1.6506978518365574 0.17276527692260568 -0.6875168419825901
P 7.337666659474152 5.752267729461802 11.148190754099941 0.3377889622265795 0.10043088902425283 -0.5581926669627547
P 7.712614755472287 0.17643579976336843 12.519247074603848 1.5780379622779854 1.0834358755826825 -0.7335946101772591
P 0.09445243149158733 0.40107468439523053 3.0370795775848927 -0.31916389092622455 -0.2488683878347714 -0.09068460827076641
Ni 8.679985503782602 1.6204562274405407 1.2401726363485754 -0.10071885257831686 -0.8650648850058199 1.4456410618700972
Ni 7.458022901003747 8.161527130942025 10.404436347074538 -0.18499807154337172 -1.1554550462334618 0.912224573410758
Ni 5.846468486656511 1.1301480907693688 5.124755155275539 -0.23553258995781373 0.5884717775622704 -0.7176296022075705
Ni 4.6408926769855405 8.211880632858293 4.848124089416619 0.48751355527963786 0.9534444992924934 0.32128685080649827
Ni 6.88573419244187 1.3126865261685354 10.286645319119057 3.805356348765182 -1.110474110647397 -2.1600125621516866
Ni 8.53114346035443 4.142269967247113 8.478452183858264 -0.36550519719492536 -0.4395959056627526 0.27241352214456316
Ni 5.611013200021013 9.302767533314569 6.938814165907659 -1.378788265911606 -0.9125536746154026 -0.3678042776417472
Ni 3.7323577865233357 8.625903493764426 8.503936536734807 -1.056691774719619 -1.025897929267214 -0.9583252244235626
Ni 0.0821828434552332 5.761644927338101 12.140391502114912 0.7198870307831796 0.3040599454052505 -1.5143440236634498
Ni 1.5176146527196603 7.130100613440928 8.035817683905115 1.1347188421273748 0.5001829232171902 -0.08007366552413951
Ni 2.984493631442606 2.95124466044384 11.226867867812354 0.8229790115793633 -1.5245106797838066 0.7801302918449532
Ni 7.649509755847492 1.0683201051694775 7.632037034754926 0.49325225753562796 2.0038244728614716 0.2574946960512017
Ni 3.632517660824491 8.856865928137124 0.6487939663049292 1.5288658714287091 -0.46228743372299735 1.0508278597396743
Ni 8.01193938589347 6.3629693927435875 4.757687261150787 0.3685046461428815 -0.9881577344039627 0.5420029445767698
Ni 5.864057723627263 3.4006976695883537 4.32157298974085 1.360924755367624 0.2229699228014547 -0.15171102735546774
Ni 1.8815916136279305 5.085806227515982 7.24818805779051 -0.23420384384406115 -0.14658733297565724 -0.5188838420608032
Ni 7.394517086757996 7.380768213132209 12.707883485003684 0.19708662727678958 -0.4111487060656532 1.0512600621810864
Ni 2.5540560136178234 0.40000833107808476 12.476231276632133 1.0369719276931884 -0.5345061219790923 -1.7968380699724666
Ni 5.519608823902736 2.6475949606244433 11.083197265121528 -4.2901455631351215 -0.8164766916844712 -0.15519692902153917
Ni 2.5764363834995265 5.189020653047053 12.281360800685906 1.1798494159174262 0.11176045510445913 0.30597027505408597
Ni 1.4414691960084418 4.354981354460971 10.474750417114373 -1.0595706389293107 1.1711554876878538 -2.060549950577974
Ni 3.8288142911196985 7.0049439177301265 6.796098993417947 -0.9276421935174088 0.13081644329464567 -0.31488043305952224
Ni 5.7553344273756215 5.703200562840691 4.273128483972758 0.14205499232294244 1.1383916629932715 -0.4500595241982378
Ni 3.9813568788390143 6.367173285628489 9.319138480263023 -0.679536651990591 -0.4231567862701228 -0.5547368472036704
Ni 5.178347798605341 1.9647280230302266 13.244079303012066 -1.3421042802270111 -0.6406695426117482 0.5043969612985378
P 6.917911217361337 3.296038447167793 1.8408530019794571 0.277939851279431 -0.07736089457866677 -0.1189240627324339
Ni 5.492940669703838 4.719107455693318 10.180055661628733 -0.2774503132375222 0.20972565619703878 0.21355351458356125
P 5.293987477386021 9.180314005977653 2.3082364065860466 -1.3332013213104266 0.1986406020274708 0.7763692821406242
Ni 1.780856645984628 7.353839063366179 13.014624118039563 2.060606514847522 -0.11005401393631369 -0.8702425725520173
P 2.1822771495063105 2.7871157337978447 3.050749220413513 -0.5418779889631312 0.5349182698158466 -0.33905805874699024
P 2.8075479581963014 9.229604883084878 5.736981778371004 -0.2985667835011632 -0.26563223755667154 -0.31801743602660715
P 4.742932622464511 5.208800388527675 7.478530627691266 -0.807440549624132 0.03400335352863822 0.9365227838364903
Ni 0.6148841172451004 8.20999773626683 4.775094733351571 -0.9265875270006493 1.3327135830407306 -0.003372516016658708
