# total energy = -381175.0698542432 ev
CRYSTAL
PRIMVEC
9.14998015799336 0.00000000000000 0.00000000000000
0.00000000000000 9.14998015799336 0.00000000000000
0.00000000000000 0.00000000000000 13.39192085539926
PRIMCOORD
 96 1
Ni 6.821950853293099 7.865158413529766 11.409207494467601 0.5350766497705817 1.115466421655666 -2.1185283268649706
Ni 7.464444173861971 5.339626585838611 1.9412927720505595 -0.2618663427563361 -0.0429343374696809 -0.42355659281170277
Ni 7.099186108069884 5.330613855188917 10.979205997679456 1.9731460699410084 0.21838950251962388 -1.2158913971426477
Ni 7.793001668450071 7.644433437425592 2.4956251169007686 -0.35568229756723263 1.2436508266441035 -1.498768023602064
Ni 8.663832748778495 0.8675325124104402 2.0674581911738037 1.230521745461313 0.0401446905396857 -0.06739169918109683
Ni 5.395194416534656 8.00232576903189 2.816294413424804 -0.9728578708220987 -0.7474538846578547 -0.1776693990924424
Ni 4.894919240623875 2.0552960372859097 13.32389029364969 1.1696981864160374 -0.36877358353355194 1.5572120266715697
Ni 1.7177258120481156 1.7673004056116197 8.194583326255522 1.359051706714627 -0.7251757899859446 -0.8184060474967002
Ni 4.033723089609286 7.759558490252468 10.40575019388725 -1.197916557831782 0.7199654494295988 0.09179275373328062
Ni 6.256399717529598 7.596222190934986 4.888184855082579 -0.5773941795918701 -0.573813147108831 0.6654441784532669
Ni 5.033879992275581 6.337642393101831 12.033632348829416 0.21674091117260738 -0.025348248956801503 -0.12654532672311755
Ni 2.5743286729244828 3.7906172615567306 9.520651549191241 -0.8115869676923376 0.570039796109328 -0.7116037077284648
Ni 5.864551808825818 6.868304653771635 9.445938299600352 1.9244419198670857 1.1869019518888333 -0.6402255130957941
Ni 7.331677958910616 0.9320352989231616 9.71731207696171 2.7050836041308184 -0.25198739307972734 -0.07877243021421272
Ni 8.270758742707143 2.945076726929584 6.80739506454433 -1.8458016443553629 1.2799360342283828 0.30625283929151126
Ni 5.130659334490639 4.890673649739146 10.015737771242689 -2.81361295389249 -2.194576416169485 0.06617145362075055
Ni 1.4826628167276226 3.586673349423665 11.789202518619486 -0.29852590296089876 -0.3797123419332428 1.0512027265805897
Ni 9.093168126996797 1.3717193049229917 4.3043914034852735 0.9985532187056736 -1.1411203747783445 0.4110008676338792
Ni 7.473786303804449 2.9422951329016573 2.6881736434996912 0.3680207645279275 0.46817037486633567 -0.5182384951673203
Ni 2.833995965419627 5.517200254588507 11.211930258021205 -0.174255488314887 0.0073908931474324325 0.15012825624938017
Ni 1.6781612969930042 0.22063713629276635 5.621004036722114 0.4027442840520418 0.5733971426173351 0.239162216290601
Ni 3.752928492474399 8.137187329484545 5.637075062217674 0.20552987294813635 -0.7471823761640228 -0.2942105634149966
Ni 6.066116726066579 5.141383111466724 7.672137747944525 -1.4709186054899634 -1.158164731855141 0.20266643535741227
Ni 5.363828283877642 4.003949053534048 1.6412200813056772 0.20068180082721568 0.03253139696880204 0.5528028634057511
P 7.108125638876739 8.435440089136813 8.206850704917498 1.765770916254017 -0.87271494535191 0.3267123926974438
Ni 7.4499872049010385 7.057873946766963 -0.08125914553687158 0.6462670913041838 -0.4251059395766936 2.646197628427888
P 1.773000843372798 7.179824884938685 4.986803343348997 0.043895158721053436 -0.01440923344679454 0.32915854024509117
Ni 3.803610233660861 6.290519994273472 3.7347392465266522 0.06333552683385221 0.506566972366663 -0.37375869545296925
P 3.2802405073340077 5.287929196832742 0.04432433483579332 0.49683123313613786 -0.11430353324128702 0.8374959742486157
P 3.236833000529787 0.591311990455027 9.730690263238788 -0.05266750559704478 0.9466318472460343 0.6507320690540729
P 5.864926958020375 5.403703898264825 3.5159284463127483 -0.2587895036032253 -0.2292367296467729 0.33625915584561444
Ni 0.5664679637950737 8.893579605512722 9.2993501243247 -0.7738637421099511 0.5508084586835417 -0.6281906934184471
Ni 1.2156389400270413 5.789759869403876 3.3100941482383353 0.06539266647319707 -0.004751141531740204 0.447006596304527
Ni 8.212317818179622 5.068695667526437 8.391940167531008 0.6701032744918329 -0.5055907244963229 -0.9296450828800505
Ni 8.984905559436188 2.827435429505077 9.031578694229115 0.7346125099188122 -0.8767765170157932 0.8850747524688434
Ni 6.545703796394656 4.917556292022197 13.039593084034896 -1.6050677127022681 -1.2995959745511554 1.6984470941963783
Ni 9.058087102315646 3.806346077787012 4.40061168190064 -1.6840193488068222 0.21837279034907553 -1.0696120823257127
Ni 0.7266639898547126 6.464387920979584 0.9422814469247143 -0.2681362349254479 -0.4319016223422884 1.1516086759041781
Ni 3.108083626954285 7.388682336522397 12.819536971494676 1.6932488378248902 -1.0230285781392188 -0.06946066589498359
Ni 1.4339117213960701 2.7065275890938283 3.1848400671584507 1.6559899534734317 -0.024154999979648723 -1.3106375770772976
Ni 3.244839233340431 3.471795346066375 6.773915286425309 1.262427078810342 0.12728760420578078 2.3601071230168644
Ni 4.768393312274642 5.85660962587766 5.727443013197969 0.09295797768597538 -2.3541964139593845 -0.5706380918149592
Ni 0.17281750896135495 1.7463469505986216 13.162557840029956 2.270268407686161 1.2272266196498092 -0.7377621112913875
Ni 5.459180229157317 6.418281169970632 1.0293508299870242 -1.5852535061898183 0.7279505245176043 0.7506801049046362
Ni 7.218099252763738 2.69229936964177 0.2860713908056289 -0.2666959029344955 -0.0833101701835662 -0.027764571707777987
Ni 3.9810466527054302 0.043713116148077914 1.3426205373979534 0.41624540386227027 0.2627484882509733 -1.3542308882872163
Ni 2.6629553826432177 4.620447279914306 5.019787192532777 -0.8336418906098483 0.20747979758565555 -2.151644649802965
Ni 4.472583597377165 2.5163635473754242 8.861970083378266 -0.5974079037096357 -0.3026522664244465 0.7054119770954561
Ni 3.9347660520697336 2.2290724641884707 2.2075379854229285 -0.3355590444547963 -0.42853733385574583 1.4663412705319263
Ni 1.799435136618454 6.680025508006366 9.14008007627699 -0.3630145695625877 -0.24646054972422718 0.1688425448294318
Ni 6.294161686454771 0.7859101126534742 1.8214618843270964 -0.8233101696665369 0.9698887608914458 0.1903577931933883
Ni 2.956468452471585 7.244542695989749 1.7703720540168004 -0.9589813699503227 -1.4227551584108595 0.3758960535109461
Ni 6.972989579013432 4.618095734963066 5.548433712530371 -0.3066009666595494 -0.21171594715419023 -0.23647335660452823
Ni 8.787256833787376 0.7261570809430444 7.036851866901302 -0.01748941503401504 -0.008567429954036858 0.7537859975234696
Ni 1.3773556928216846 1.5288702175204794 10.540526659522605 0.9206125403641371 1.266694595837444 1.0586064752438284
Ni 6.376172960376825 0.3065197669030301 6.464240606295868 0.16961361866750144 0.3119601740889337 -0.4116958368183748
P 0.25455519847079416 4.424720050140049 1.8445500297569213 0.5667104746257788 -1.0009019214435086 0.27510006783779073
Ni 1.2083555556644445 2.6657003767497236 5.959270575464926 0.6846395204347951 -0.5007051142692474 -0.5468523022492712
P 5.906650868439271 2.4278832373423698 7.26263952713591 1.0697838320168866 0.622015932066303 -0.552012763404288
Ni 3.037939877552693 8.679406015342742 7.887493515576374 -0.808490073934569 -0.7333686102093822 0.3131616505962026
P 3.131626526407754 2.305529700035027 4.783781749235717 -0.23256682246127044 -0.5812626614083408 -0.11459895299451875
P 5.8427565556201575 3.3811007407874056 11.705972467314144 0.6128198673893317 -0.7809833838738679 -0.7583260514856681
P 1.897349076397535 0.8386606643982066 1.9204280718470048 -0.35042901958809325 -0.20818813650658985 -0.4258127358357312
Ni 0.41626737627525995 4.918004641059593 10.345339278589295 -0.014711338068245632 0.24513026094857782 -0.2228963892510419
Ni 4.1805619743466655 1.2100025521283484 6.632416330223121 -0.894555438265769 0.4460943689029027 -0.5313395513256527
Ni 8.62892557372409 8.32312408027893 5.212604728554138 -0.5977210640746803 -0.26055559436471254 0.05035094164872618
Ni 6.784161434426862 3.2578505054052704 9.313678993560664 -1.3547826470256281 -0.025711802943807333 -0.5407531313300687
Ni 5.039552980095694 7.3452199298360465 7.252609318670736 0.864489472118324 1.0839017594755074 1.7854249430395186
Ni 2.3878886732105724 2.666963074038717 0.4098733700031712 0.09907977431299711 0.12359832827965166 0.3993000342571833
Ni 1.355871538948095 8.5070295354345 13.38543946650381 -2.483912682211316 1.8896199270918939 1.5064427665385023
Ni 8.039438089351854 6.13622387554675 4.140701914926088 0.1526602786426145 -0.5539778575504588 0.4691754190920823
Ni 5.031080098286944 3.37217950994126 4.737271484093109 -0.19910082949334099 0.4307127442405098 -0.2670689700031981
Ni 5.554577924338768 0.8072716567903067 11.093358407594593 -1.5607406086501185 0.87543851493066 2.194684145391943
Ni 0.7441926072208265 8.190229765602602 3.2686063073125977 1.7520024017150146 0.4975678541918463 -0.8367637240682815
Ni 5.325572216013299 0.1973650762578056 8.924925608212952 -1.3979699810463795 -0.3685380704839782 -1.486021522569673
Ni 0.7023039971555397 7.811054579690527 7.2265483446235645 0.001042068111269173 -1.2434325399857102 -0.26985810271256105
Ni 1.6920784171129912 7.845733005236057 11.07661851853508 -0.1626922089573198 0.9167538287396793 0.1689297052265994
Ni 3.1626266598505657 0.6101106250944179 12.599427789068393 0.13492506614638053 0.4739887813203256 -1.7864981214990394
Ni 0.12565119022729207 6.541805904763416 12.10649730238859 0.3784974956895353 1.2502310509647825 -1.8719870445014792
Ni 8.145733411136135 2.9205730795388374 11.206105380527198 -0.062273661228241135 -0.08143300776551136 1.676864997150228
Ni 5.037119085321259 0.8657720561901342 4.19471150396767 0.73490818678236 0.9865677642090235 0.7034337703231627
Ni 0.24539515313738253 5.277974018206479 6.0122764116615635 0.5318871962990065 1.0163359966103913 1.201321726858589
Ni 2.3897644191833516 6.090849122966201 6.913659276395404 0.8263078188422802 -0.47124824246071095 -0.24114556526921696
Ni 7.720094624981263 0.3083067580663657 0.07019864928372206 -1.4565793060491559 -1.8677624648971702 -1.9253844862860132
Ni 3.719229114826856 2.8331999171287405 11.60723319930704 -0.5633850097969717 0.5369319578117655 -1.849016808858551
Ni 8.450180707488752 6.8884895104348125 9.663462612576339 -0.4039632440608075 1.5954373887013553 -0.07677905393326777
Ni 7.164215018453019 2.168490444257876 4.846428919732441 -2.0242295188803845 0.27656508241909145 1.1154628221112401
Ni 7.5259686417691345 6.7872175278654385 6.7169054188253146 0.2372824827693849 0.2849376227535028 0.846740118554703
P 3.7702677052471634 6.082284741353901 8.650551552293182 1.2265396208851134 -0.1879574112820118 0.48920585538039607
Ni 3.024892005566433 4.435123577803709 2.3846596451432855 0.057149966848430614 0.6053847512675251 -1.4078167919334723
P 1.016672617207107 4.0573483388859515 7.767743147680034 1.1186291356543636 0.38131773874714975 -0.5081659414226668
Ni 3.208587011173837 8.894000504609052 3.643500217416559 -1.9421817603490101 0.0922781780101314 -2.023945926201695
P 0.09508568085134401 0.1817167798546485 11.571852055270243 -1.282087533353747 -0.6083212081880297 0.5173162404633671
P 7.082185444570254 0.135147039839733 3.8655912855877386 0.6852025920271168 0.9537221784339124 -0.6534813496644358
P 5.560497961628466 8.52295965123259 13.043918279748718 -0.5766231057538005 0.45909129538320287 0.6959839989133368
Ni 8.680101413849723 4.703547401498608 13.11235098282392 1.888492241245354 -2.1128695859172963 0.6163890727978288
