# total energy = -340870.77528806264 ev
CRYSTAL
PRIMVEC
9.22445392757066 0.00000000000000 0.00000000000000
0.00000000000000 9.22445392757066 0.00000000000000
0.00000000000000 0.00000000000000 13.50092074509483
PRIMCOORD
 96 1
Ni 5.053451143682055 7.0203538200753535 3.7290215491116454 0.7782873250989435 -0.26023420646955187 -1.157455621603258
Ni 0.7997241959173137 1.9853608090662855 6.35752974759622 1.5157380757974992 0.02519244010522758 1.3949448210668105
Ni 0.7318866379510901 7.907202062610905 3.9324539702595644 0.9449480317857082 -0.05675915916791515 0.10590553898557889
Ni 0.29672762756537135 2.592837234443375 1.6440209540914354 -0.7358672082615197 0.5389515593449556 0.6571711398111972
Ni 5.660789202247503 8.28217612215959 5.4900141159832305 0.3354448874744352 1.624286451722564 0.4816028462221577
Ni 3.8335539855252168 5.0031040731527385 3.247916455252223 -0.248455725777385 -1.3127728782527455 -0.002730768667601749
Ni 8.852035223678389 8.848945031551727 9.58105028906521 0.7992251036928752 0.27329232520509067 -2.057734078395734
Ni 7.098300457300111 8.140506955946831 12.217496130310959 -0.538048587914712 -1.419657236211826 0.13032639103210458
Ni 1.0663468950511206 -0.26407029268172527 7.528626776177894 -0.004394015302637593 0.6195170769038492 -0.06784215645495413
Ni 8.926845546505938 0.01713257861746061 2.205578046911739 0.3189170650227411 1.162301893951966 0.6222198205469929
Ni 5.859059618875779 5.473606579458772 11.39299505065569 0.2705337886233469 0.827473299905291 -1.4998792543883719
Ni 6.892991782186333 5.527394371370909 1.9819754344081213 -1.0257930282582333 -0.5769421796561162 -0.6567024277048948
Ni 1.346392097359572 5.113649931200253 4.381507775870331 0.16106470065622583 1.432473671250204 -0.5072624557717909
Ni 7.713949749018163 4.202891903613035 4.1041856324149855 -1.72041691359925 0.6704853404216001 0.1693235982309084
Ni 1.231243236711448 6.748518381924302 9.164006261659608 0.3489344373204378 0.06283673282056275 -0.4896102899076665
Ni 3.9995572616786768 4.5550907859655165 12.590188982358379 -0.4962483640494744 0.6212021779157559 -0.18695108150468448
Ni 1.88206537194879 0.9522403977173632 11.769130468976755 -2.3747832369718003 -0.5857188974074816 -0.4562170591592014
Ni 6.3611005337819835 0.6459986681835167 3.5090644408720784 -0.9613506415134476 -0.5938440976177772 0.11253744247979973
Ni 4.410608161249377 0.5923261819477472 9.14019148848527 -1.420681306600966 1.9212282980257946 -0.0197121337169467
Ni 2.328713439927815 2.993741234493693 0.2697497890769067 0.5151061201859258 0.08848734350913148 0.15791304240112158
Ni 0.4196610050364507 2.912584487238851 4.1370200768175325 0.6473376986605432 -1.3680120012317085 -1.3218964378205686
Ni 8.450919061183555 6.962617961804376 7.768308534639675 0.5108023506042494 -1.3267522232509732 0.7860281453866269
Ni 1.4675184042706124 5.094592209010152 12.777055206371157 1.8113905138653448 -1.68705787852283 -2.772714415905915
Ni 7.760570140087267 2.648266979186993 6.362498038579564 -1.7902293064066974 -1.5616068133051557 -0.4401358373266227
P 7.683121623384419 2.205806813373653 3.079816460679688 1.6286496137872661 0.9491407297108171 -0.7600052389603039
P 6.410626627895561 7.083061659111318 7.05346130831954 0.28790698979447193 -1.4959143562033528 0.03064780679284399
P 7.697170466993094 8.143532576894726 3.6274676889300124 0.27587679810281523 -1.5160743760909954 1.0199077731220498
P 8.754661886099154 8.728003213722875 0.03146000074024089 1.4137786659438618 1.1904338763014919 -0.180775805931908
P 2.3582409175321284 6.685487686994507 3.2082374659004724 -0.19190534018616628 -0.6517664238558581 -1.211634678748823
P 0.8615086670969236 2.594359269371432 10.822878586867239 0.4412727791445432 -1.1728997240724703 -0.1399320324426687
P 4.006475602260755 3.0583216377138736 8.872184198789636 -0.2178768245492635 -3.0765704728304755 0.1939426823311692
P 5.786048064599572 5.158157922278294 4.874709818848871 1.1308711862465104 -0.2403629214669215 -1.173062732012896
Ni 4.978373311685332 2.964250654705817 4.823352670594571 -0.5987415349193946 1.7506618285267206 -1.1161500779862519
Ni 3.012642140963933 8.337725784806631 2.023598938686142 -0.28324892219717024 0.09246663987185366 -0.025754226145968548
Ni 3.683499790526976 8.352235851120778 7.065882958223311 -0.16890193731245748 0.12462985486795958 1.057032188778173
Ni 3.101685796482345 1.870627048853086 7.104292662689603 2.177372907807005 -0.7258671596260144 -1.098757079320785
Ni 1.3821276325795377 7.0205198602493235 6.374878178439842 0.04277750017684245 -0.9665944064108902 0.5286170101881671
Ni 3.7194013659209118 2.228978642096563 11.198838740560225 -2.1553120713522236 1.8226876840457193 -1.1433325519383146
Ni 9.069769238477582 2.98261654283771 12.706837739244698 1.9848211922860912 -0.7987821026181856 0.03191690331325471
Ni 7.211918058566068 4.966722826145111 6.6630289085742564 0.14398074859074558 0.884349958487677 -0.46418902162108444
Ni 2.3430666905221016 7.627738000911348 -0.803056068741643 0.37166016105272764 -0.4047075784259998 0.6941425748292238
Ni 0.33552014687720505 6.725494144467143 0.15148583027602522 -2.093862705797491 1.7336043588238015 0.9680146837971845
Ni 8.039489958994366 8.771496514848879 6.565619595623994 -0.4193538675842649 0.6504795867236346 -0.9150021361558952
Ni 2.0003136491776856 5.55991979656079 1.3744344378522657 1.2512430371690644 -0.3422325998202299 1.624418606425054
Ni 4.330336961589041 7.308571888724767 9.452238166990185 -0.09385837801305771 -0.7008567536246059 -0.9717139870256426
Ni 9.362267453833775 3.1260937020559205 8.280060954832297 -2.305334655261675 0.6231449034644236 0.8954620092404385
Ni 4.752918428796541 7.980684064046694 13.066893089162187 0.40605869313725546 0.49521118103421163 -0.234745318169828
Ni 7.558720635264527 6.971169030763826 10.089063115561865 0.17238655342694825 0.0475720933520084 0.8709840787037322
Ni 8.602338475389992 6.601222298704784 5.232255194803183 -1.524001344247556 -0.7297700942248464 -0.09335727000692308
Ni 6.723676927007584 3.4086848536985768 8.461310408737836 1.489668632403957 -0.8223262084867129 0.33848547407297186
Ni 9.030473063971373 5.996596229647511 2.8201665264072053 -0.04778909445882092 0.02713850808800487 -1.0992041941605328
Ni 7.202324626292252 7.848100985131731 1.2885077253774329 -0.8674182157293449 -1.046964777239842 0.33436605258795965
Ni 8.701409112525363 5.21625353425954 11.694335827721194 -1.852709941439422 1.2175993809726902 -0.08822277699383516
Ni 1.4416069126771989 0.7147457573249311 0.7258510776272843 0.19899284316056695 -0.9986069547617448 -0.35397997016414523
Ni 3.8795378892607686 5.471734015274555 5.61632917833083 -0.827133142957053 1.1476136958121719 0.7020502597120748
Ni 1.2388626358058443 4.530655207029613 10.176345822790786 0.08516393556285333 0.6086868190575646 -0.06820236800785028
P 8.119069324596493 1.127154496540541 8.067205753811587 0.5372214640277265 0.5858916755399199 -0.6460503473076874
P 2.9905587978259365 6.166077125000229 7.6661200320153124 0.32699341427297235 0.22882252492748978 -0.7238634989324243
P 3.374000906247087 1.0157138664444112 13.226244611457332 0.3400170802261499 -0.9084113703122549 0.3237237423827651
P 2.31761642163416 0.2860032772177378 5.635892400606127 -1.7439581912542998 0.7631000758355438 0.6973788223783344
P 2.6076055854725864 2.9668242774023508 3.40324427066483 -0.06779047728141228 -0.006453983155459852 0.7282747406262425
P 5.965288432400076 8.50439322165597 10.293628299674422 -0.6872682163068938 -0.08654538929141224 0.14599057993192277
P 6.381458904001516 5.938611311115579 13.274280956232234 -0.3371515857528968 0.9702044923596518 2.3061885186215383
P 0.03332518536116941 4.116698604414439 5.853175339599368 0.30687581758749083 1.1027230059470685 1.0752584819782127
Ni 1.8729977335592118 1.6639347056228917 8.987792437252411 0.06446938332797929 0.0211699492093958 1.848914736063048
Ni 7.157991899842289 1.1171459638318 0.9783142397031028 -0.4878436849255469 0.45811761861602396 -0.7236711804159602
Ni 2.1435048503185037 4.062504936521487 7.883511819567045 0.593373585739262 0.4546132050071912 0.5253969605889726
Ni 3.58185553069507 8.744764046839725 11.046439689327366 -0.7114304153753941 -0.42557002369730584 0.741944010583219
Ni 9.134017561349822 0.6388663202660987 4.908394757920308 -1.2536717012152152 -0.49676746977773806 -1.6686197264223004
Ni 4.464921747045753 6.540672981930428 1.3318239169845354 0.7705801862626729 -1.5421021676133249 -0.12915885308656466
Ni 3.7130088192230706 1.422918168651476 2.0848530037544593 0.47976733567531565 0.7248813986739774 -1.375736623569476
Ni 7.160334911186086 3.738579006014435 0.10359154209440821 -1.3732089720516156 1.1033950923134286 0.8076277259342736
Ni 3.639665184598923 5.013001912412166 9.43127098279943 0.6416110805894112 0.9987607067307895 1.234658393337506
Ni 5.491372878073551 3.4225399837709536 10.44020856525505 0.4776790856877192 -0.05330771028420496 0.48287091430130386
Ni 3.050148771372911 7.649194081169903 4.9187362934224 0.949468545363881 -0.04999715785373325 -0.7074673169625881
Ni 6.893148597906192 1.2297857729621566 9.834800262489296 -0.5344297602152023 0.27404334443850226 0.19281602492589373
Ni 6.034388818133882 5.676369305238345 8.863962442841894 0.2790477396316291 -0.08442551473493203 -0.5690262672431491
Ni 6.167165610585144 -0.27155224740989103 7.993692389231825 -0.09988401538184732 0.38757169007666153 0.05102354223571858
Ni 0.3941221813890586 7.530844334945804 11.34552600980852 0.16352344660936355 -0.19017575908956927 0.8589844831396948
Ni 1.8194774508162483 0.866005588475275 3.5094297292548124 -0.9290156768261677 0.2868183847159835 -1.0485040967025039
Ni 8.012102554743443 3.290030700488866 10.530894173604942 0.46440782250010987 0.18231049740887956 -0.5307039746241827
Ni 4.942111982581128 4.157793547471989 7.323588377569523 -1.1275212959376713 0.014124098106207935 -1.5763646883406206
Ni 2.4278486482419535 3.7078800227382227 5.740078919990594 0.4659962500331523 -1.414980913782079 -1.5239164978432336
Ni 5.228844914118923 0.8615022099790469 11.837688456808927 3.1993812722118253 -2.2902042273781396 -0.48986020113494344
Ni 4.971205910842298 2.4064663636162744 13.37545661379538 0.43556235902332724 1.8728133970575165 1.0278619949721202
Ni 8.567110285146045 0.6269907580456072 11.546393110268603 0.9266037249505654 1.3007136330953664 1.6862464383651283
Ni 3.9519406295657538 0.6551954489306272 4.306631959418605 2.0408409021848204 0.219195543360687 0.9238739847242283
Ni 5.763512723210213 2.908581074155354 2.05272054030964 0.4523889436623628 0.5649089026406658 1.5322576707190771
P 8.460927593892295 5.1812559553683295 9.212744587392239 -0.24478856133844293 -0.4778402938559319 -0.07700839633525447
P 2.729322257446631 6.124124307710502 11.030238780574958 -0.4423487858175414 0.5401751473394115 1.4226939661556208
P 7.03964215361819 2.130756654739259 12.100092813078486 -1.0704119525191886 0.04573632569485027 0.499202818692108
P 4.056103165369536 4.038844211730776 1.2731407072765188 -0.24535780357835166 0.676421503400377 -0.8179864434607784
P 5.475829672899145 1.4149666892091397 6.033601972198348 0.2568105254999835 -2.1907683552773043 0.8271627106434077
P -0.175304293232007 4.707294278771256 0.8466388470725082 0.09254814384206642 -0.6180080964584904 0.733416175617866
P 5.197564790233817 8.788349592506824 1.5968351039854234 -0.7285922718666612 0.051228716267989194 0.5230338596734347
P 2.2299287608698353 8.748186319314328 9.344014104042017 0.3230100041451921 0.21432150309783732 0.2780406385233534
