# total energy = -340898.26954256295 ev
CRYSTAL
PRIMVEC
8.99628094939803 0.00000000000000 0.00000000000000

0.00000000000000 8.99628094939803 0.00000000000000

0.00000000000000 0.00000000000000 13.16696652746190

PRIMCOORD
 96 1
Ni 6.426349273885195 1.950240748222336 11.217346520957726 -0.6457898945574492 0.81325509942338 1.5610720238476083
Ni 4.526145839666322 0.41462778814145757 6.0312740025102105 0.13919978226233445 -0.4938366692841882 -0.22234617317452673
Ni 2.6620804655610595 1.375747250389341 4.69011295379047 0.3181282505728586 0.9223981715096501 0.5380002511752798
Ni 3.3973015167895717 4.232264333634118 4.719264502207732 0.37925442846021784 0.2788798465951971 0.14254273059263836
Ni 4.97059809803149 4.594508577730384 2.6823742758683253 -0.3367366097026652 -0.674044261417452 0.14574658224191672
Ni 7.195477307580274 6.062980494684573 2.6161841396258807 -0.0482997155466523 0.08014179975791359 -0.2663583170894187
Ni 5.253027338560922 4.505805248698715 11.611499673547137 -0.2709407942537785 -0.17279484460896047 -0.7714882998992391
Ni 5.663779528918725 7.8410684128511265 12.314010247660118 -0.8729787405362578 -0.008937411698945899 0.47189564623672275
Ni 1.8319036701206555 6.4498565557066705 0.3697156553296118 0.6250552331132591 0.3203031467369903 -0.9564614317419462
Ni 2.660470131291621 1.5999165762322538 0.23436840942538775 0.015068978517980502 -0.18424628097901175 0.5294652171210753
Ni 0.5023073404141198 0.10000805552874728 4.817647829417705 0.27399526480938613 -0.821896834258778 0.35425867774682857
Ni 8.52809638764732 2.2697616546338755 1.3692456382299916 0.16959999182074662 0.9290233901356516 0.25299732240148043
Ni 6.851882353654663 0.6395249131039102 4.942602571701505 0.0019172716273708915 0.2203024032716206 -0.8053427865548388
Ni 0.6898168218549992 7.331456092399105 2.3731748024586152 0.543890905628102 0.2720090876172928 0.5233115388148536
Ni 7.682490970575141 3.8164832222896328 3.6290394136988477 0.4468872971178433 -0.024618569879628568 0.8892872478882942
Ni 7.5010089972936145 3.9175564374692264 12.722804847308254 0.05266622004546414 -0.21980592325117632 -0.6172519350187563
Ni 7.7879813596446485 8.645057034781269 7.055532062541356 0.626922882449617 -0.16670621521271936 -0.031034757818617517
Ni 6.8885421980566965 0.6495449706977715 0.2793291221537418 -1.3773150238001892 -0.29972660813721924 1.1916530934205736
Ni 1.8729357070084283 6.517814461133163 9.07393583139322 0.859996469343977 -0.1518976894449771 -0.06736213149474206
Ni 0.18096918527393988 4.900274170745429 1.3648878397935875 -0.9511703585463361 -1.0025435708119894 -0.046974826087641676
Ni 6.362169806409341 1.7943262050734667 7.112426341797145 0.18113216083006223 0.35605999262162547 -0.010251502524679119
Ni 3.249861470187135 4.382322297959497 0.6910915948492982 1.1343609445673237 -0.45195262745589254 -1.7169654647155397
Ni 5.930645203603858 5.5675463128282825 4.77145822472731 0.2991671360893235 0.2538355020320596 0.30686913271927146
Ni 5.285836774765638 2.988168656982043 9.27282290920594 -0.127705922690122 -0.26835349314257656 -0.3532703456916303
P 0.20563608769502836 5.519434202923478 12.374657775280207 -0.16501494355322546 0.6673784193615022 -0.19883214921298661
P 4.027455004147813 6.197825748118212 12.5306199987175 -0.9872596480697255 -0.5926868440848824 -0.16996277447680405
P 2.343423202109667 8.42893938028555 1.207057988454978 0.4664801316481063 0.024544007887951278 1.2076404699877654
P 6.320822899692348 7.684470152358809 5.737163091316718 -0.27224202956370536 -1.0651782149240752 0.11821340981865448
P 4.618285747976905 1.106290646823769 12.441413777587163 0.8682733646407886 -0.050452243113280844 0.5793592737380409
P 4.068451055912247 6.018673811572913 8.18966889743325 -0.8798610694783879 0.46937673646961103 0.34864030311878663
P 4.755757915414321 0.9764383292534742 3.7592614784114544 -0.329760178384832 0.6597874943881218 0.04698433916933844
P 0.26646084204756537 5.492445360418913 3.4974229254568376 -0.30251496951563384 0.2715180069134872 0.41621069396959287
Ni 1.391301819952805 0.9862082902401266 2.4188246302989187 -0.11053378178620965 0.6116705842762369 1.0702844258023891
Ni 1.9267874440858694 6.526810741968018 4.679934561653915 -0.34726270604496967 -0.14406893742917767 0.2981734047174865
Ni 6.123993271306559 5.635936039734848 9.066957416349624 -0.8006641501322469 0.18206649971887354 0.5094741187111289
Ni 8.601892879335635 2.2639410609337243 9.932396034150324 0.21201599489311226 0.7167492564851462 0.7075066548409558
Ni 2.3747842370999703 5.17882601423504 6.907403800455054 -0.12356361838697431 -0.2903189416700742 0.3685807507964555
Ni 0.6546791481702231 9.027947743393526 8.968863769382532 -0.257571314925408 -0.44636047808009577 0.1907084916645877
Ni 1.207057988454978 0.9359100840924532 11.278388985306465 0.21426673860050194 1.2102380555116123 0.04310608716085479
Ni 3.987556498645232 6.760714043674244 1.70476643010632 0.8088834527182456 1.0905575742291282 -0.9318387480972596
Ni 5.613463330209381 7.813179942263076 7.852515280585396 -0.3241842269589514 0.3290927200041623 0.8272246742295948
Ni 5.323018403456093 2.7827655729606375 4.980602861947932 -0.42189900260362173 -0.18143040879677141 -0.6875538658681126
Ni 0.8105909924348418 7.332175794865893 6.85917293964323 -0.09226275139116369 0.1353567543671604 -0.00075461877783741
Ni 5.100639337499317 4.645517490064011 6.907851815240629 0.06451334919203727 -0.40376269801422726 0.20746051431194595
Ni 8.197950873569818 7.08293383433624 9.106892806603627 0.027197643460714446 0.5097227443868254 0.3059826163492601
Ni 4.593321068660183 0.234444877812484 10.402969893547578 -0.1679359738547624 0.4314825325269988 -0.31524835792190226
Ni 8.2656478868521 7.112513605721243 4.680027223346513 -0.6967504447657161 -0.22314038694104799 0.17277041912892827
Ni 7.39187511448599 6.0391133616297035 6.991014334906111 -0.4108404307966151 -0.04599549289350788 -0.9704754866328513
Ni 2.2775614301176943 5.3336520074028915 2.4991164367499983 -0.2999878322184059 -0.5288995744255923 1.7393803420756304
Ni 2.2923153306868564 5.191609729301369 11.302286705716174 0.7136423354250484 -0.0561444084020517 0.7271665951637283
Ni 1.2365208081891275 3.382763526960446 3.84273976753424 -0.579525109891944 -0.4570536961278838 -0.6036304875805798
Ni 3.423030879977256 2.614544117629687 2.719807800422156 0.911578969406959 0.027497176979004258 -0.13438127782776854
Ni 1.0273752713404223 3.3882782471122117 8.133564491634763 -0.0688572279830298 -0.16600378982905603 -0.3904855212893468
Ni 3.802422035344754 2.6863344386918286 7.085171209379868 -0.5693630817572775 0.10884970921556737 -0.33623575880684675
Ni 4.023865488094706 6.840681984015269 6.11375190520416 0.5188478466165451 0.4766179914130566 -0.8631689535346877
Ni 0.8634234508936938 7.340110514562236 11.114841997497306 -0.7471579506839907 -0.26696355477358535 0.937805764313972
P 0.2802377465180621 5.499696362771807 7.941497494322945 0.15510051265299094 -0.3644225056537079 0.04896871658921889
P 8.452833502182925 1.5219188213940622 7.8485524188776425 0.336874163721794 0.629429965142187 0.2041077957896291
P 1.6407327023799902 3.112542239523911 10.365917811301145 0.5050253389111561 0.39694104710670347 0.5079329994762543
P 3.9251313059321746 6.183494672748289 3.8404619092268546 0.15374451284572876 -0.015144054730290044 0.03735452938905825
P 6.949474008151169 3.9635274325353347 10.28607401963564 0.12124319778391376 0.37280507329044826 1.2183923091876305
P 6.259315327624445 7.700609480176539 10.140894738407003 0.430737169720542 -0.40752473615982077 -0.39150033570710635
P 2.3782837903447294 8.37912697330296 5.7333846533660795 0.6509938073558917 0.8017036471403548 0.36405612345322463
P 6.7509170938450875 3.941369592839087 1.6404727098638627 0.9215841602487871 -0.06240170216567318 0.0076323197342771775
Ni 5.141725352072099 2.770845500854455 0.6938255645950104 -0.2565801546567323 -0.00016737881579971176 -0.7273676554309407
Ni 1.5575530897809224 1.11737406481231 6.946628484523104 -0.37208619284655275 0.5366704766202629 -0.1685728361078129
Ni 6.917609181434113 0.6714437175059751 9.393853473789575 -0.8901200282022347 -0.5944120543061053 -2.5197764859874603
Ni 2.7161391170977027 1.5893099611279597 9.195085146883876 -0.3150745513481993 -0.010368744828833756 0.40426663423383924
Ni 6.465770976503529 1.9591920476530165 2.704547409241992 -0.6194563988692429 -0.576196045518711 -0.05644985545761246
Ni 4.175506797847019 6.769134562535669 10.28400667429979 -0.32359672988659755 0.029333715967110773 0.31027970106271724
Ni 8.2065153329246 7.160382816043506 0.4570848359134715 -0.6282943088758469 -0.176029035275542 -0.7536222182520955
Ni 7.520737841164451 3.8441018044526367 8.209458916013764 0.8415668018838797 -0.5464753785258266 -0.9467971691793048
Ni 2.9801889558815264 8.381160132771637 12.300751528965707 1.090911100913805 -0.4842153441443402 -0.27303032979295555
Ni 0.13684692591939435 4.85995284004361 10.215894032842938 -0.4713045496199431 -0.5826060628101127 -0.5402887900991405
Ni 8.628836740436025 2.419504749130034 5.721639109108093 0.18812504720812764 0.03704599700970394 0.8186629007025127
Ni 3.6100725548147232 2.794190849620903 11.474563684447478 -0.4049634031905477 0.05665117283514114 -0.6069117294350128
Ni 0.9823218969194693 3.41101184878189 12.622104078155223 0.14343824582371423 -0.4850748639311581 -0.7608084515878898
Ni 3.14576550464703 8.456387033112692 7.948977002209043 -0.10363371223226668 -0.7113856781803878 0.34300547343051246
Ni 5.4644579307416805 7.8744176259059335 3.632713494791802 0.5082965534632601 -0.18119798107099117 -0.00992908618825387
Ni 3.043756676260611 8.39461856890058 3.392666632903454 0.08608696159775497 -0.5406366603568624 -0.08148057317399515
Ni 3.2555921010789377 4.135041526651842 9.230688827915897 -0.053094308721818244 0.8205539470776384 -0.3679472309775147
Ni 7.296451563670685 6.148939958061612 11.307764541116518 0.021934852399878354 -0.7909050138629541 0.6420021453802428
Ni 0.5296353427061583 9.201486000697875 0.2941774836716696 -0.6183865628438318 -0.7600165518142137 -0.11615087086267094
Ni 4.563768286117685 0.3803546570449111 1.5090793293865576 0.12580921988804142 -0.4305757044420133 -0.09833903949223063
Ni 5.819559127855071 5.572179397458233 0.4932579815223393 0.565217177909704 0.9535815390909899 0.1278193083395347
Ni 7.844675921465903 8.730665643205747 11.299060639408795 0.8814065595886369 -0.297532685809694 0.7713345479301942
Ni 0.17855458349786485 4.888947853174347 5.58438735055113 -0.30463921494748825 -0.44665229828890174 0.9178501471276515
Ni 7.856883874558802 8.775503106886664 2.65189307714367 -0.13384314593611144 0.14822049770370602 -0.07914781127576047
P 8.587543811404043 1.574691004771321 3.6770858507535564 -1.0551858795980538 1.3953011759649647 -1.0711033221592587
P 1.700054178205023 3.1006851413835723 1.5592452902059586 -0.466589660642777 0.24284146491440115 0.045249101645786584
P 4.6258426238781825 1.1033488629907715 8.312029112324279 1.2593978050657149 -0.5503942539642586 -0.7225563500852266
P 8.299473902791155 1.7048581921708357 12.330995225876322 1.1370678019755256 0.6137308092393752 -0.6392693198301119
P 6.303073237605179 7.7755574958117135 1.4509471618878926 -0.49345974556074373 -0.6188017960043795 -0.3219082864405811
P 1.9368452860592373 3.1850162779295017 6.009877248172591 -0.551742797572353 -0.5432077635181484 -0.30424609327412766
P 6.89360710416672 3.794064490449174 6.029522426631664 0.7073382475838915 1.0584113285138868 -0.7380634445818902
P 2.4516574568338054 8.489871190380024 10.152178773458163 -0.05684092024844404 -0.4257718552954668 -0.7357445666407265
