# total energy = -340866.15320784226 ev
CRYSTAL
PRIMVEC
9.30316296141260 0.00000000000000 0.00000000000000
0.00000000000000 9.30316296141260 0.00000000000000
0.00000000000000 0.00000000000000 13.61611937215321
PRIMCOORD
 96 1
Ni 5.3833868321330165 0.1318295391196548 6.497299177626725 -0.5228623670925769 0.16644216291805528 -0.7036392014657494
Ni 6.091134250559233 4.391055661542413 5.056781623605395 0.3108612845978001 1.754008119291134 0.21148300520777769
Ni 9.290119834712433 5.8999821630887626 4.143425932926484 0.6235025439141585 2.0459702529915864 0.5257234906904559
Ni 2.521873481054781 5.905712911416101 10.440922011930805 1.0830604945211346 -0.11636298687347701 1.63755128715227
Ni 0.31505440150940317 7.8432454295026774 8.037513146217995 0.22415494424849136 0.09542546538986146 -1.7094586148155333
Ni 7.588571345962301 1.170179735158326 11.930144414520498 -0.8715201537128604 1.6732767655783376 0.9122412855813063
Ni 0.019569203095056872 1.1215707091675144 1.8890593182736537 0.6891183821417551 -0.14841435888206694 -0.47276416488460515
Ni 4.895156844765018 8.095035532553647 2.696386861733947 0.7126938554688499 -0.35115767022400174 -0.15206712514330584
Ni 8.019075207727814 6.609022721153778 2.012952329149718 -1.3739617910572401 0.816643813389955 0.5859693228553908
Ni 2.964406332409982 7.094275696403679 1.229612060830996 0.8291442598498107 0.28536314032669563 1.0990501850811716
Ni 8.341411194814826 4.984383479842124 6.156378262076202 0.05530314344767895 0.04906204763397357 0.5677887952916222
Ni 4.510247784220743 3.310651448070465 3.4382061838517894 0.0693303109647064 1.8351037983218845 0.47937627088448415
Ni 1.80117605991484 4.963404847572405 6.724511254693938 0.45735091565332847 -0.28575831888258524 -0.5120015131186731
Ni 5.918234968637848 4.505251985760061 9.610705896863776 -0.35090853032767305 0.23900872143187227 0.1497248501633744
Ni 0.529289496690572 6.87417216608471 10.169579451477944 -1.087929649687978 -0.2070771628305982 -1.3742543825969946
Ni 7.947412944147485 4.426630956353678 11.641250506998876 -1.1981068194657172 -0.32281177209145695 0.3078628640911085
Ni 6.36540079510184 8.541029160496135 12.27696074438114 -0.1764201000663736 -0.7093601631099268 1.1980037182289496
Ni 5.000896593934696 2.074242496447338 0.6639806887087482 0.013996314279092023 0.8130206148150708 -0.5399797434991539
Ni 6.58253661646558 1.8817786630123314 2.5923998284487992 -0.931185687894293 -0.7144671453191889 0.40532284341249547
Ni 0.6201218576788758 8.485731160402475 11.919428101211633 -1.1538774173336965 0.6632996213064383 0.784784759897829
Ni 4.412108719115083 6.434216290844238 12.851697122003333 0.8292805283173589 -0.8875041878459425 -0.3883831302343634
Ni 5.62105473394876 3.1949945272823754 11.875910696259057 3.0342951091010324 -0.2887001751197286 1.4415650920285108
Ni 5.032034280057422 8.913592923913177 10.226195709750149 0.4826027482415817 -0.20060415351174482 -0.07124269749607086
Ni 0.4624955782396189 5.64645236858128 12.134698638420128 1.0318541468506488 0.5001122178802547 0.8413377165922091
P 8.740191271196863 7.810833210066891 5.801937059928082 0.2747064319437979 -0.7310232499056571 0.27821650197958536
P 0.4331357265411687 1.0112165912147857 7.9034359629491755 -1.623369082114617 -0.39726732009787064 0.9346718466706806
P 1.7419335187646987 7.189828482231742 3.4609319501083164 -0.069103539665881 -1.3579067944769065 -1.6909685264311458
P 3.6689255533206366 4.381073367783916 5.336565874045637 -0.06096934059452081 -0.014884373311000171 0.03840713902328869
P 8.127940819621495 2.6961310247550476 5.726667029787132 -0.07069968050840726 2.9413808401687986 1.791802050210456
P 6.72937773919074 5.59054966290113 7.646213743098965 -1.141001846922609 -2.1268360753997175 -0.6383347238309846
P 8.15210113359243 7.230957765275833 11.565463221002407 -0.42595568917149873 -0.464474156961671 -0.18642040581219507
P 1.52449069302628 9.044386090689219 0.33516876994858663 -0.9338040993537468 -0.8635350786248547 -2.7079663249952524
Ni 7.289418840744974 -0.011121000893668166 8.050476173359735 0.8037183635775385 1.1910954211448905 -1.9941329566053203
Ni 0.8845782169760635 3.2204665872178477 1.6776012172088977 -0.8614835954124648 0.9292085095632642 -0.5072588562273651
Ni 8.09490528827348 0.6239073146502944 5.865851649471061 -0.4946517089863159 -1.4671817641553506 0.7973741665270655
Ni 1.162532535279963 9.20717283457194 9.779749948092224 1.1000796547869505 0.11911869524174323 -1.115178200991286
Ni 6.935228823994318 6.126430450484428 13.171661732875023 0.0623407670207507 0.12904238211335842 0.1312782134224126
Ni 2.2814332367040584 2.4909125550265667 10.303712453723975 -1.878576781903855 0.6146903449391672 -1.4209936956350626
Ni 2.7796176083419457 6.82181396545767 7.823305030209146 -0.18543001687446775 -0.21334396967591643 1.7839113346084696
Ni 3.2640798147479764 1.7069443232141837 5.6873714001445315 0.17186976169152982 0.4878408567120695 -0.29351096624481066
Ni 3.4160097675625116 4.510182662080659 8.908278026966086 -0.5648135147133821 -1.2439387901981673 0.480121890801257
Ni 7.545944253696292 2.7373068236134843 10.141776018927485 0.5489585499589965 -0.7528177200729292 -0.3647991722668363
Ni 7.150643560227283 8.250742569493019 4.106798450394728 -1.3433106418302865 -0.5916997975812648 0.5064371316570181
Ni 8.463878030823064 1.779453174615597 3.916540396875974 0.7145936435947241 0.376143650745378 -1.0683501848941537
Ni 3.027314319730531 8.696271039292055 4.326086093330081 0.9069065036319542 0.36508842137248093 1.276201249776299
Ni 0.6717469690718351 4.100173668115674 10.053148507539147 -0.9255107489967029 0.7236796650563924 0.6885586529835431
Ni 0.6750030760760043 3.64251387393539 4.731315122212945 0.14119033032980202 -0.7641709403022194 -0.2601735284349455
Ni 2.3399501311504136 1.7083025849930655 0.8988846208360961 0.9479500518368255 -0.4043463384318391 -1.1887703725561398
Ni 5.9870597675431165 2.23525233622207 5.385747044552896 -0.21186789935102224 -1.752602754303175 0.1658731777884627
Ni 6.673028481692875 4.382878181380513 2.64931564856539 0.9317271622200598 -0.5214744856061148 -0.17284523823092168
Ni 5.328879600883224 7.122529402036999 8.376350153285848 -2.1211323401467213 -0.05610404208241951 0.6556534176150901
Ni 0.7534938612022201 6.6656417703748465 0.8872342699751787 -0.2506128813297039 0.752441310570117 -0.43088449393168377
Ni 2.1836942076017682 4.900534072903332 2.538725230275787 -1.0935670504794135 1.2454804236536743 0.1854503285894419
Ni 4.775871690457997 6.544551802471228 5.780029041687744 0.6220632403644706 -0.9893314429970897 -0.0006114083317537857
Ni 3.2010043704957853 3.121750726014307 12.570006653491221 -0.06241430057116348 0.44887784518531076 0.13516623562290914
Ni 0.34891605372018897 1.4756863006152183 11.122395437782236 0.21054609521580514 1.5169665488879618 0.9645750619880161
P 5.260826964496088 1.0484757585053504 12.031788911395218 0.17998544882012874 -0.9995081264197754 2.9729154204419705
P 5.2520168692590925 0.6747686363717041 3.93888473345487 2.7550180270674165 -1.2747398347394239 2.8809763709388125
P 3.101293070865255 7.989063204312244 10.273429728268916 -0.9815541130445161 0.02141600378193086 -0.555201959765547
P 0.21829313482465057 5.398978933101553 8.335312041237875 0.6156241696073461 1.8493906472582022 0.08247096211172249
P 0.9046162994797208 3.4357231696820385 12.933706363326626 -0.4240163060569407 0.21819281312778552 -0.13642736172351988
P 2.2452997521206495 2.3092589968454016 7.974593064785716 2.1357616600241216 0.28847700336532894 0.09002049232420627
P 3.3573626288359897 3.5380486580787727 1.4703779158821355 0.6689419071938802 0.030911087756559666 -0.5830863448806409
P 1.7248994275514593 1.4208255491764017 3.966484426738495 -0.6569713650955654 0.009657834804738207 0.5632464273365784
Ni 1.3450978034222951 0.2032024743347567 6.212313528826394 0.6168611273382408 -0.2539365463862981 -0.723376789103993
Ni 7.402145265229311 3.438653665985791 7.878504416776396 -1.7290810170321513 -0.18101620407748828 -0.8187492897687318
Ni 7.850994964172601 2.4043652308557495 0.6660748306705723 -0.05697461761283091 -0.4034922179616599 -1.107124477448874
Ni 6.0794773874843075 6.66077621619433 10.95942356095842 -0.16523734397667675 -0.9853488042002578 -1.4047037002257872
Ni 2.4132311450699584 5.151868320973718 13.481686844537416 0.18123551917714592 -0.027420043884165676 0.44422312002211883
Ni 4.909139498557207 4.4572104527042615 7.235810295028332 0.40377169687529174 -0.09405712428742512 -0.865888923569012
Ni 6.801067912259677 7.534045508386771 6.685922665429386 1.3651105113141975 -0.4288342962708743 -2.158023813856432
Ni 3.649630793530217 6.099218699092442 3.723532328413128 1.2222132255956177 0.3853374014295041 0.3440660534845429
Ni 2.681878579239655 7.807223582873697 12.505506895003778 -0.04676091030462269 -1.0191356708427157 -0.5320869710146385
Ni 4.915298192376522 5.398346318026456 1.555995854082334 -0.7807095613871909 0.41156342500556864 -0.6720647690935782
Ni 0.3788787503725539 3.387635120811894 7.706355900098544 0.21988177079443422 -1.4692304191542633 -0.22479412049438705
Ni 2.8470934486312003 0.8766723891699408 12.211058068933042 -0.4579954912158628 -1.0171548929672611 -0.2637494187116619
Ni 0.17776297546932623 8.728692561890712 3.954461019046529 0.1364813548899069 0.09615822979082794 -0.009523623219719082
Ni 7.60049800076043 6.9951504960339 8.853854524182115 1.4546705190622173 -0.4798686371398703 2.068562279359489
Ni 1.8246572429963346 9.16031280320051 2.3192878064182425 1.8572517951738337 -1.403531277184241 1.3506079468226482
Ni 8.542917702558555 4.7599260693004375 0.5400058099994363 0.9845335073878142 -0.7349943187382633 0.4549798443179906
Ni 4.258950748801833 1.8866628235185852 10.522101411126178 1.3653221131043711 0.148048490902216 -2.8210665819570577
Ni 4.584170716378253 2.0936675005179244 7.8005383300359945 -0.5243209539159743 0.5433121503064966 0.22159258283795388
Ni 1.5104894329083522 7.18206964439895 5.679160428596303 0.4155362936103876 -0.781515345117938 -0.04828917402369103
Ni 3.79636027830095 1.2847388827278674 2.835406815435094 -2.775599450763194 -0.22226801163842366 -2.4647679909620646
Ni 3.5965934620137356 9.19210171072407 8.328054643883725 -0.8141115338864044 0.2709695906091849 0.24940369151295116
Ni 8.365338929714037 9.188222291807675 0.03908072658032561 0.24966388715287324 -0.8530809731710662 1.2064888728818253
Ni 7.43257591097399 9.02911029725823 10.116967274504576 1.1244760813534442 -0.6438610529658524 2.654359081192758
Ni 4.230427251445311 9.0209421202592 0.42506802370112434 -0.057079518621811376 0.7717983749404901 -0.41729287129017806
P 7.754604893686323 9.120672026215468 2.2320901911628783 -0.22952340764925633 -0.3863092784244702 -0.11393303727574572
P 3.613832222810094 8.1288711359084 6.448566419569755 -0.6529856409749399 1.3471408142096541 -0.5155367799654412
P 6.061624617938591 6.176174462345263 3.8226026401219797 -0.7616090931123142 1.3573987444922364 -0.7067746617709375
P 5.8366555334391075 7.609810466792354 0.5760090503026786 -0.7332469970298533 -0.19226606595969467 1.5010478207751763
P 4.302015089722688 4.590738749363806 11.255819539017647 -1.7225576140913363 2.3484487128423295 -1.1909748364066264
P 6.47031256277617 4.0179523146789675 0.28969118857949894 -0.9440712856077096 0.21995838966864054 -0.32133261644276917
P 8.80754617036882 4.425802974858332 2.8095905384734663 0.6531460778122041 -0.8251608497220306 -0.48961980298936314
P 6.133817161802456 1.4311892726125288 9.11194752007687 0.010766494487884684 0.5259155520966039 0.06293443474069162
