# total energy = -340856.470862351 ev
CRYSTAL
PRIMVEC
9.43949940246292 0.00000000000000 0.00000000000000

0.00000000000000 9.43949940246292 0.00000000000000

0.00000000000000 0.00000000000000 13.81566153472672

PRIMCOORD
 96 1
Ni 7.197099238850787 7.219810674782132 12.105752281881136 -1.2745387744722114 0.8896348610357001 0.15874428005316532
Ni 6.531841068153558 8.969629586446906 4.1194712342641715 -0.31926287839793405 -1.361050996532843 -1.750759016226217
Ni 6.186581932399234 3.6065873532971895 13.271490831128975 0.8173110146603084 1.1489509265663567 -0.6821442648167672
Ni 3.4531954855148244 4.428494019123546 6.286305525456882 0.8546812277786506 -0.6169999669089503 -1.7427883393159147
Ni 2.9447368419396187 6.732921287692016 1.3240474523488404 -0.9141845253506061 -0.3883373645980925 -0.9424306646804931
Ni 9.202681390980986 0.042339931307755076 3.723196323160321 -1.3480738675468849 2.175425811382963 1.5421091095918602
Ni 9.0675266363405 5.385753669081063 0.7139754279049072 1.2714225974407332 0.3576967568941001 2.925830551139026
Ni 6.617240220635224 7.038024792335807 9.226692646001172 0.5847197667190059 -0.4568706335828003 -0.2044906330503446
Ni 1.0588569836769988 4.373546692209015 5.768881245203542 1.4349082488336256 -0.2595739471777336 -1.1851363753479782
Ni 1.8606858339480887 0.978281415468367 0.6671158642098169 -1.5505883507074651 0.22841011998041952 -1.5668600912842952
Ni 5.17329885257782 9.059578577714486 9.336154026800623 0.417758498072687 -0.39920773165369317 -4.019306070345897
Ni 2.909923967577689 7.768217280477645 12.265654572507163 -2.4980280385667752 -1.9210105255880334 -0.21585439480259602
Ni 2.8280457484303514 3.5485344310287865 11.963450882126926 -1.362864395592498 -0.2165529635315174 -1.452486109816389
Ni 4.783173775434598 7.443168113272368 2.4953156604364897 0.7839758908432886 1.5309368950251248 -0.33481522431023625
Ni 3.4554137679104464 5.004105262538983 3.7084414414045908 -0.7339944167188391 0.8343090918802019 0.8091413343653227
Ni 5.663822446996934 4.4774661428192335 9.694864449422017 0.038427707848578976 0.30853829289157836 -0.3235100837100622
Ni 8.06938451380665 4.562714263308005 9.230133343589275 -0.49144914288861813 -1.5715528687742741 2.9893817935281097
Ni 0.51295278931374 5.021379546726166 7.942803656612732 0.9024181288432975 -1.6691701996091317 -0.13614274060356552
Ni 6.160868735609132 6.064330973651577 3.695937880292928 0.3142250588637105 0.3277408339619582 0.03943172363306112
Ni 8.142578393362617 5.236222556617036 12.70789418274821 -0.7513609330217447 -1.0924650756644865 -3.9391889531783324
Ni 1.451426891205183 4.054340575228802 1.1350686712409668 1.9437293073417883 -2.1072820645271904 -0.9706158688654575
Ni 0.6421974732823161 7.584288631632144 13.861805983002542 -0.07869324023684512 0.4491904913297232 -1.3038406087601222
Ni 9.16216705888733 2.917749312709478 13.737658628794117 -0.9334932529815471 0.46001175031494324 0.9505545793392082
Ni 4.084018361832356 8.185169415358557 4.756442056642421 -0.2531875840354156 -0.8803698907940063 0.6382802164439653
P 8.224107351026388 1.9977473674988542 1.7562604261616772 0.5483157741686749 0.7891301813507183 1.3922081388619378
P 1.1641546012223698 9.094013872094182 7.340523939052143 -0.8213124225102179 -0.7199106849322633 0.5452775015629836
P 0.7730544237750295 2.705521044195576 7.274706084449108 -1.955298500236626 0.8898279508831127 0.3041885005633148
P 3.0476745845960305 4.985849270397993 13.377152813357203 1.2647009624461831 2.5994392892264266 2.0045616081378124
P 5.4138928172570155 9.405668389429723 1.2427299394751197 -0.06999211291842139 -1.2002068965278556 0.3696829827216988
P 2.7162820736892312 2.9528548115576396 4.064926973980674 -1.5025249195413348 1.1109250821418868 1.2315262754664273
P 6.885331447520574 5.3500818002595505 0.6306501334756598 -1.642034262624288 1.1580719150310184 1.0592775331689241
P 7.826015336258039 5.766712992155567 7.707798819620549 0.8442448629366751 2.1110366464736163 0.9492296898801974
Ni 1.4651519235593713 5.854830720509312 12.329829010237527 -0.7208244549957843 -0.26423869964325464 0.5527990067510092
Ni 0.43042418864700527 7.115579720686571 8.372512331193404 -0.3825783506271282 2.540525545609354 -1.4246230648575338
Ni 8.922366012170825 6.7227549466703795 10.447555040805238 -0.5609494037722855 -0.0091451568343778 1.020427650181262
Ni 3.309507423275861 1.0963034784150074 4.985132812381704 0.20106283831571822 -0.25045090183054286 0.2999029858140835
Ni 5.889426486381459 4.331068944207744 7.0172645009626535 -0.3452125083841603 0.6675285717861213 1.0927018742656407
Ni 6.620751714469995 2.282829693584713 9.647490433001133 -1.4342983831637686 -1.081661557291079 1.3531260852588114
Ni 0.637807162038896 8.222276088112556 2.248430269303329 1.0881404801472034 -1.9630897141462706 -1.0710614131777296
Ni 3.0165431150608772 5.758179684557089 7.972202977979389 -0.31151743012456024 -1.1973298320903767 3.072202168559451
Ni 7.888976798295477 2.395593955278752 7.85023898001823 -0.5822944451069649 -0.42767575718639894 -2.14747097804125
Ni 4.820714665168166 5.315438836889626 1.8623235871210266 1.0645369817956505 -1.653344545430785 -2.0169689806632296
Ni 3.8187023478164215 0.07081323776798436 2.6681632807533924 -0.6463722494234804 1.4335257666638022 0.2503603989992656
Ni 0.5885584610062232 1.6509684723160394 12.051567666530717 1.9616691796496604 -1.5020466943533357 -0.05875407811075688
Ni 1.6717920083362177 1.3889940411428716 2.807176902812305 -0.14010172525131356 0.6168073912821699 1.295576311868801
Ni 0.5882809397192816 1.8922515204628105 5.195559080430397 1.0489995482816836 -0.16344425663199594 0.6883894743955306
Ni 1.9908942908213159 3.8054304114409137 9.603018118743716 -0.5562090608738227 -0.8952452652439421 -0.009839097577608862
Ni 0.3612317129527583 3.4473146772915375 3.2989455672228334 0.22166148840267633 0.07260975304692657 -0.45543312980532535
Ni 7.668602241664887 7.396300997977633 1.1022607465846967 -0.39992146989126615 0.33038675622523744 0.22864589014030945
Ni 7.890826940208422 1.991243552304882 11.733849214680504 -1.895911673637877 -0.10750733625506002 0.5626188210549085
Ni 5.051189486323502 7.047133909407192 13.546781564325563 0.2394193266067296 -0.384965362802066 0.03455485515673404
Ni 4.17808297490628 1.4934326642286615 9.968165336112234 0.06518749244092645 1.9506345191020538 -0.3908387908637075
Ni 0.16391502188721305 9.28269058921627 9.788617559010598 -0.10213784441303055 -0.012094469270688848 0.2704895656489728
Ni 8.942387190728757 2.333472608701783 9.702407553517086 2.964679148575107 0.2213221027853866 1.7177869321755705
Ni 2.8260634535236253 2.263337127001908 7.119749147640385 -0.37875152068187035 -0.5168863520148002 0.7341977909788969
Ni 4.60366281238123 7.444848344193307 7.469395762788263 1.5745363768826304 0.8987463364186651 0.4550477214414485
P 0.17837444730684546 4.626308171815684 11.172863531876883 -0.5564633429764738 -0.8906933842072015 -1.6552253073932652
P 2.0346180527639572 1.6072919078711778 10.421526564729971 -0.6136426204009432 0.05621048575329674 0.1787361497940599
P 4.784655776864864 6.155431583864969 5.676745121888875 -0.982635776144469 -0.31286160285728054 -0.5755355291165765
P 3.6187926262228878 7.369275710749269 9.788644933559311 2.5964336696308834 1.9965569926657811 -1.532145056400613
P 1.1769168046218628 5.76743039412181 2.178453371195992 0.3125859805983907 2.3415604703629285 1.8632926020512748
P 1.9456790879488528 8.992133353388024 3.9311088524772946 0.7573289776797215 -0.7620592932758554 0.373558406516705
P 8.906252786429011 8.730319393707305 12.116486880776035 -0.14218637569448414 0.25810610438295545 -0.14205422099199405
P 8.060568021221497 7.583146452185887 3.435955183526042 -0.30112374559506205 -0.6635639307114184 -2.0459486557250313
Ni 6.927091793555601 3.7187380475200986 2.075845067074079 -0.1905205440234977 0.6111926161985538 0.2672129517802301
Ni 3.560730264454929 1.417265342312606 12.184046323047122 -0.19703186277945423 -1.5177080550396764 1.408653943122787
Ni 1.8185667869299402 6.584504036175578 10.117513322284879 -4.7445973028637844 1.6836568232610811 -1.0563223071953423
Ni 7.1701966651166495 9.140352375413789 10.595354949050723 0.7222627301042077 0.47004008108522277 0.3206438179058607
Ni 2.539971100985292 9.256411022452816 9.112838122108434 0.21288785597510435 -0.16269040918510688 -0.7039557042649037
Ni 6.182305839100439 1.5449062553066453 2.7055068849462427 -0.7776363217785058 -0.7054225186184174 0.17997387885590296
Ni 5.12986771512141 2.1879721625480983 7.041718468512007 1.4169362377362371 0.01182450343875383 -0.49212482879940406
Ni 6.965576633244751 6.114284805301072 5.972938682901912 -0.383837676955526 2.0208631735113127 -2.157176635364788
Ni 2.4886768603988694 7.406382383503267 6.801685210106429 -2.576267993316286 2.210389729052658 -2.2322320217387297
Ni 6.420407775896893 0.16464375125292371 13.2120559661256 0.24795204666808907 -0.48153548331933194 -0.8677347185284993
Ni 4.609751289594745 8.52759670124613 11.299691703959166 2.1002619244556153 0.7735348980156227 2.220229597961215
Ni 7.957139424588183 2.1875757035667536 4.1520346758819455 -0.82548763693383 0.47031570334411255 0.30149269889870656
Ni 5.453595352388869 3.8555541540824128 4.571132409011901 0.377323272875776 -0.9534858940533901 -0.1665223813366874
Ni 9.386251338843365 5.659451958702581 3.980679440444821 -3.2719334325479394 -0.6996845876933756 -0.4647454083451867
Ni 8.84191315745642 7.740399075286589 5.31824236825771 0.46938393555846253 0.06492781102163656 1.9942928792219525
Ni 8.273504252202088 4.018291126425057 6.393349450420084 0.07436864471956224 0.1455385799961687 -0.9306994922864938
Ni 3.4744249200159034 5.54519625607872 10.649070421273219 4.396910107686885 -3.649205026250173 2.0622383940239906
Ni 3.4150882258079074 8.95138303380547 0.1528037869600363 1.6395279512626666 0.33365231435038667 1.6296580004471226
Ni 8.564278596520117 0.3967072401835081 6.880269043908779 1.8189071339573644 -0.2106844205658823 -0.8685122201244719
Ni 6.502701333024687 8.85928183663916 6.36263709466521 -0.9689287109710216 -0.2951431025315949 1.4655236597266375
Ni 1.6384516959049984 6.763977241230723 4.345785124015295 3.2111484400500827 2.192704653068069 0.6154760740652562
Ni 8.657663565626022 0.33470011155116486 0.6459647775550511 0.9545179348623303 -0.9053772114716213 -1.1167954248797347
Ni 3.910048385018264 2.9947378710868917 2.3425420798750323 -0.5439112173430762 0.6161887838615646 0.5159358151760727
Ni 5.060279724395773 2.1407274672711303 0.7204773551989683 0.17285835085704424 -1.874234445774759 -2.1143425709183976
P 3.9440022649206132 3.8597830498834282 8.54323228831042 0.44546007775301344 -0.6705128512254258 -0.670999046833225
P 5.7037137721199045 1.904570067383179 11.993998046639573 0.036816397497401114 -0.39343097707091595 -1.084280740081481
P 4.178819255871636 0.3681612495766989 7.303027414966488 -0.7902735509265423 -1.7535453207221023 0.24073881674910153
P 3.002468821223123 2.711637839907759 0.1930811876148408 0.3294717006101358 -0.7969921005972984 0.44758843694992595
P 5.923672990770038 5.342247015628206 11.640993801499683 0.16778299321666587 0.3868281270424177 0.3869744228122949
P 7.164259219896027 0.1301584275255813 8.42712549982366 -0.06837925990534674 0.21627142773535657 1.1140723695216166
P 7.556460986941533 4.548196312991126 4.419823838781509 0.2476121468301671 -1.4357212316532242 -0.73858280742047
P 6.00318189552886 1.321737606807527 4.996585757192802 -0.2666506515188569 1.462513926366036 0.8367480403389977
