# total energy = -340856.95234969293 ev
CRYSTAL
PRIMVEC
9.42609159273349 0.00000000000000 0.00000000000000
0.00000000000000 9.42609159273349 0.00000000000000
0.00000000000000 0.00000000000000 13.79603784990146
PRIMCOORD
 96 1
Ni 8.655753867226032 2.8825177224554004 4.7115952209279675 -0.8039250802717057 0.1362304152213654 -0.14588696447452293
Ni 8.543017809382832 9.151839652195083 2.700919351019097 -1.039544830626687 -0.8431012362505351 -1.82174254652363
Ni 8.359378689073363 7.562657132461249 4.301204864275799 -0.738988784609637 -1.526022488442643 1.505751911119065
Ni 6.657686337699358 3.9219611427349417 12.613469118740662 -0.7473554114067774 0.24036497834945056 -0.5829770729962863
Ni 3.983975400640495 4.728231330333275 4.933725787073783 -0.5722128925012467 1.7558531429196729 0.2803978259016203
Ni 6.388100112422138 5.69243568592181 5.067975014215943 0.1627217766436746 0.578949697004448 -0.6693026329674086
Ni 5.656889893770747 5.104417227696511 9.127789921594653 -0.33875672545648755 1.7695527518939524 -0.6122876490349456
Ni 5.558104451781053 3.992157248316741 3.3552513076166948 0.9978230254078685 1.2031937470703213 -0.1814790026465197
Ni 5.867987219472962 8.977051632079156 12.57726821320999 -0.19230000452142365 0.5458444298100471 0.7747757124012593
Ni 7.336327242421691 3.58550622227882 0.9763979479318436 0.10640227611633933 1.732875708187893 0.020776827536035186
Ni 2.2700951125782582 6.053285331937982 6.205016188919271 0.4872127362097674 -0.7479753043789635 -0.3856845003562777
Ni 3.5796054888164583 2.066161616638655 12.097538582719999 0.776764460696514 -1.1990141617713348 -0.6820198234237609
Ni 1.6619142440079255 0.9501217744499283 9.934430554600446 0.4518346138207896 0.697759859866837 -2.647118340469944
Ni 5.075262325781041 9.404628581897336 7.4351268235490755 1.8335081716999908 0.4879228749029145 1.2935978479861914
Ni 8.22509458539157 7.923978083067067 0.45405201383692684 -0.8161355062949687 0.045791090192185656 -1.069109174547365
Ni 0.5802777516449611 1.1271155000453956 3.5055456282087456 1.2774927148942128 1.427385458094019 -0.6614746522825576
Ni 7.86937273331074 8.701687212532882 7.544170681236994 0.7370406597443306 -0.8598388607201901 0.3788165695918508
Ni 8.642510208256994 5.582961055838956 7.509845567973113 -0.65869246155173 0.3452017097508829 -0.04111965285844531
Ni 6.5382389024996055 3.5431265135778975 6.258875934814779 0.42441559837788845 0.23294168930218592 -0.4740150065725708
Ni 0.9593310661316012 8.88302636644488 1.186314184332407 -0.1385552066998001 0.2706754564075338 0.561356152292401
Ni 8.26112110822407 9.269119086282466 10.768014728387092 0.537274685863165 -0.29148416562276896 -0.14324078510092753
Ni 7.6269713567642725 1.4787464282881024 6.916367517381361 -3.09975282448421 1.229367577252212 -2.7421833371965936
Ni 6.149836790172757 8.48849729445264 5.4958997868212816 -0.2709760183670881 0.1724145784514063 -1.53911326018833
Ni 3.518788344568604 4.098540120291521 2.0474696766133147 -0.07858088302869692 3.5939083105603973 0.38519676208658177
P 3.4467447249953946 9.225636524841773 8.76876139651287 -0.09797137174016676 1.8073669945282484 0.7285200238678292
P 0.8875042466696286 7.857948310057734 13.110830253929292 -0.12514330416926833 -0.18282240404829161 -0.7760427520391409
P 5.849926827597746 1.809837902514059 12.517145771927273 -0.7086096580971473 0.48381708026465703 -0.1776362318616618
P 2.8303537304734374 8.527247957813293 2.09043097517786 1.839635110533335 -0.3207338065165057 1.171849428431085
P 6.705156135968451 6.9767595448893545 6.8061378573458935 2.518735703427772 -0.29636231965067666 1.4418859657030394
P 3.9522000452065966 2.7518909423892564 4.642463321109588 -0.5528208611278801 -2.2644469159083775 -0.41866532615767255
P 7.166506772680628 0.5504102371899472 4.064519469792551 -0.6858032017255931 0.1925763981112619 1.7652955192794955
P 3.986558149791753 7.008242691477673 11.662908088413182 0.6083926848559135 -0.10595284728374657 0.7964945921355896
Ni 6.525702200415035 7.479330481011926 2.670499467585018 0.2669309017634371 0.13901260595219286 0.9245162462939175
Ni 1.3909895136961123 5.521436954706632 10.074998091071391 1.060559228094825 -0.6341831635564562 0.3628240508183364
Ni 4.611319513825814 2.147112892956164 8.631904912380792 -0.3760307793165975 -1.5724213874221564 0.06660597005500787
Ni 2.11279249273818 3.8103656419986827 7.158336236314534 -0.7966789402322537 1.5095885112563354 0.5594954449345784
Ni 8.895600772896623 1.5377537629117177 8.52189582289328 2.460081898340305 -0.3711359131181415 2.6851999778330145
Ni 1.302308842108417 3.798696140359061 2.8403698956125836 -1.2583421101076908 -0.5506341378892066 2.3958914797053255
Ni 8.016089852067381 5.2564695144079385 3.4355031679231707 0.9255138343204965 -0.4632341139069828 -0.5803314078433232
Ni 4.636138413516545 3.060444631138366 0.15250096868077037 0.8099874844157017 0.8584838893541926 0.17353223699561726
Ni 2.0130455893856083 6.54955963874289 1.016130810057317 -0.45624534129397554 0.26730731126624935 -2.6182355959973234
Ni 1.287557008452513 4.201312799109616 0.6737421648175582 -0.07265423313161681 1.7696234572308878 -2.2170812821402204
Ni 3.723805841064392 5.318879668168794 13.449591739047138 -0.6542596225913571 0.9064089951702453 1.092628340715228
Ni 8.767914933469866 5.463947220861677 13.582420454156106 -0.48729346884903174 2.553478763335912 1.0868855246941798
Ni 5.430597708098361 3.3040431213425334 10.665165698225474 0.44652837111652777 -1.8442906070274752 0.7097072620367003
Ni 9.122081480404866 0.44401888173255366 5.576193121931646 0.1916114630948313 -0.8027292601913918 -0.622025959368632
Ni 4.175749238167245 7.313337004538785 9.33081285706706 1.7784755083048789 -1.0974874685797422 1.417311875908101
Ni 2.7249323198615345 3.217012015818597 9.28983857865246 0.7761795347273214 0.8270408403535627 1.235792506941949
Ni 3.4455947417966595 1.991846308943354 6.655429731324136 -0.5428583505985296 -1.0630616828017045 -0.16755519347657596
Ni 7.888092951611459 2.2722536875988344 10.691170400263752 -0.6189079825649405 0.0713473413947352 0.8848009299821664
Ni 1.9797526331730508 6.275015289182599 3.0910436103165093 0.10438524568631054 -0.8896392319110743 2.966134907185027
Ni 1.089769324361887 8.118089591358459 4.279806693296714 1.7166659311972499 0.8838370234070005 0.17131234652616303
Ni 3.268346511722784 9.172086897366253 11.133567994207926 2.5967182907508377 -1.247929142304483 -0.4710911480575564
Ni 4.385743711129689 6.353902251397462 2.170309562249336 0.006708265258111027 -0.15645574112930474 -0.9656158445477048
Ni 0.6137714836127075 7.487370937311279 6.677999565513078 -1.1098336488499208 1.292803119999038 -0.08322943754430182
Ni 5.021175411073324 9.499049743386916 3.072143353662546 1.642897639065848 -1.4544728012291144 -0.2838667582868273
P 1.7987810968409756 0.14592155660931935 6.139940336399381 -0.4671470758081438 0.6071027623998964 -1.2787479274575526
P 7.320877877973113 7.519325388489243 11.742635858015973 0.04385324973952447 -0.7654073838124817 -0.1504020787360571
P 2.579138958100599 2.599489890281491 1.0354854043356987 1.9859519634564249 -1.8995880940481993 -0.7411811642752655
P 7.733608733217461 4.357569122760682 9.979019739217625 0.522172540114404 1.4414506779378335 0.6291486864563424
P 9.135353417649283 6.72967340072181 1.9752611004337293 0.9114365302918238 -0.21197819967664136 0.7929102172184409
P 9.958948761962983 5.585383561429733 4.926813633962043 -0.023966795228242598 0.9505201265568469 -0.5462987437386463
P 1.2088679941653022 5.252265477468301 12.285647555757665 -0.2755034739237965 -0.5564533156741448 0.4078849477127168
P 0.37048216921934723 8.81308476534149 8.90371475271196 -1.4920031940744045 0.013153506662822508 -0.11334322621054674
Ni 3.0755735084659857 0.439018340036415 4.186766454254798 -1.1605229476746723 0.22003320877063395 0.6641414004814433
Ni 2.078896266650876 7.586787927451097 8.60779014174699 -1.3051505858207975 -1.0561726689913553 -0.9135849440933944
Ni 6.672343910437333 2.0870781143271215 2.5148520694637746 0.4067930002001187 -1.5824227216092426 1.5287877098926057
Ni 1.215560519338268 7.964972156274431 10.90594767220192 -0.5299637540240485 -1.4597553897842923 -0.5439585256412439
Ni 0.6621810632335543 1.8685907326592657 0.8119918253166283 -1.0432461907376742 -0.9628454808914191 -0.7533802774446187
Ni 3.0157083994892155 8.442582801329378 13.564347808361559 0.12248066973544068 -0.46689485058802166 -0.7034193721454595
Ni 8.740466154168912 6.54006756430743 9.985724518309922 -1.3758194130912693 0.23918047112304613 0.24237969478663415
Ni 4.263279926556206 0.8234709199020338 0.719171214213487 0.41513340174501406 -0.9992204199760275 -0.30734735790727064
Ni 4.346097569048711 2.160281143190859 2.598318227071632 -0.9701150179696391 -0.7261003586827431 0.4662847278078486
Ni 3.887932951362538 4.612101879444625 11.384862888361006 -2.217072283279156 0.6774322040530785 -1.0006707792693088
Ni 3.4058731909813376 8.207854263502337 6.456656078031971 -0.5711250587537068 -0.0962811285219374 -0.38683455480032086
Ni 1.5841489867164196 3.0736223074648534 12.134829144461929 0.8496881454394334 0.3348453062172233 -0.6028360167037424
Ni 5.476757279608241 1.3807056475500477 5.620023506159497 0.8276684466352326 0.5593296087806754 -1.8242282890599615
Ni 5.862011077276256 6.6115267661894785 13.498926960882049 0.598064306346712 0.2968066062769469 1.3002179244058703
Ni 6.4412255657669775 7.981053068873135 9.394604875884756 0.23822967717400265 -1.1568660676483755 0.7010593565537151
Ni 1.5019440401904536 2.5929764608525905 5.311998621159971 0.5528859100378607 -0.6325584834688397 -0.537106535716417
Ni 6.61010342632875 3.052734088051765 8.722738503333987 2.272421449473422 -0.880146976149923 -1.7337187729144785
Ni 7.668908039150927 1.007941421507637 0.6009812196589083 0.8836398197945299 0.8502990395505551 -0.6729541136770668
Ni 4.825810232573476 6.161166952507835 6.643399210368845 -1.9699031375236782 0.5989855326094007 1.1216352694705392
Ni 5.9672533921440944 5.822148135084041 11.30200377106461 0.6556786144260708 0.9404596569970514 -0.49303834175260897
Ni 4.358832219060932 7.3016675028991616 4.256643015324817 -0.5907626304789761 0.23710636220283682 0.757355974262915
Ni 1.3379394690856161 0.5285039998632248 12.000691145202925 -0.8809908122074569 0.7955980484632491 3.649844973827017
Ni 0.63480015179351 3.116077424900119 9.946612835633601 -1.4576383434412896 0.7863065958589942 0.3154627879255535
Ni 8.890981987918098 3.4756734007078345 12.772068768811444 -0.18851714044022372 -1.6356278448773123 -0.5118953265581119
P 4.80473349132453 4.139826402344466 7.413659842099903 -0.12020524343770266 -2.389443924307769 -0.5893081574206367
P 3.3631070125169065 5.392761375641621 8.666091462095316 -1.755779352258944 0.03579232710826094 0.2961224357257287
P 8.857377970676373 1.3030817816354356 12.613552068348438 0.15802797071243108 0.26875098569131134 -1.1922634733110626
P -0.42151503018616077 3.5040365109127007 7.01037393083205 0.12392023039544464 -1.4823093638254086 -0.48624702986238844
P 6.535656153348349 5.598429272471121 1.7517929718624998 -1.2443964465608761 -1.789519939044499 -0.7427065997808563
P 6.308883236994524 8.99322680559579 1.1978008197912466 -1.8619270891623159 -0.08708017874895971 -0.5620737471847158
P 6.761778669368461 0.6211615395783489 9.211807505572395 0.21089345125289485 1.7255969151382928 -0.8901195139816025
P 8.802244759779644 2.7576220061993455 2.3047520242732498 0.2195480416040993 0.014426716948291283 1.3472071486712152
