# total energy = -340875.03099842847 ev
CRYSTAL
PRIMVEC
9.23645407647639 0.00000000000000 0.00000000000000

0.00000000000000 9.23645407647639 0.00000000000000

0.00000000000000 0.00000000000000 13.51848417600808

PRIMCOORD
 96 1
Ni 9.323831118301584 2.329498419802159 8.825893869091473 -1.2194539176829255 -0.8919033453549027 -0.5470132533071677
Ni 4.450040534857883 8.841817516237423 13.609463690959222 1.5163942213242594 -0.6866431811283852 -0.2327041193700831
Ni 4.160939516488814 1.916407239433526 6.388200547721472 -0.7200420683038051 0.21725487469454843 -0.11505480958501475
Ni 8.853640177691494 3.5031746627464875 0.36351913034988553 -0.2161225608623181 -0.2486146199527525 -0.3859495810922063
Ni 3.2471863329030777 0.6985188608781041 1.8483548917293848 0.24461938275043033 -0.3931946926903938 0.8700214576801468
Ni 5.689840553856658 0.07275647385926476 6.5832855454587484 0.0041351052142961035 -0.1627289757325262 0.5172668752826705
Ni 2.11753103096664 4.037309576205429 7.32355779782367 -1.1361805142745658 -0.22196127903128227 -0.8973196312744677
Ni 8.356367953188174 7.881244746002716 11.616514878710277 0.3738538262699368 0.8846260949671991 -0.08952504074502646
Ni 6.646146082222786 3.760012746381909 9.889488202862438 1.0660040532594803 -0.4736771636171777 0.7006366671939998
Ni 6.8929995588020745 8.90608476498541 13.274800167366104 0.5382339644526407 0.807862467652899 -0.28704129936006695
Ni 4.240853318754922 6.870222462594467 5.996501919066725 1.7221693775139826 -0.43715490032142773 0.8610027991213042
Ni 5.1592709117424596 4.186016489807409 5.918811331341238 -0.23627178211668343 0.33525539717144837 -0.6849984464361107
Ni 1.5482883548616664 0.674835668507493 4.4643847483252035 -0.41258929516692167 0.008599825853869059 -0.29969935444370965
Ni 7.82387712858769 4.351090400359869 3.0207057034872613 0.1818142744987514 1.0771616125381964 -0.8462048148765233
Ni 8.252079148127308 8.38199911376243 1.6459158291095057 -0.5844932525304967 -1.3723206559093912 0.0189207481639029
Ni 0.1425295729922289 5.684317154208584 12.29888749389474 0.4102110247427323 -0.33639285321000134 -0.17209113367371653
Ni 6.337759347356766 2.376668991713048 12.522496509680815 -0.29492867252794364 -1.4879645052286568 0.4283984942850364
Ni 0.5033479641162001 8.436032371189235 8.035468593734787 -0.23617305175529005 -0.22244618908750075 -0.11231169962223883
Ni 5.203430399564265 0.5940758070310782 9.104983494687051 -2.0648611763588183 1.7443561980236668 -0.15533962524699055
Ni 3.774689472202626 8.14147260835192 11.220004057385554 1.9200162799955642 0.26330924585044974 0.29286664779259236
Ni 5.9532088106546 8.393165986963968 2.365288756418079 -0.5145232510992623 0.43983039027106186 0.2958938646546904
Ni 3.8896371454806786 3.1241659986009176 10.965139804025707 1.7095303485937332 -1.4367033930608353 -0.6424675150524355
Ni 7.678495338519667 6.550696563889689 13.626903040249404 -0.06806815642283116 -0.10434025138098803 -1.846803603257316
Ni 6.717534637205998 2.4465797140145007 6.651324038481499 0.44453859438000864 0.03558303931093227 -1.3038717191083737
P 6.524566634785341 3.1318507285460635 4.399725873916551 -0.34141576034588944 0.0316191695671778 -0.36889416827181626
P 3.200283618165758 5.110807236235031 5.2541348388754106 -0.9679236667452749 -0.5880611723874131 -0.22055565693300727
P 2.882946759120835 6.0930117823489836 11.210392603081564 -0.490513004227594 -0.3991719933197513 1.2590370792921863
P 5.909538854908627 1.054738421425527 0.9974520848079989 -0.7452144538043747 1.1633719870876933 0.0023106504110476335
P 0.023517859839339343 3.281943110287193 6.455157451950259 -0.006457325589569525 0.295031259544079 0.25445282390108437
P 4.470757901765289 0.9758406291281284 11.607619249611517 0.4832663499675097 1.1990252175149287 0.029897044669748508
P 8.634893231428407 0.4984018428594386 3.1782768422435166 -0.33554850293183497 -0.16492366939099984 2.0188924229381873
P 5.895434789252092 7.4694743785934055 12.121200281403471 -0.3955912179470284 -1.009661927024326 -0.4403682650524029
Ni 2.649162865320852 7.1061030315116955 0.015506159413354365 0.03636645444417608 -0.6592578471368968 0.13088560596968427
Ni 4.022651323293233 5.227371289008758 7.793919612837587 0.8538836715780196 1.6759586832858753 -0.5484980653828102
Ni 4.625191417009085 5.370767241410667 10.081126155869512 0.4448216728380662 0.3475907788083498 -0.34764168665094325
Ni 4.988368798551314 3.1931161296592276 8.357465243954382 -0.18500089975684916 -0.8128956592014324 0.05012725567369432
Ni 0.7001657206728391 5.206986434454747 4.865694831283941 0.32795294997276425 -0.6389312197644029 -0.5395233726880256
Ni 3.0571832323001993 8.832036111175032 6.32274364366467 -0.3257202039875035 1.2842729710408398 2.1043756895136725
Ni 8.274135800902558 4.589270846388085 7.941420245513083 0.21955472647231866 -0.6112715490656053 -0.7242296240225914
Ni 8.666962200622573 7.756857416469929 4.26410886329325 0.016928400324222458 -0.002149185132518879 0.09336678308861984
Ni 9.417026941794997 4.228504179407975 10.21667574037671 -1.5358353607680064 1.0506211430455068 0.8329142684152042
Ni 7.91878169611939 6.88393859717204 8.895054591306932 2.304112867039432 0.00999439220855053 -0.1772593081382173
Ni 0.3882118671712231 6.3323837309768685 2.2053789474429406 -0.9215530499005354 -0.5987898716588268 -0.04266977095438458
Ni 5.7241816907990275 7.716651131071828 9.769417068405813 -0.018421697040297304 -1.1546855150572888 -0.33173581405396413
Ni 6.926721853308958 0.4407063313181484 10.642250912324501 0.10195889563300504 0.45866552069969396 1.1740919446083586
Ni 1.9942890217622158 6.499212567838916 6.909121789714637 0.4784056794410986 -0.09054705425163762 0.1876591633153026
Ni 1.6409854098249879 4.823802892983208 0.6648445959333774 0.6286277809558657 -0.301315549890894 -0.45572392157286673
Ni 2.0466320080592606 2.9664350691859473 5.320240142021334 1.0627289820526342 1.9625911772432976 -3.3341433304177808
Ni 8.970795363537924 6.636013691898477 6.514395451353136 -1.338330929227508 0.38197902648023246 0.2479448475792375
Ni 2.158799508604755 0.285647508120883 9.280642381822608 0.6432948960497373 0.3300293728858187 0.3073946662054383
Ni 8.805878472707901 2.4211702283425103 4.549227122584978 -0.6025141145879495 0.3309305445438494 -0.44402745907154495
Ni 2.6459762886008087 5.396176727082659 2.6280612619161876 0.8009873377996205 0.4101806857254291 1.3509367909169765
Ni 1.440480460727361 1.6936701449296898 6.935212002065662 0.38963062948821925 -2.588001993923762 1.8695954043408511
Ni 1.536493402770379 2.3862194854189145 10.706193961527925 1.7735423326693196 -1.2521346957453985 0.06353658710106476
Ni 4.789794268394234 6.5229687281981885 3.4253676956973123 0.17746911015617825 -0.8968241796952878 0.06182294684406773
Ni 7.059403518768117 6.08617680619585 10.811813739647803 -0.0944312197973922 -1.6266711499046564 1.6179263138324909
P 7.056900439663388 1.8981744787223267 8.647666324025932 -0.3941565423830309 0.6212769970177494 1.3068901942197233
P 0.763989619616298 5.800262364546823 8.82267681207237 0.2822860440632687 0.6906350758965976 -1.0931898696456528
P 0.7040431841716038 8.07809205921299 13.711528357834045 -0.5687318759311818 -0.6983527562558296 -0.9974949526444885
P 5.9928609087970415 7.563492246516049 4.810323211634715 2.553861086375995 0.6950234347722805 0.9097881960551235
P 7.112559313040129 6.319258729471998 2.0409940763783507 -0.3096790913642409 -0.5404597684593659 1.8668006152045333
P 3.506296584286703 7.691537211936189 2.1403543094455526 -0.6833539688541521 0.4080039897890844 -0.48380525319011514
P 1.1078110876091907 8.351260193981846 5.845703872220055 -2.3498504782858625 -1.1206520796216637 0.24452579459535947
P 1.4136116152821332 2.141102462240693 12.981881722450968 -0.7469625468437329 2.1726474773068776 -0.6077175131657597
Ni 3.895779387564239 2.4968444981028224 13.499004010806587 -0.14475567908355716 -0.7244435398056104 -0.3479062531662396
Ni 6.782180580578686 0.6241478548140179 4.471414613663246 0.8220544428825649 -0.40152275294011497 -0.15804288311076653
Ni 5.173633598118303 6.5791448430135455 0.8649514538523558 -0.4058818012397591 -0.529576545887959 -0.5501433142957171
Ni 6.589055558435591 7.155425697265396 6.9240054121108 -0.21308325981536208 -1.0596187185584267 -0.4290816363949901
Ni 7.349890005276334 9.068110645631743 8.370024050813052 1.1102972187499005 0.07693923366021589 -0.4963584072647774
Ni 2.5843506657714665 7.198088879496921 4.350343171210154 -1.7491063111141423 0.16168253674588284 -0.5296763046906168
Ni 4.376619959937252 8.955047209022931 4.5535802634781835 -0.019602347611959788 0.554638116842277 -2.1777038087838627
Ni 2.5521062039463414 7.120207097168231 9.369850828011554 0.0443993520509816 -0.8371085090022099 -1.701751475979263
Ni 8.41214690047031 0.5137241968329992 6.179299661700603 0.7554752123004344 -0.5904906077645121 0.5161343043401241
Ni 7.289012535242132 5.300717972295301 5.058549225317188 -0.2932849662769336 1.0018673706805714 1.057509642635224
Ni 7.3882397633679755 2.1837379351094346 2.1458158248500774 0.3119853708999143 -0.49887114638430213 -0.3590180468086849
Ni 9.032993646531448 0.867075838332384 0.2470234273376903 0.13179423382688268 0.26690210540803067 -1.1263784405824795
Ni 8.612984361921331 2.0317520802448015 11.343332889260031 -0.7137102125485063 0.14780526454315834 0.4875356667668249
Ni 2.458494740011181 0.3712047839404574 13.001051059624233 -0.9219829383491024 -0.16800127987505906 -0.25143614856194757
Ni 3.078094564747087 2.9588427037834113 2.3894328478563134 -1.4113296901827372 0.3697120361874214 -0.028328414631047988
Ni 1.2627987901086464 8.63762722188966 2.3793882038474843 0.8785598341684611 -0.6629882607136066 -0.3490941028267536
Ni 2.198839537826158 4.201007255073 12.065058341468877 -0.5456317995786086 0.30703136932874864 -0.028605065331202353
Ni 5.491044348797314 4.706176647969468 12.146601454266625 -0.5715552043125898 0.4340852602571685 0.7222655583176851
Ni 0.5990865834676667 1.891431867111802 2.2362545667465863 1.929920940703786 0.9046601307999387 -0.30939832689902846
Ni 2.467583411003998 4.356225868928981 9.461155025672316 0.033281130650633005 0.5162034670151626 1.7561609039680788
Ni 1.5493136012846365 8.140382706749124 11.345522852565312 -1.8929633896428302 -0.5902232130357383 0.5639552804781449
Ni 4.908667434733208 4.163368703959455 2.9293470107463575 1.3812626955940277 0.19034776589105928 0.424494788355256
Ni 5.284923635509004 1.635064842643692 3.041726949739854 -1.0154836759124253 0.7179095953418346 -0.3693019452331962
Ni 6.33491451944438 4.332876112557192 0.8371672757898639 1.0463153165813013 -0.17756629785567482 0.5081780256075248
P 4.160486930230026 4.545914930086986 0.5445582520924709 -0.8256146494299975 0.494294068536581 0.8155410672440793
P 3.026139509529003 2.1645815289721364 8.779823358883068 0.32200136037501964 1.187445225986813 -0.5651426159180267
P 0.7002894891599364 4.007309572765725 2.4626354424563845 0.40460139186543864 1.0104335150830275 0.44678908097708214
P 3.45629965737195 1.7074971169583957 4.196380715133669 0.06038004374995407 0.2193906900906286 -0.028865775191756735
P 7.584523652868328 4.060622386760174 11.922397610826144 1.3628525685179562 0.7961361803549063 0.6740931123775166
P 9.29094934113245 0.11992796941558002 10.1081492501009 -0.30389385214103143 0.15324211928801348 0.028964248442833986
P 6.366152207755057 5.484089298738787 8.472912609407954 -2.111548553113028 -0.11358053903233342 0.10307244041215798
P 4.1663613151400165 8.146441820744336 8.153673964430691 -0.10604000768091415 -0.2592178493898955 -0.49276863303099
