# total energy = -340857.2178797373 ev
CRYSTAL
PRIMVEC
9.46248959501570 0.00000000000000 0.00000000000000
0.00000000000000 9.46248959501570 0.00000000000000
0.00000000000000 0.00000000000000 13.84931000540862
PRIMCOORD
 96 1
Ni 7.235000668792715 6.258490660895662 8.911449144316498 2.6958870252332154 -0.29360301173798464 -1.6137739822270143
Ni 3.669279077813988 8.975786504010424 7.912359743593577 -0.8462528945056393 -1.0786615941224906 -0.290868386415641
Ni 7.182341913836735 3.1422467912401966 5.808926830916498 -0.7739982108052863 1.165592905998412 -0.18552694746364823
Ni 9.009624367033348 4.364516580577803 12.938011960450766 -0.32963753676403873 -0.28283240348504196 -1.5182891243541272
Ni 4.384349958904439 0.791132265472688 5.071562324187901 0.6378477568922369 -0.17593236179667768 -0.4659160316145201
Ni 8.379015668644977 5.453317953265978 4.9701291662812315 -0.16409474573180124 -0.7039305074539232 -0.7699818905570416
Ni 5.854224715166232 5.477702789118909 12.705606590666884 0.5869059757370473 -0.3177487557462528 -0.5765423731145362
Ni 4.880506141718777 4.08420924938985 6.720197703855061 0.37863247860550275 0.08070872800497712 -0.043533918726892766
Ni 7.9479519521994035 3.344592670122254 3.4192006160927684 -0.010917418243452165 -0.5027064609699923 0.9817132643301997
Ni 3.7269718772689036 6.065654584121558 2.6591649303886036 0.1981127545484588 -1.2052182336995179 0.13753062209002767
Ni 6.921479998899374 3.6907305418724254 0.34548306746572327 3.211663174902972 0.12131467445179754 -2.4112013705895188
Ni 7.82551679849313 9.003634611078787 7.232289665505224 0.30143227797441635 -0.4886962627338294 -0.5846310636599414
Ni 7.049214146815053 3.8697513837434343 8.500166762504433 -0.0003195881229478367 3.482941040781195 1.262320635139465
Ni 8.892128632929415 4.200011197844705 7.153432115428559 0.9596364870358182 0.18252055653715663 0.340875057351071
Ni 0.7409668765420283 6.089679845367422 8.502617547326285 0.8961551786527211 -0.9276514494887894 -0.28131622395083167
Ni 6.486508274224364 8.662275296606742 9.221313508205348 -0.3077641337297151 1.5348115474891824 -0.568576324189924
Ni 8.475249188483666 6.492128993082198 11.463101267192105 1.0364867605266537 0.3278719602231837 0.29661377353985047
Ni 3.287808269674666 8.095405928565803 1.5268588152411995 -0.7366632218002539 0.20606131997157418 -0.12378550458979326
Ni 4.739884082886649 4.091429129000166 10.848760481026611 0.22291001609779673 0.39067886824707554 -0.9082694454177519
Ni 1.0761216365442383 6.684927219897665 4.27306634926207 0.5099330606254185 0.7477307924683252 2.3484929358167035
Ni 2.3202024645473487 2.426816335542679 0.5558361050977806 1.627134205584004 0.388920233684756 -0.381808048120007
Ni 0.9857453978048756 9.432323242619788 7.308377544858508 0.228479025545142 0.6197639028073327 1.173814779687572
Ni 9.17841625758227 8.098661025008726 9.071450381971601 -0.04041697036446587 0.7699376675826675 1.4021817051348817
Ni 4.198743224230311 8.929079655050367 10.653470780683758 0.4496877426811159 0.7951028539943855 -2.179020213602441
P 3.2332570167867565 5.630474684674035 4.8071652231136905 0.05327017217805019 -0.44452111087851187 0.07819676021640082
P 3.6158633236852373 6.2987440919078335 10.287614026731832 0.9046359624302227 -0.16083124448918107 -0.011374560385528797
P 1.7924604912490831 7.150188373973228 13.798829784773016 -0.3571120880352237 0.229206904850102 0.8536545862863493
P 3.325847478106478 3.8698081586813924 12.451665540666593 0.8636253243458157 0.03474408834940468 2.0479623437209504
P 8.845752971107448 4.464326921507841 1.938418448000292 1.2710443881657079 1.3501788297050294 -2.2121247094658933
P 7.830087180998743 2.2294477262215997 12.275667964241842 -1.2347807778479831 3.15213108097561 2.242815967902163
P 8.72620387674737 8.187087990878197 5.153591700798481 0.5194777668910602 0.11118067134158917 0.43806609928178747
P 1.139170205146518 2.7472730103565475 8.941391300346544 -1.71330344248292 0.9442638612344898 -0.9007291711766487
Ni 8.550362431402005 6.733053442306668 6.873011234364689 0.30749468211841235 0.49739224784593056 0.2919675330170907
Ni 4.00938934365096 1.7535507337685827 7.262841205869351 0.3428522356820999 0.9355689045636532 -0.13202923265582422
Ni 8.41045952178401 0.5547138538241455 13.577060253366584 -0.4937466806735432 0.7723866433437924 0.9737598138110779
Ni 2.635464232538067 1.418900324465232 9.373517654380896 1.6468561094929635 -0.057204217125133745 0.3452593024616957
Ni 8.954997414228162 1.6590583120272702 6.410623838398761 1.486011495267344 0.8637999022504673 0.5585081413206445
Ni 2.6996672248788243 4.096046823954078 8.272649714878728 0.48543558970468653 -0.6287277968688397 0.40378275261888524
Ni 2.182135277923326 5.657329230328135 12.079450939912343 -2.7130547952617534 -1.8550481026542953 -1.3403057935656917
Ni 3.3482262661515616 6.030832622174029 7.009855867324686 -0.7232518334903544 0.6799863379334999 -0.4575005538573153
Ni 6.4115369686509185 1.2848925459052014 1.2705701215563479 0.4737437551890551 0.35546401090883945 0.3058167801953572
Ni 4.244465974265763 7.8708042740042385 5.630451028449886 -1.5857361022531915 0.006694638411356212 -1.0119900609368702
Ni 3.9419501798465997 1.92547470839485 11.633406209837604 -0.1437974289353459 -0.6070407988137094 -0.2781776783218499
Ni 4.8191892087242145 2.951965586674199 0.13998144828217085 -1.962926706205845 -0.3249807547183177 -0.4879123333799533
Ni 3.7709819166759577 5.853751590683249 13.690154037280847 -0.22160723812597322 -0.1809573258150948 1.939808632131143
Ni 1.0209174718698124 2.4150639233853877 2.693524176591776 -0.4339150532278914 -2.3449252730701033 0.3928090272162009
Ni 6.941237677308733 8.39732558613641 1.1154496360676955 -0.5058534912394062 -0.7213021659631512 0.33210399602666024
Ni 1.021229734028581 0.39574686628884337 4.029844407548236 0.6748724137457022 -1.7835711776602314 -0.26948117898911655
Ni 6.406531311620961 0.7075444168151616 11.42939209402855 -0.7952542919705853 0.37956064684672697 -0.2115485683383905
Ni 5.520019042876886 7.204843714247395 7.477851680911891 0.9364083697458131 0.5387191316191754 -0.6893289554906644
Ni 1.49049352123018 4.358611987030178 3.418522155584171 1.0707809058228333 3.110314144939824 0.6859988626761669
Ni 6.592999132854118 7.658768805710694 5.213198761911545 1.305307937334268 1.8033151930563782 0.016981365049344947
Ni 6.5711313192506555 1.9611199069427696 8.1013474258231 -0.9475116787478263 -4.062218296328391 -1.1426134143841034
Ni 8.175600528431378 7.845321789350788 3.1340295652197523 0.8163936450523618 1.0254050487911954 -0.04666757925986801
Ni 1.550580330568988 4.366134666309604 6.037066510361809 1.4479609682525256 0.9508584837328722 0.24054469846042445
Ni 1.3353749282394596 4.720675228877549 0.6497749711940033 0.20741911955104922 0.3926884424779366 0.6837064670975644
P 8.387645459214582 0.46087339762038326 2.075458008247276 0.2313856576689757 -1.248790976084146 -4.400063822824518
P 6.79986808179349 5.302410168173805 6.747896303586803 -0.008952581207597485 0.031832828239880664 -0.06744132147210966
P 0.41691067066162724 5.16330210768722 10.515808588617167 0.20970560159238077 -0.08253575391138689 -0.020585794571151644
P 3.0334754726024653 9.072985197794397 3.649514775661867 0.9558554227268313 0.12013222410792213 -0.40995957085355844
P 8.37726510805794 1.0147100786530787 8.705786662808732 1.4668197528302414 0.3358578066421377 0.985279127304587
P 2.080659538813188 8.836441881282347 9.43694756131646 -0.6901900179393791 -0.7860273740556786 -0.08790344598120345
P 1.3212852811362337 1.4275206525451776 12.524263653833394 -1.0296926204229557 1.4359580302543786 -0.27758503904317355
P 7.762837266987577 8.449227341919615 10.929390355416528 0.38515973820105925 -1.166705165225984 -0.9121081024375517
Ni 6.866559708914737 7.871608585625308 12.698308172392391 -1.662186569202447 -0.3395918197632732 0.841477584604183
Ni 7.278547046206446 5.7900784977634325 2.838415710758342 -0.7075940723484394 -0.6556104801922967 -1.5454703127546094
Ni 1.1245979710706495 9.101249654407786 11.356960520679758 1.5832367328701056 -1.547963254379792 0.023941341306945866
Ni 5.746323945577188 5.78409820429853 4.608510661447865 -1.6384159491454107 -2.0557389023425756 0.4137519480164552
Ni 0.8602491286937043 8.8624164153981 1.4011761350837328 -0.27185893519267373 1.3759675086333594 -0.15270141629319509
Ni 7.1098781680231 0.8116933092541517 5.43018973603985 -5.721626274344437 -1.5338167876760809 3.3454955222058063
Ni 8.32931867295247 0.9834933252658777 3.926306791941259 2.7791948814239364 1.6862258695398378 -0.9943903455772358
Ni 7.15645254212792 4.859783289364134 10.899961066326036 -0.14403756997060999 -2.147868213479669 -0.7941232636899356
Ni 2.0415699940291545 1.5268484065025738 5.7377831024103845 0.07550455809621834 0.9059027449577883 -0.0326057018501632
Ni 5.9115674025037395 6.866465084018141 10.462322812064935 -2.533651958417972 0.30864576500372004 2.9562767834440247
Ni 9.19647068785289 7.990258743467719 13.14814736082065 1.8477582538611017 -0.7434499057047842 -0.12732437098098714
Ni 2.8096497421929914 0.2952836135722887 13.475752946572388 0.612734506764377 -0.9349466975986221 0.599649905666277
Ni 0.08187419178016286 2.5173250491372765 0.6431275722080958 -2.2276744842750347 0.09855115550303672 -0.8549095417393728
Ni 8.969427710959135 3.1084562406655696 10.583130417549746 -1.012801501094572 0.711498035388536 -1.2497463980188799
Ni 5.838895481917591 3.6733006359193414 2.133957011821194 -2.168044431317228 -0.14494414094527938 3.2898439942797726
Ni 4.128276063734862 0.9402251450481405 1.7024684295899024 -0.8653633900828451 0.5385923762333241 0.13189733506365026
Ni 0.7995557737677126 6.686195193512058 2.0997633591870652 -0.04148886327240597 -1.049447948673012 -1.4968857189776865
Ni 8.732117932784654 0.7966924243967011 11.1713935284622 1.2100279963833354 0.20395712914437775 -1.9548495856246655
Ni 3.7973444128677563 3.174248931269149 4.778759775404373 0.07155431519921872 0.6301303336433212 -0.7832192151829221
Ni 3.1181363675873963 7.634365044878445 12.061419219616905 0.6301401038353341 0.9728211040468921 1.2464412449050468
Ni 5.043402901209735 5.412137198267161 8.744205317075897 -1.3221342648629875 -1.144480549499829 1.0527196774457483
Ni 8.269440038386174 6.240142893445591 0.4766908953354622 -0.7563205910198652 -0.6886668964266334 0.672792391288222
Ni 5.180429213971195 8.676894843130908 2.9833072449249074 0.31918265997930195 -0.4912717367704894 0.6570898929513006
Ni 1.7593039274816529 3.379963456470044 11.022914764465659 0.5377822216272029 -0.46320480333094416 0.302589274396995
P 4.769331350707493 2.561155301240798 9.170611596110987 -0.6971520510795091 0.9427692789668345 0.823280344869866
P 0.30068196392312174 3.181298486065592 4.889013866171773 -1.0874946190330883 -1.3215439395771562 0.11313985195048902
P 4.779730626843454 0.10486614915519202 12.639060685886395 -0.0776354883962921 -0.6428282408259638 0.7188045963522782
P 1.8562187465758369 7.719905951401723 6.58439110601073 1.0303904178209289 -1.4564268396316917 -0.5177628410824825
P 5.6752795732125 9.548314440867834 7.2619962055427445 -0.9806740244324077 -0.5664705907008308 -1.4807859852023466
P 3.240618833741968 3.560290121914085 2.2088128750207905 0.4569901898798 -0.01748607259990537 -0.08421057051064851
P 5.736303169027614 6.339773447072097 0.7617588050711877 0.8656899201843286 0.7167461711613528 1.6026750441003754
P 6.029839060759765 2.2360241565350596 4.1094229993369655 -1.336701364043885 0.41472176812889217 -0.21297450215163966
