# total energy = -340861.987782263 ev
CRYSTAL
PRIMVEC
9.32878191507537 0.00000000000000 0.00000000000000

0.00000000000000 9.32878191507537 0.00000000000000

0.00000000000000 0.00000000000000 13.65361530044269

PRIMCOORD
 96 1
Ni 3.8452119642020075 8.74251462515098 11.490173006771544 0.7575644907292953 -0.22147765452664436 -0.33684819557986506
Ni 6.3463423573969475 3.66767591538271 3.5682628179181672 -0.6655879031199827 0.7173899753929387 -0.2783298876289981
Ni 1.442257671988323 1.5139586898657398 4.579395497622354 -1.0045611154626506 1.6094157052583185 0.7766793571818753
Ni 2.209428711174521 5.332359734814599 11.568708290287393 0.38087319501056344 -2.4782439139613124 -1.5425888774417562
Ni 6.055470936967875 5.945139433138028 10.338203706341965 -0.3742664883273232 -1.479876843124516 -0.534543402974931
Ni 4.707704497100337 0.5711444117128768 9.444751744868334 -0.19864343024094822 1.4435895786577073 -0.10815859668581372
Ni 2.5296484795404077 7.16535343774172 12.529431031102146 -1.9628667995021873 2.31037967388475 1.9974995590847082
Ni 0.9467594200290482 3.557838836994901 9.82792679805672 0.3360832923893825 -2.2362483419869745 0.9586386418989232
Ni 8.189429802367181 2.9418780240349647 10.920994169410315 1.3962403999497823 -0.2471676030935808 0.9744714951661217
Ni 2.249187979739906 3.8601939879739473 7.547937046156048 -2.9899469220029604 -1.3570693861772756 -1.6998678858033045
Ni 7.520238959741809 8.008050295394684 5.5729826042815445 -1.296563615482735 1.4272450758614128 -1.8600216446094868
Ni 6.208593563488812 0.636065270887027 3.888768047010966 2.7282831821757334 -0.03802738708636677 1.1530554356530334
Ni 2.043870818347236 7.815299003255316 1.5022939809464162 0.053564563490017425 -0.9046896984862935 -0.1407774111620995
Ni 8.10254152751547 6.016103477243351 6.326471119017988 1.6766377116307705 -1.100288685473963 2.9418228128022235
Ni 0.3916829023042097 4.296930242586118 5.5778298393699 1.1871924865460584 -0.5111409648905907 0.13558558254851485
Ni 5.562426154654939 1.4055862302401934 11.305985536439549 -0.25406947241973665 -0.019220795902824963 2.840170135555728
Ni 6.186960118204174 2.9805924690247223 9.866648706072018 -1.7638770416654137 2.8842856378177038 -1.5376284481126874
Ni 8.051792953842147 6.879911368393138 9.3358783296534 0.38479824109658245 0.37441689786225846 -0.500700486283557
Ni 5.533366998957807 9.223870443711586 6.042475943746012 -0.5132063320600517 1.31806035190393 0.2298692210244493
Ni 3.6094456586053445 7.785232339110259 3.3402338040503006 0.5295639474824686 0.8312520502214329 0.22776374464567226
Ni 0.1890431013240841 6.780186689612292 4.442217625168042 0.5691972456033746 -1.1142634024865004 0.6656323832046729
Ni 5.566017735696158 2.6893945412282663 5.682047259525943 0.09055579600238597 -0.10804623947766553 0.5063885378072698
Ni 2.439532446142562 7.099473579785655 8.986632056327121 -0.9519357759574509 0.2314692185217175 -0.9659680856808011
Ni 1.3237821415377387 4.728106543170843 0.32939182675478546 -1.3889466945018467 -0.6228394564088628 0.24285560598178824
P 3.713265672651372 0.2044841011667461 1.4064864576959795 -0.17242846240847726 -1.153034866827743 -0.31140481580609597
P 6.401176937553525 7.709137464946052 12.712499047603112 1.2001845279303525 -1.1749964587004988 0.5762574948842657
P 1.3076993214986201 6.030404499934747 6.624870866460731 0.5543851202912066 0.12258531363410502 0.24245554232989214
P 7.887018678696584 4.63851292156081 9.455088035241502 -0.3510286008453051 -0.05517278851740176 -0.13164305296099907
P 0.6618920036470619 2.650045739067592 1.6773196545496303 -1.7755192538900324 0.3890870982799235 0.5178248046686694
P 8.602293704032656 4.487265380206848 3.6989142745375787 0.6022055822085951 -1.0389689035185592 -0.49216776622219754
P 6.087785837556916 1.9382503493896361 2.0254315479938008 0.11128660079183414 0.2008070135511703 0.3182953722783422
P 8.684209738118213 5.621178823220118 13.622703635658095 0.21662469730971723 0.6577136425782286 -0.7077503954206457
Ni 8.60228437525073 8.296608177906297 0.6607790799633805 0.3130096983993706 -0.19373159476162766 -0.4588398414940291
Ni 0.36137182407271057 2.5392851112691837 13.154534983227013 -0.0052913303059263705 -0.41566099211370994 -0.8482383003667844
Ni 3.3845007400419633 1.2087675891814194 12.91977432032189 -0.4233902424371676 0.5806386546710968 0.04884427519621266
Ni 5.402959956424837 4.9284514637973595 1.5049974619483517 -0.7608454754734122 -0.5879968948083809 1.4447167502836151
Ni 4.232403058009213 1.5299295645217557 3.5222234133607087 -1.605263887873474 1.2555030979969992 -0.56675289782794
Ni 7.442632822905714 2.811564269321247 7.513898186667222 2.0576865129872495 -0.6958197054213306 0.6483067474420319
Ni 3.196889606743404 2.8582454940751623 5.530711094743691 0.0038623111688836716 0.013841533868782615 -0.6109668733409929
Ni 9.233311171019933 5.2115799952284805 11.543571887389826 -0.9507726088872851 -0.21401297071848302 -0.3471140962822474
Ni 4.604789374901058 6.583993076942509 12.323015872076873 1.9914376691613447 -0.22352168153986665 -0.2765537695651818
Ni 8.190110803447725 2.1512450983067812 2.957195883956213 0.8933290220578357 1.5093481131107556 2.3846434175953317
Ni 7.72228171867872 0.37237792098811207 12.23081299016235 0.30676885969598133 1.277934944637954 -0.0318474835279
Ni 0.7954241881249883 5.512461198663338 8.990932624794658 -1.2919289449242009 1.3473092214667184 -1.254997104894858
Ni 5.081807309866426 7.1136813146578 5.038033866438609 1.0701386442531442 -1.2805068191301883 0.4748017641399242
Ni 2.192618246145233 0.08583692112873721 10.034396996895351 -1.3847200580150087 -0.665996194301995 0.4255610248362413
Ni 4.860230081578058 3.2856716243259405 12.856680969526895 -0.7782431021245694 -0.9497302836656998 0.4731688565221916
Ni 1.4036831587274439 9.236958724752702 12.406056957262615 -1.1186425053908025 -0.2546533699476647 -0.09074554341568888
Ni 6.358479102681689 8.371303734781716 8.298012159586046 0.41079543649129246 0.3763485676673325 -1.2205373805550916
Ni 5.804536031960767 8.939706417486764 1.8372028493317905 0.9901691084070368 0.3935019395181675 0.5438777930019795
Ni 1.8222562749311664 3.554657722358393 3.446022191082555 0.5564985670897835 0.46461685318712237 -0.573447022018664
Ni 7.191679260334755 6.373255893251273 1.3134449182863772 -0.9625186936796198 0.8135502620662958 -0.31016014476571746
Ni 0.14059220663895022 6.371679329105907 2.0169666112748352 -1.6789409058426505 0.04656602068499722 -0.6735709213254594
Ni 3.0489164678452014 4.7869058556456485 9.287694238131328 1.9800469108258996 0.5655753325800712 1.909168795758099
Ni 4.860220752796133 6.329559878713436 7.788294978216316 -0.6273944227693969 2.104442795306182 0.7960037685421001
Ni 7.283633063771874 6.063941470955995 4.237658893745895 0.6159067338447716 -1.193601475396196 -1.2796616975210737
P 6.065620651702539 7.093297926151144 3.064717558670178 -4.0274567244774895 1.6382624542866817 -2.2808343561274653
P 6.20316421240832 5.204238243853313 5.699660932678994 -2.5689246655773372 -1.5289795141884377 1.8693719754761353
P 3.20038789996537 0.36748963925928485 5.0600843082753055 0.7019165623476878 -0.7255593985776085 0.9826049229065337
P 5.942816566438641 1.4050544896704547 7.717501650820225 -0.8484547872529645 -1.4963997804802034 0.08391617919868129
P 9.038722108841291 0.3399930545346315 3.780740752316654 -0.5115901366128672 0.6126087798197901 0.8631015906318619
P 1.9089859604901491 5.602101464182997 2.506325591849108 2.3579954759905 0.044512994810710436 -0.07554106776110861
P 4.354059703096305 4.673663771855126 11.331025852883284 0.5895431562495782 0.16342265936544112 -1.3440246371781757
P 0.32515655976072527 1.1211236829937625 10.945052165117325 -1.0627711481444793 0.6672017845743219 0.2471166952509873
Ni 6.237214266435457 8.261606588122785 10.626826890327054 -0.21461923684391426 0.5333802359047652 0.633448856493593
Ni 2.610407744667235 5.925604963786569 4.635620999163986 -1.11934133123004 -1.2952654654966016 -2.5167865501212012
Ni 3.068497581106286 7.591939977619226 6.034570733942561 -1.3362066837956537 0.4018706231978369 0.13742443552946657
Ni 6.162686627634692 4.553938184626558 7.752714071075247 0.8282081211887865 1.1891956330190163 0.5974379856166226
Ni 1.2187680434052799 0.5087507195622749 1.0468936323364126 -2.5136464618303225 -1.4480540421869643 -0.8302724599169831
Ni 1.364968713737686 9.22145428919295 7.241549995628911 0.6159427292890295 -0.6527892086934176 -0.7096334713759713
Ni 3.7913569061475805 5.05508967843253 6.302071689892515 1.5503286692881753 -0.6306026452940494 -0.0232168044360955
Ni 7.8279674891097955 3.8984886377770698 1.167940175085594 0.5790911076783188 -0.40476337136459967 0.5245384692434193
Ni 7.239097458860765 1.0567084437999608 9.752736815739263 1.0800011388695205 -1.7597285667146791 -0.9820469935205346
Ni 3.213112358511401 2.587393639657661 10.523346443943105 0.7228512556178261 -0.24322687327827786 -0.1447237974043572
Ni 3.441835433754506 5.374563144244397 0.3014530577668756 0.30861594020704913 -1.097151425396562 -0.0006497177688569456
Ni 4.430275851425539 3.086212937982322 7.9486847258570155 -0.7652101802000112 -1.4202876707069734 0.3893748047236713
Ni 5.4280357222398905 0.041887163722533004 13.2794240512512 -0.6226468807820825 1.396885232622633 0.10135725749326414
Ni 2.602105128753769 2.013542948308271 1.4421084114775193 3.3180266273615757 3.0779609254200992 0.7112797487301428
Ni 0.19330075739476496 1.1633644075512624 8.770987000465013 -0.1576451334517156 0.7642763555318322 0.009220490157003474
Ni 6.448707081462638 4.870053288945338 13.098527775182431 1.0061968512938606 0.8427824194585356 -1.0266648893402253
Ni 8.718381066310377 0.6993535932242597 6.014718153127451 0.3823286965101674 0.27518208602863575 0.27481236139404286
Ni 8.069293748733903 1.2315951185524887 1.0878926960196627 -0.6302851140536307 -1.0583195401310288 -3.4500046950644907
Ni 7.889975902566886 2.721476222269177 5.179130760179715 0.5093231949555616 0.4722802832696512 0.21153699837416473
Ni 7.976966794019774 8.034646652663552 3.034474580546733 0.36997197471702736 0.7076349528887039 -0.5756692264809633
Ni 4.370282454864302 7.243621918094507 1.1634791515689429 0.6008688656750426 -0.2200743464212145 -0.5831580786588407
Ni 3.8077195896444564 8.932868420335561 7.636111760035251 -0.5733071540066901 0.16395976281583374 -0.30818013822121115
Ni 1.502904083284327 8.639506215132448 4.149825613285155 0.8336074378274869 -1.7931562502455054 -0.4257597711106086
Ni 8.437743319653295 7.466094709447699 12.035006521942465 0.7012434475400633 -0.6569896199280104 -0.2567886711231126
P 0.27433522158838713 2.538314917948958 6.975208607272265 0.1781201134766158 0.1255153427967064 -0.5069284694711398
P 4.056051764494422 4.091883615869279 3.7096871519048493 -0.11994581912872891 -0.6302948842456435 0.4645895994936128
P 2.511606615296988 3.2210884670574838 12.562391483400413 -0.20688767252761145 0.3835234881492169 0.7264705975379682
P 4.311473813607571 7.702476714651429 9.430196979308569 2.5815094442208832 0.37173318038250813 1.0784237670800716
P 8.548681194308283 8.228564042543574 7.324426894252769 0.4722296325373738 -0.12888117394514578 2.184639359561431
P 7.329008259056256 2.7378109194202773 12.915486812149048 -0.8826535446218605 -0.6114157879529535 -0.179404122395362
P 2.6254830562584277 1.3725530134429085 8.495907342078993 0.6557328647027739 1.6892566859463616 -1.227846512621995
P 0.6922721148648079 7.311404847563322 10.395453508138988 0.5044491546927119 -0.4503760269973921 0.594941187336698
