# total energy = -340890.409605083 ev
CRYSTAL
PRIMVEC
9.08883416016372 0.00000000000000 0.00000000000000
0.00000000000000 9.08883416016372 0.00000000000000
0.00000000000000 0.00000000000000 13.30242750683440
PRIMCOORD
 96 1
Ni 6.572008570092675 2.2404339187345967 11.41957541012839 0.19537838633643126 0.11005015728157176 -1.3197457100261527
Ni 4.808974742291505 0.4632387787892815 5.942260535964731 -0.7756637714331673 0.04260240805155889 0.3265362721308957
Ni 2.992398593816976 1.8523497988174815 4.564248799930132 -0.2984767948905182 -0.21948993467265426 0.3127106791017131
Ni 3.7052358388367503 4.529911185347897 4.919037794516622 -0.41044962311609956 0.21612667462737617 -0.6360284442953111
Ni 4.0086211153732805 2.745700374493098 2.1654492210568947 -1.1808426330686308 -0.6975459440838181 0.7777664195984669
Ni 5.419044542080645 4.644166916664275 2.6089788634720166 -0.8003149943229443 -0.4904168449693618 -0.04385942038711156
Ni 5.3858793870751995 4.463162788976288 11.307820925909162 0.40189684845008206 1.5092144157463685 -0.20625440981898668
Ni 5.572809434484631 8.243299708218599 12.390904545377788 0.5784786709053006 -0.8566424652700796 -0.8639680523972153
Ni 2.0464418473626464 6.572499367124818 0.17129907081903212 -0.4128597752194889 -0.42295855421638767 0.540353839009121
Ni 2.472299161087006 1.8512500499121216 0.07922645647217735 2.2082251173011715 -2.151509666886998 1.7105490196662347
Ni 8.226558076122124 -0.08857977546809535 6.345137641984029 0.2710132993629268 0.3780133569642651 1.2604630131054355
Ni 8.793710402100436 2.3317130778794852 1.2611366027799988 -0.15242862224778264 -0.029511379195555628 -0.2507632908646391
Ni 6.7519765707128006 0.8089380305637827 4.5238625663684155 0.4879753254074048 0.25672156533060303 -0.4105018165102737
Ni 0.6475703285785273 7.568771898207856 2.3372627198762856 0.5787864319537064 0.011561479585354282 0.27764648840872824
Ni 7.666513218275974 3.9753378055267627 3.613417711839896 0.7949305900825794 -0.5027452846277277 0.775375293658471
Ni 7.7677810059083905 3.986253495075006 12.636786587414878 1.3218249611526849 0.012813092604268257 -0.3636133794888512
Ni 8.34323143726351 7.1355526290013325 9.229077362764285 0.19382209759290492 0.6097731101432078 0.8521862292709387
Ni 6.720111118959144 1.1293603262994658 0.14148042446609477 0.48645503210813645 -1.04854420591182 -0.934280781879849
Ni 2.1145626576574723 6.663033241887562 9.08136745152353 -0.655137140100304 -0.9736703394210651 -0.2286911415559481
Ni 0.2835852518230841 4.890265272948866 1.5725200531736934 -0.5958511007454771 -0.3234092964661398 -0.5150662680869259
Ni 6.704887322128745 1.9556716629177595 6.719707574732714 -1.2710163631412497 -0.6219076886232128 1.2058993189269427
Ni 3.3743568396662176 4.162149698095122 0.41277121063396727 -0.4693132302215272 1.2791896429806615 -0.9874617367782025
Ni 6.116703434439664 5.764056678010144 5.008443744988826 0.5207741171049806 0.9665015895867677 -1.8659938030325218
Ni 5.695099694993888 3.2215644524925926 8.899417176223576 -0.6998964465938656 -0.19335030016280894 0.7144910565785888
P 0.20943672686681325 5.613109324124024 12.519951445029562 0.22078577066594232 0.2969534162674563 0.3224867846518704
P 4.014119859900081 5.845947071706793 12.301951218835226 0.8413171477669188 1.1006468401443303 1.5542328894385877
P 2.394480564990368 8.466766868020985 1.180670429359961 1.037573308722613 -0.1062104718205074 1.253719523734015
P 6.4074461429815175 7.923581797112381 5.692108559747986 -0.9012588184278736 -0.28973838657625584 0.9684458577973322
P 4.53487368867291 1.2018801322157322 12.602040884189249 1.0559592674289686 -0.17695977461992748 0.8878500012211354
P 4.192306449070203 6.267668965993642 8.127637025410072 0.005966244885763918 -0.22054897206478793 -0.7914835120742434
P 4.784952954218225 0.9908737637294506 3.5127316095789114 -0.7206061683373912 0.931689624113905 0.030102732922651386
P 0.3341337106003629 5.888219238308692 3.6789191201965012 -0.403418427300931 -0.4162960545945475 -0.35505880505062076
Ni 0.8177760126759492 -0.10394444922438668 4.5475144389008015 0.7065190941167058 -0.38663375164342445 0.760904867956438
Ni 2.1165349346199775 6.589286443390936 4.782355365481433 -0.2753198971580807 0.3092548593426287 -0.5525588657157451
Ni 6.144806108946883 5.792986436404865 9.155675031073551 0.3865671600715471 -0.16161414540179264 -0.33473423456065576
Ni 9.132823884810275 2.527995535401441 10.138936896387802 -1.815233027539887 0.04372186636798276 0.13198578101239847
Ni 2.496902634531715 5.339926242732218 6.859090296328089 -0.27646146696169166 0.1409332200136734 1.354380012270571
Ni 0.4205857900457739 0.10579130027867736 9.034157321448225 0.13775765049916922 0.6874193971727774 0.07777355663605316
Ni 1.8720453019407488 1.380930160609071 11.168425479946285 -0.32396208364581625 -1.8693652906079163 0.44013635154725494
Ni 4.1716020853808615 6.7596566353824645 1.449445426296398 0.4161962957918897 -0.08264811111953507 -0.3754733641512308
Ni 6.009227973234018 8.108930387418237 7.917551355800757 -0.8742336959892816 0.5573151494538079 -1.0404398316371308
Ni 5.325920349648252 2.8728077169845117 4.908409312120522 -0.5304671760230283 -0.5343531413409959 -0.9980546818027005
Ni 1.0408259950010132 7.666249642092046 7.155282669693529 -0.09757567896364486 -0.16885565745555436 -0.8729280898039806
Ni 5.4102283731699075 4.710524493176954 6.884059140896728 -0.7882248959276297 -0.4029828824254092 1.3538897028977135
Ni 0.739526605851096 7.413589147711009 11.207720144553177 -0.06217107421210583 0.5192679648730992 0.25442377043536185
Ni 4.834614342804073 0.6224260695150667 10.51314782019631 -0.10541420117145715 -0.8494585459271307 -1.4986759781088899
Ni 7.963072780532129 7.558219762016756 4.39452300626414 1.3463216607424684 -0.25327525865321543 -0.5803720312732714
Ni 7.7289625961993575 6.518166317899672 7.163489886731051 -0.613584256359182 -0.48621437685224006 -1.8817029862376626
Ni 2.486096010990615 5.238076769728373 2.4694489027669984 0.26922689688646534 -0.05886566398795668 0.8850441563412241
Ni 2.171622357061197 5.456645048043247 11.35274339648464 1.076088691188992 -1.0788562266318 -0.16016558588072416
Ni 1.0006715267044768 3.5868628657507178 3.8954296865099405 0.5236990040612594 -0.004820047096462666 -1.6923666923302532
Ni 1.4343270599395717 1.1185082585887225 2.477723377175592 0.3595093846228067 -0.39123551208149393 -0.13718943670052502
Ni 1.4305551938592045 3.4324708438056595 8.311994932817711 -1.2988891782921177 0.5523418646089326 -1.6813633992412138
Ni 3.641486757661579 2.867672525814855 7.079604493987075 0.4109941827656599 0.24663615607014294 -0.49304399817956374
Ni 4.16494905894513 7.062396604710065 5.969211655213196 0.9875599529189638 -0.20343288120979158 -0.17120770262749868
Ni 0.960208038054368 -0.029884994840616085 -0.21868370650576668 -1.347514395498989 -0.10411399430279489 -0.11209752672890372
P 0.4416982423785093 5.547233455809561 8.04421698096324 0.07281646974109394 0.46067612337181957 -0.6954240126448088
P 8.65127019677148 1.7848470292298 7.7367980799291995 0.6356170677895053 -0.5031111526075788 1.3335813303576647
P 2.091295242800267 3.3292671345464533 10.330864893574569 -0.4936253246043305 0.5588598682331085 0.7053214742641789
P 4.283576519381163 6.255453573193609 3.6237544426668884 -0.8977070965208733 -0.029746892245129417 0.38933135308024563
P 7.201928383181868 4.10299956688782 10.296464566038226 1.2285795341332777 -0.10008507564905988 -0.8009611125473753
P 6.359975163372461 7.968398837214286 9.962719857530008 0.12949129672531892 0.09720235478462615 2.1499294668840716
P 2.652039940858918 8.71858210084666 5.882359667074927 -0.6649412706749194 -0.30841976503584306 -1.1189597795209052
P 7.26107851438917 3.9134610241408816 1.5377734410646713 -0.7733302382039843 0.9067568654279673 -0.917307387250304
Ni 5.613436522145454 3.4653451561253905 13.511807711706695 -0.712251882835425 -1.0659171499726288 0.18641372094397574
Ni 1.5833657587006869 1.2971311117874171 6.799961069438822 -0.2803913981437171 0.29492070210814364 -0.0023957539256861966
Ni 7.054416608520758 1.0713372104993097 9.125478289229184 -0.38037542943853847 -0.3267193346759792 0.05906029649726603
Ni 2.7519080480663294 1.500502859773678 8.971209875425556 0.4626360753116678 -0.2695202597571681 0.1519912776000479
Ni 6.160066261112995 1.9602797017195577 2.101677417796902 1.4367702417430288 0.657836541309338 2.0032189780669887
Ni 4.209148058339891 6.832449106316589 10.24796382154506 0.378668988270393 1.0828152112795482 1.3010242223572497
Ni 8.397028245286869 7.366327211282311 13.596543819306387 0.062394245966505446 -0.5429108011030198 -0.17017566181855853
Ni 7.707949212156444 3.9287029986391366 7.8788011123461885 1.5631844422049206 0.6951193369201963 0.08867349137800858
Ni 3.207676714249698 8.500986327762147 12.224824283000554 -0.5410989447052617 -0.41466006165302133 -0.32735516848776525
Ni 0.207858905296809 5.185070690256802 10.258179670880802 -1.675843240753933 -1.723917984773973 -0.7822915611623301
Ni 8.760836089780703 2.428872712576175 5.597594684607911 0.5169953667888387 0.21356457032715478 -0.39017030404177316
Ni 3.9365375734855865 2.7879089192574975 11.403279130894417 -0.94757518499591 0.2386968466184083 -0.15755823016486414
Ni 1.148701364899518 3.3118165734035494 12.481933761589639 -1.74428292158357 2.0560584904655235 -0.6201130586166353
Ni 3.4497396282699917 8.443381298322707 7.898475711151421 0.07862433467212265 0.29014025000036486 0.9280484278168919
Ni 5.648892063300906 8.016551479367987 3.396362724374134 -0.4184421544032729 -0.5729433429093681 -0.3241567161551256
Ni 2.975402474370502 8.558927644056947 3.441604213020506 1.3860971408681937 -0.43185508537506917 -0.29979525659162565
Ni 3.578864691893553 4.424480711776185 9.286225223857116 0.6579591829301313 0.4458740253619805 -0.20832466208445413
Ni 7.310639925801803 6.558602540047995 11.472971400575497 0.5720923077629825 -0.6462874030191579 -1.2392503835835624
Ni 7.82144148142282 9.156636629703197 2.0380646691306596 0.4796794039471996 -0.33003194398898006 0.804487380533079
Ni 4.674487266650071 0.06832621794161232 1.2570066366428447 -1.0215036568542601 0.8910646515036912 0.33384540419779923
Ni 6.259034573761475 5.813427223910278 0.016368081022008305 -1.2194474899250225 0.23707910850932717 1.3890490244076659
Ni 7.9267538001534605 -0.1323470552512488 11.229935981324845 0.05108627715285395 0.3347535178343654 0.014788214052768079
Ni 0.18476781381781832 5.062389609888615 5.778401584599647 -0.7639331132598004 -0.08414629293161638 0.05283668418505739
Ni 7.252253256644504 6.157539565280845 2.6633718990010915 0.6940903814350498 0.40359120543336946 -1.618682475272225
P 8.660168165187576 1.4027251843698438 3.658141136952338 -0.020913610224215597 0.415557119545994 -1.1302237824704986
P 1.8827792148104205 3.0877768170636615 1.7548429706647193 -0.45186675261030573 1.7954561020232758 0.07684461706388056
P 4.828688423082629 1.3480740259571968 8.224424926799083 0.5342382130296864 -0.8131142029701415 -0.5456986482608022
P 8.722772053287745 1.5254335312398168 12.350332899603929 -0.25625079634177156 1.5469132158487229 -0.09206477644774468
P 6.409909216976167 7.78053263991021 1.0282361422431225 -0.11887572599300171 -0.3492972199764952 1.188085173563657
P 1.7994527853530535 3.5175514182112457 5.866862296343278 1.479983029685077 -1.3641987981332053 0.25295155676520953
P 7.040501603776077 3.8383963447246083 5.663894092583447 0.21996533164717602 0.989871888881592 1.0369102212173176
P 2.2800248793275606 8.519572993146125 10.074606129841202 1.076668474951862 1.2635077134690305 0.3203080318329967
