# total energy = -340878.733299996 ev
CRYSTAL
PRIMVEC
9.18492279050614 0.00000000000000 0.00000000000000

0.00000000000000 9.18492279050614 0.00000000000000

0.00000000000000 0.00000000000000 13.44306293012680

PRIMCOORD
 96 1
Ni 7.580969068592806 3.698410273838853 11.802955773744557 1.4598389506370344 -0.22444136514065863 -0.18441365979481142
Ni 2.2431602611066688 0.31638936807591855 7.243619706266388 -0.5534155572890856 0.5396832953046576 -0.7482365284601501
Ni 5.837092035997481 2.5842423761339646 4.257767491129947 1.5420708001547572 -1.2857300152023405 0.47240703865550254
Ni 5.730537744454956 2.093198023539666 11.705439446418723 -1.0576065732244042 0.6690460368719123 -0.036695555648820675
Ni 3.8707745385649126 4.875577558294037 5.516656709346916 -0.31141535732905723 0.5419085850907506 -2.1541023673148385
Ni 1.0244495699928484 8.19996858328338 5.142226894440002 0.8150697840346157 -0.6150384723072053 1.0367461848356272
Ni 0.5406686544946476 6.578177546997274 9.364867566108247 1.004129684352187 -0.7540659906577336 0.013223440668809486
Ni 9.502445772015323 0.022814430201058274 0.6415310492637128 -0.3478003237159945 -0.4125589561496185 0.09841771524896598
Ni 5.668061898314774 7.657562141360077 8.45001341565807 0.3164097252198551 -0.6816354435011487 1.4192941964454524
Ni 6.9437191119321415 9.348414613566213 7.4940640827909 -1.2593888062046505 0.3706875127268132 0.8884706655242698
Ni 0.4826346371097422 4.055538449319971 7.397341332810924 0.38785888229977716 0.07127689316811595 -1.5695728622297676
Ni 0.12663437017111423 2.6565920144824227 0.5253279961260308 -0.2763267411560402 0.5984970230087563 -1.605169528387455
Ni 4.951169474456004 6.961721560981651 4.539426828417089 -0.5942796424932991 -0.2675181417254748 -0.07877422998642562
Ni 2.4360895683948964 1.1737780478739246 0.546213592500356 0.5053415845999942 -1.3428954086697389 -0.5156697059988796
Ni 1.825567737618962 3.744298149069131 4.5532730998161375 0.11630436572139968 -0.043456528521738064 -0.1705423011293579
Ni 8.935506400800572 8.552733920346888 3.194985563553824 -1.9117987771817784 1.9307241533313717 -0.6885514538946916
Ni 8.935056339574334 6.312696533054931 6.627806441359116 -0.19652047036067444 0.6804434800755765 -1.0969123128025626
Ni 4.883412297599767 7.127674749464569 10.9567552486339 -0.25158295855245705 -0.18126508686350074 -0.28448639414869714
Ni 4.950489790155156 2.9031061624618917 1.5244032978820565 0.3585729888514663 0.19130678737021892 -0.1359049135611466
Ni 0.862874834296614 4.384781198620319 2.3635323507869894 -0.7026012471195384 -0.4656365527008884 -0.16515584000646397
Ni 6.92932633761552 6.301720550088521 12.357657153574836 -0.9353668158551761 0.5135878837691864 0.9084622781548484
Ni 2.7238532054975 6.012937386534645 12.205575035783024 0.40180326029501123 0.8154780752166277 -0.9791575877878814
Ni 5.831360644055189 4.594280106972482 3.028170829294965 0.5297410964902812 1.9880522976288793 0.44873900561460134
Ni 7.066622566386975 5.550109117348556 5.1700269008370165 -1.4064075702907715 0.6192841349574367 0.4670848551116407
P 5.038104770503758 6.171965143087293 6.9666391687475215 0.21707438325262615 -1.1928160033804232 -0.8672883750196999
P 7.129208631602972 2.3751108647011785 13.53272843860497 -0.9853148656385289 -0.5975272028963193 0.1995733982543853
P -0.014766600682089213 6.8245814759009304 2.083620904343787 0.02216882278755537 -1.3603984505505087 -0.7676712401459941
P 3.1096750803820177 8.372792094158664 4.34513447855797 0.7721675853544508 -0.9752232857304818 0.269787911596258
P 1.6642896749351253 5.395131911832046 5.998724636708517 0.5097091175400705 0.11669774450507643 -0.8531385658818791
P 8.058355440709237 3.949002527623415 4.106143700995059 0.09644825022742098 0.4232156645325163 0.014986188996187092
P 3.5357820274763028 2.130608214855303 12.371355547713835 0.5718984465846215 -0.021624777358627275 0.09214165243226712
P 8.040628539349262 7.672065134752513 4.901582830739891 -0.772143931205367 -1.1746251914040093 1.4040771223853818
Ni 3.13717473979744 2.6444403613740044 6.374673637877057 -1.2568341581035967 0.6985396754556551 0.42397491129604403
Ni 5.052065853440111 7.6690249252446625 13.431475684609065 -0.06610331938697647 -1.7437147077849262 -0.2929980311641341
Ni 7.3076808701136855 5.10405251753206 7.864367111800903 -1.1897602472732347 -0.991541563274531 -0.7653999276133141
Ni 1.6783334221783388 1.1754405189341088 4.3175760356354465 0.10254150760935242 0.30555941276891246 -0.5179603018052692
Ni 1.2807272911047805 8.518363938539101 10.800076076888374 0.818717408089532 -0.9747370901226825 1.10290555427152
Ni 3.8147005837448877 5.219993800364685 1.6991225768613274 -0.5371816119287265 -1.2766841029499885 0.31362702026839534
Ni 8.338017975739561 1.77026531632963 3.8723277090415817 1.3054508906700355 0.9689677917390732 0.3668974495567616
Ni 0.10746819137947679 6.38397153541421 11.871704003790814 0.68706458493652 -0.2533233382823315 -0.2696909810070775
Ni 2.434583241025448 3.9105911797024735 0.193405086298822 -0.027533686643894516 -1.5754730297642867 -0.9406622599261606
Ni 7.217328782715719 1.3580184180188695 9.991099289156772 0.40001454382570467 -0.7408350937897564 -0.6608046227987264
Ni 4.625426180812728 4.578031978213002 12.976736577095377 0.9923067235753298 0.031870109235719306 -0.6514954295826587
Ni 3.0626207199327156 5.026430733390531 7.705738899398079 -1.1548397812469657 -0.004802820705282051 0.24647751900509166
Ni 8.573445921676807 1.8547849776324759 7.956209912199246 0.6693286011093376 0.5590411310059792 0.1993975347981534
Ni 5.273789894284569 3.7258456387933845 6.9808216083278 1.262661049198019 0.14827371953914464 -0.143491724769469
Ni 1.8295723640401793 7.161787553428791 7.2499517921718635 1.6256817894081939 -0.1282993332997468 0.47038023803346085
Ni 2.6284769652270423 2.705685427834271 2.205374406440968 -0.38948844748340017 1.325634564706762 2.1195516259231626
Ni 7.99696341548122 8.2609472869771 10.168440863648101 0.113451726763953 0.25682646633958345 0.6051680072710287
Ni 6.296292260604715 8.843473472496452 11.88498540242632 0.2952163789716916 0.6703164189439036 -0.5897424167445778
Ni 4.695158116110621 5.257183553528695 9.332295073728515 1.0374015590314394 0.6573829987116871 0.056361923729496485
Ni 4.232844202611661 7.393807892938809 2.0607412611895395 -0.618665013316199 0.4166560090371276 2.361911523215455
Ni 4.157325765833569 0.9155200573665466 5.186455054086991 -0.11265725588711566 -0.0031750552938719515 -0.7100589889491643
Ni 7.694595750833352 3.4512439963274884 2.121906418819841 -0.44097453117783403 -0.4654126096155404 -0.2947091003179699
Ni 1.8897887191261884 8.266191878001218 2.5252522082663784 0.9738215202869487 0.5611070123960723 -1.5029177841043795
Ni 1.4011048917388922 5.952013792378834 0.6552211769720254 -0.39752880128937346 1.2942817614270934 0.6592606753503742
P 8.290045122991815 8.242099825013023 12.555229439431699 0.3891673166985556 -0.7161332201677021 -0.922413855238934
P 5.891448410219416 4.80798571005152 11.158052020760955 -1.8900606141737386 -0.23210736632634865 -0.6421893216903843
P 2.821277683593488 6.352908125880823 9.923172191225321 -1.2057126568374332 -3.259402132850148 1.5952931498140075
P 0.41720675672236 0.884653205185027 9.838991453580602 -0.6654148678772283 1.7354761219252175 -0.5995516895255157
P 2.7933279629518273 7.786215357603173 0.4295099610600216 0.050072491176358924 0.16320000183167377 -0.6941957966646625
P 0.5522719677008946 4.273239493897242 12.54032139093565 0.5171177512993159 1.089727365018349 -0.6333897211208834
P 3.9977469139018544 3.22451417245651 8.561228137122901 -1.5730019425159747 -1.390065124377006 1.7253500892348093
P 0.7600073708400448 1.5656527870051906 2.1225254826289928 0.21678436281603308 -1.2277729790715823 2.9622111466505885
Ni 8.386146972178043 0.5295245874376228 5.819623230973368 1.22968382294105 0.103342406244093 -0.1912095996707223
Ni 6.458562294970871 -0.18706840793185467 4.368364067277925 -0.7328801006087378 1.1027186350716944 -0.17637484865073497
Ni 2.2649377135027833 6.099799203198523 3.351019953705842 0.9457633285981518 0.05211240442452316 0.8636731468646158
Ni 8.431272498800613 1.1748251290941512 12.003189850282313 -0.22797406088426542 -0.020494006188293737 0.2675171132842103
Ni 6.8112725224964725 6.929510036075209 2.9126143947353875 -0.1333446090331381 -1.0495613343224246 1.8931649641306751
Ni 7.46306221224151 5.878396634658523 10.07436612696454 0.04531235078355422 -0.7013753451322373 0.20375478332558455
Ni 0.0606158992358324 5.880950043248197 4.181168907408885 0.1397343146095658 -0.19893679311165094 -0.11215280544687137
Ni 7.560670388797187 3.356574995126833 6.104508313212648 0.18877913585235875 -1.2232552937068868 0.32149793837603985
Ni 0.16574560922346995 8.64919398152951 8.055056216373226 0.04247565266570749 1.011278379581826 -0.027060089441585656
Ni 4.367541098178519 1.1433943226413867 7.720162902452848 1.2767370676751109 -0.22260688303508117 1.5775844196803346
Ni 1.4536977607478132 2.0635858318378215 11.672773267824551 -0.26176812661557497 0.6155179830467851 -0.2158970751150733
Ni 8.172652622327648 5.1653618784532185 0.6900145837293944 0.37308609486597677 0.9568810357778681 -0.4717087270368973
Ni 5.2441409628907865 0.8983121041551925 0.33357619596440846 0.1336924792908601 0.3514674881549366 0.22550528762879876
Ni 1.4719849424098395 4.443592260489708 10.381728552731348 -2.472586715675535 1.1835659455370648 -0.10636422378955229
Ni 1.6417682437772707 2.6073608272858078 8.872502421588784 0.7601263379192006 -0.7510678272613581 -0.07253339128303637
Ni 3.2395315215360743 8.086002058892412 9.190605696293598 0.8431580576303994 3.166064146116934 -1.6328916768930717
Ni 7.141580722863016 1.189622040022089 2.066991601280453 0.44401280378352564 0.10437753237682668 -1.353968892875081
Ni 4.345111516250509 8.1325328787316 6.538208436138172 -0.9418701641913327 0.45361510275998 -0.002691173678917946
Ni 3.699484909828033 9.072563821574432 12.19287136880324 -0.9444209556376446 -0.1538401578833286 -0.7416683883243291
Ni 3.4509960034069085 3.8164732738808853 10.97564312425911 2.024781534729113 -1.1418279423683302 0.04921657093396685
Ni 6.080905816619524 3.252206715254606 9.387546059449134 0.4968721136764023 0.7911585246346567 0.14914249529734314
Ni 3.8519087067548665 0.7439107933098082 2.7324502934109387 0.4380658421714713 -0.297490519717849 -0.04185678813478598
Ni 7.236010916066076 7.8714238881298515 1.003127689776762 1.220900677431781 0.3778043262772526 -1.9371701660670315
Ni 3.1542954362404423 1.1841937505382831 10.165133372881403 1.0564385210582323 0.3713842816835217 -0.3295138667019809
P 7.839083774301627 7.144519898218038 8.258329583926534 -0.8213142222824307 0.5474148596209605 0.2119339767022673
P 5.91454849152529 5.5201662684192705 1.0159287169401805 0.6764698401398092 1.009270605123178 0.3397126616118537
P 1.0042427394270734 1.9695873300150302 6.289202418553024 -0.38946479333431633 0.16116034569382567 0.3394064432253445
P 5.2737347847466625 0.15879997046263408 9.950676443102235 -0.5869813090596729 -0.001839367201583929 -0.04113739347025819
P 4.114698538262768 3.511809378486906 3.666488074006421 -2.63227741880237 0.37837074030368384 -0.45538453595557704
P 5.9036092482508185 1.6599635762094527 6.230012937856675 1.4760227594857482 -0.16618582393287507 0.26971052139110324
P 5.727653678637841 8.948328553286855 2.138146281148635 -0.8949786418461168 -1.2649917542137246 0.9629110440220322
P 8.626231674068404 3.8301128845127828 9.221322834230472 -0.7679337497787614 0.08315513266294065 1.0257871147209623
