# total energy = -340895.0534474716 ev
CRYSTAL
PRIMVEC
9.01647617270054 0.00000000000000 0.00000000000000

0.00000000000000 9.01647617270054 0.00000000000000

0.00000000000000 0.00000000000000 13.19652427813129

PRIMCOORD
 96 1
Ni 6.393087476304543 1.9239808067629627 11.36310539133103 0.12353636469346467 0.3134053911758925 0.7017350424645011
Ni 4.748707601273986 0.469383332618455 5.961952036379055 -0.5448242160756488 0.46929471827876595 -0.3281648088732542
Ni 2.4727506070863883 1.5195557763880725 4.708691577568033 1.1737957535241785 -0.28573183652002404 0.7146898028529562
Ni 3.405802629610238 3.9651577731730656 4.710934876884868 -0.7864302659210521 1.6618592677700155 -0.6196160643755586
Ni 5.085229548228149 4.353317080205638 2.883334792458583 0.6780053029477292 1.1485668037540606 -0.7376548962895618
Ni 7.128227842861727 6.028740683322447 2.6927111543287214 -0.17424751789508702 -0.5873829153734659 -1.3286170443738539
Ni 4.847744577544503 4.389166590188484 11.411944938796847 0.7234202407474186 0.945024136439282 0.35028760891422256
Ni 5.5059653843271255 7.661768814623525 12.366898884031796 -0.015003672497683838 0.5650734532429881 -0.5782984365736943
Ni 1.9855453073069442 6.264467441117095 0.21022455607546234 -0.34707270152135067 0.28387447159631113 1.0428486981889393
Ni 2.755471239637221 1.4859062866355626 0.27381776379905665 0.2913718084146208 1.1604908088851562 1.6687799061492488
Ni 0.40587668306785746 9.095821345748186 4.7938224423580325 0.5313274671407946 -0.5439500410008116 0.0037126729648968323
Ni 8.70753580804666 2.4422659005340743 1.3577109274843797 -0.005044761512759054 0.012051274737579245 0.02628284495592893
Ni 6.993765130996994 0.8283337645027812 4.8302706463707725 -0.8494122660702274 -0.6086672786735388 -0.3637740734364316
Ni 0.748776885394723 7.420587088634809 2.50068906071638 0.6078820637680822 0.01545310133027661 -0.3147511065705096
Ni 7.790469998098159 3.83532051367785 3.8546915114764277 -0.6260854741499863 0.11332240027494031 -0.2797031138274409
Ni 7.766666500524035 3.920517198745231 12.645582840119015 -1.4417260430864074 -0.7720603703526251 -0.22265033467850684
Ni 7.948429647340984 9.0016803161378 6.983614381917847 -0.4133629401081526 -0.6000036894612698 -0.4495990396220515
Ni 6.811325748453507 0.40813711368976374 0.241735337636843 1.4385718137281418 0.49524357693404386 0.2816460964864246
Ni 1.674585070815902 6.805906846164853 9.162927372659235 0.6624681265440784 -1.920913852109169 0.5971579924823586
Ni 0.06539920793726736 5.0146846372357485 1.4927245460543321 -0.23046648828881597 -0.8494125231805435 -0.7714412487113875
Ni 6.248030404724055 2.1408991948835117 6.930088971690944 1.076350686601127 -0.3838150512477067 1.2283496775106586
Ni 3.574636149335788 4.2463816706491615 0.5799280376593715 -0.3865936424341084 -0.19647316206250678 -0.4351586958270054
Ni 6.0310939836507975 5.660525821984556 4.810278413351416 -0.7450879555288393 0.02164920283865949 0.48749324356466367
Ni 5.161599102945128 3.13755344160731 9.404741153640355 -0.3800900369876357 -1.8868341368166408 -1.3774551489224793
P 0.1544089608546856 5.5060735820433715 12.302340913338341 0.5853851682171467 0.11678490490224402 1.0368464578589176
P 4.0746538620140305 6.0950568669048995 12.563486921269718 -1.747228120254823 -0.6795644199047329 0.05577699776030394
P 2.379727620543879 8.475487772604376 1.4209227382582068 0.37628249031608746 -0.5366632775314112 -0.561232482230343
P 6.431696028051663 7.738480995441949 5.7911231704364 -0.5874569631445108 1.0525800665440903 -0.1632892191113704
P 4.8499716472039 0.9091042613280654 12.73942362106682 -0.958798050294923 -0.023248686115295444 -1.6730708202151185
P 4.02480176425368 6.285277468541745 8.038095799736963 0.28454604374203896 1.253575541956983 0.3772422831261955
P 4.694383331242134 0.981290171016864 3.7282291190804515 -0.07273368021930054 0.6884779203442788 0.6743630782094515
P 0.355427694572883 5.607707303503794 3.5912625317322586 -0.9300515742898497 -1.263006605462896 0.6875538658681126
Ni 1.5399420294240922 1.0907772433814755 2.5571700718920694 -0.6815737370252778 0.18891103344453272 -0.6627095531309233
Ni 1.7513423340160945 6.6157854257679 4.900305224801546 0.5204128771108198 -0.06573462319364808 -0.17087628743000893
Ni 5.7929147442879065 5.54369032139157 9.252254505544308 0.6039986695532759 1.1265890139313888 -0.28445605513139394
Ni 8.547745814104006 2.377689896887912 10.204225800401408 0.16213865044669495 -0.17935321455276856 -0.04202622383311472
Ni 2.685223872364497 5.195023180788791 6.74900656883871 -1.2635437089132884 0.3083935397835979 -0.00773747785357377
Ni 0.5543257530526585 8.966966882175539 9.07680740041322 -0.3366713036823686 0.9268032425558813 0.35787827677728684
Ni 1.4853472651016246 1.1427301801322696 11.411852970738037 -0.36143565511124204 -0.3962951859925885 -0.7522464209504915
Ni 3.890447250105193 6.8043379792792855 1.6698487157872328 0.9892239708849478 0.05903869923071123 0.1335767796486022
Ni 5.687611316951474 7.99050954248433 7.924315081332654 -0.6401756336944652 -0.5707280804256042 0.19718870007229264
Ni 5.357094343248965 2.9332310709530676 4.90361697656631 0.6441042793249101 -1.0211876682757381 -0.8088096620575168
Ni 0.6619094472589758 7.369995639813443 6.955650682154064 0.4277228083742505 0.07173480664114097 -0.15739727910696763
Ni 5.084084455731212 4.655891993687614 7.001534628671092 0.7779368837380602 -0.30805749660041787 -0.19454123514711658
Ni 8.164365239538967 7.131365576632861 9.305898933259082 0.009922658430350652 -0.32744618553967475 -0.5832025587435311
Ni 4.563950984307565 0.4068964465434761 10.498587605572677 0.01813733303065908 -0.9725495955530605 -0.49931517590025615
Ni 8.072171768821008 7.162697831962436 4.553302525733685 0.5380635003130475 0.03398946957156727 0.519305502979254
Ni 7.45329886484652 6.232567147777228 6.934127451449826 -0.9268780616578748 -0.5124915653812141 0.7234050712387671
Ni 2.30556710253359 5.149886700161496 2.5543722592794746 0.3231640132245531 0.24784637432816023 0.6812577484467558
Ni 2.3626774637587777 5.089124666013006 11.31904187138984 0.40680277039213164 0.45390640874815374 0.4293819412442283
Ni 1.1073495269198235 3.250160214790348 3.561940048981954 -0.31126854733854775 0.493476457731292 0.3221044616117872
Ni 3.6235865994607552 2.6364808011956677 2.681968924400763 -0.6722714857877454 -0.970364929196916 -0.7338576340306587
Ni 1.3720372067629873 3.412727283449983 8.136831625697262 -1.421888696645506 0.518549598649836 0.20277442169018628
Ni 3.5298332783335846 2.8039888988972046 6.998855833546368 0.8644812445882081 -0.34120107323192206 0.21884638755138439
Ni 4.29145503594198 7.1653847419158785 6.0128383239771885 -0.9230103511723524 -0.8695848843633605 -0.8548671185372115
Ni 0.865655665074208 7.307231947914402 11.514363995347686 -0.19775100033366588 1.2904323057740164 -0.7300313183060331
P 0.27463195161380793 5.567349555344031 8.19575429866957 -0.5477272486550567 -0.6035147879383218 -1.2132305624810331
P 8.528648917186585 1.6649194081645915 8.1023093410337 -0.5651899242161944 1.1822076317369574 0.20844190438860877
P 2.0182210176132402 3.2254640860571953 10.303133841060067 -0.8654587780101289 -0.22827667972634882 0.41899237047978805
P 3.765028064023356 6.150661476578997 4.016704968487937 0.9055780146285177 -0.5146813739436814 -0.6523644624511733
P 6.80469863833344 3.924502481293626 10.44679155551044 1.3906899024451984 0.4966065187198415 0.05284825414928318
P 6.278803638519692 7.725497269492428 10.117195164043657 -1.07960004677636 0.2928514782839408 0.33162782772119015
P 2.342056782337558 8.59572248478276 5.849584199819392 0.12281954113209814 -0.4818944093206475 -0.3421996896997655
P 6.952054911384156 3.8189646255719936 1.7154558564801983 -0.012893568133216505 0.9893684668826122 -0.09711956526283275
Ni 5.398173409517035 2.654071946561999 0.6650760337544424 -0.8042418401811763 0.6864524052738178 -1.05753381100494
Ni 1.3324999579514232 1.1155184544963974 6.989380418546124 0.5332704497997783 0.3548677720857372 0.14525935819285304
Ni 6.649993937054348 0.7761950883390981 9.094978305209102 0.2483729362555916 0.6717351536683012 0.499660732165133
Ni 2.6107207282527627 1.520457424023456 9.14946757675823 0.7506073426851719 -0.3344002482600047 0.015743893097818047
Ni 6.462343031178345 1.754696463219721 2.4871228703944004 0.5416687011658026 0.19111909683944503 1.3829879058152503
Ni 3.8537772407741486 6.802480585150396 10.442739551037025 0.870405837602759 0.8511883841340436 -0.36989741272535004
Ni 8.254548036030018 7.164897852192771 0.3427992177917025 -0.45161478450049963 -0.3095363951387895 -0.11477713044359587
Ni 7.7056970874194075 3.9270992264835307 8.10455354199817 0.16911842419863776 -0.45639935037333657 0.7318382896077847
Ni 2.9758519546776427 8.401110859161596 12.490338953553964 1.0079619136140834 -1.010996329565033 -0.7192866781950192
Ni 0.2146606624415489 4.725120499132355 10.232044334895894 -0.5214616300903083 0.039916890799595775 -0.3201982457280098
Ni 8.769388835833965 2.3604053117176114 5.667854413964953 -0.6236817498045001 0.47257338903003776 0.09388511748593507
Ni 3.7107128104678577 2.4432757458857037 11.48046204425727 -0.26419936176488695 0.03950911383821583 -0.006988772613007318
Ni 1.029654550178832 3.350270151746972 12.409827229600037 0.6564779703989145 -0.18331939828936816 0.40112166084695433
Ni 2.953283714363995 8.342548845243442 8.00421999642797 1.5718472600862414 0.37151746482727627 -0.8381932574259565
Ni 5.5677552967799535 7.92579829169286 3.4817709511294703 -0.17848392457393777 -0.7585947317660224 1.2758932316175768
Ni 2.879447789502445 8.368777774956746 3.577578225570044 1.5360004255909612 -0.5366501649052887 0.3629407789018588
Ni 3.382404873472038 4.60951123932349 9.129725100133875 -0.5592812720412432 -0.41612327646210917 0.050313917763203674
Ni 7.187402977171942 6.063598380906371 11.326234314577297 0.11107268500881516 -0.666082326257898 0.4123342417333221
Ni 0.5655665941229839 0.2196711183513747 0.39894932428520646 -0.09977860015223461 -1.359943108180645 0.396090269070634
Ni 4.782158728546712 0.18154404644155037 1.6489322939416078 -1.304102347061941 0.21692063128358127 -0.7899022836300524
Ni 5.837248758519712 5.215229104297735 0.35174716892524777 0.7208002866260683 1.2360365046319552 0.7853473172695185
Ni 7.909135843390974 8.795175958205931 11.213839428588573 0.2282895352421552 0.07720765683025413 0.1274611536691676
Ni 0.13857512672971695 4.836230537240657 6.075191766202131 0.5498023860165305 -0.38715260026137194 -0.8029022954341464
Ni 7.752961456466208 8.549567142327481 2.438625047382396 -0.09072060371502441 0.5222003080285458 0.1472797310569915
P 8.500652758107929 1.412521185591704 3.3457673234558665 0.16100427973193562 0.8445814203404874 0.6260962727832637
P 1.7738384425189115 3.27466699752007 1.3893172836951109 0.6219436840674708 -0.3190913858170763 0.28225210550153973
P 4.570623176809402 1.2863536319724984 8.097651429349309 0.7486677024602977 -1.2040681792554746 0.8859319582628161
P 8.538756387179234 1.5928507126683928 12.414208335460364 -1.1536519315864517 0.7691115721369465 -0.8814379270472045
P 6.207032486743169 7.4724047782402945 1.232033870178823 0.3884409800554923 -0.703862116109833 1.0842177480540296
P 1.7918984446556419 3.2319559490319563 5.883776481448403 -1.2923457207466453 0.17198494711315543 -0.01627251190777843
P 6.979455983023459 3.964797114118912 5.989796718654966 0.5509704381827027 0.819957194033904 -0.4314959022634375
P 2.4048835895710763 8.526746440675925 10.21318637460185 0.16775316841999496 0.8129982462175676 0.9012999560784543
