# total energy = -381170.56418786047 ev
CRYSTAL
PRIMVEC
9.19313390311598 0.00000000000000 0.00000000000000

0.00000000000000 9.19313390311598 0.00000000000000

0.00000000000000 0.00000000000000 13.45508072342165

PRIMCOORD
 96 1
Ni 4.121861004239934 0.9775242923765801 0.051565206225496325 0.6159869522634036 -0.7611933457311342 1.592831318537076
Ni 6.489672098899953 0.4671380571038358 0.9673539285664741 -0.14368610016846223 -0.25680049819765455 -1.242246747207725
Ni 1.2126386867031331 2.377234056700477 10.466141855079151 -1.3335468775753034 0.05789378699299062 0.04751938573720203
Ni 2.8388304928111534 5.940198497770018 2.946447154506774 0.2029942510104762 0.14184081942960736 -0.7594143994538405
Ni 4.6966249161730875 9.300141774252753 11.536547135146815 -0.9428680093282278 -1.813008509084742 -2.020476736706172
Ni 8.92407825406834 9.10042094466353 3.8145152391347623 0.6750467345400375 -0.8773251904304117 1.1924809886385075
Ni 4.342054942574619 5.330868403132354 0.18220055538755894 -2.1535740056151944 -0.07719917218982189 0.6394408124109697
Ni 5.094191176077139 3.3109898395408415 12.7908435878891 0.036971435018026653 -0.02498675185232471 0.8519944249751069
Ni 5.368716534567052 1.4123687094260535 4.143034629773186 0.3092147501333126 1.1670743756399447 0.7119675188257868
Ni 6.611756914409498 3.5244635971422835 10.79976067697986 -0.3552439244782334 -0.8175706960795983 -0.6345536595219975
Ni 3.978714719428252 5.620157934341267 10.844592832084935 0.11421020219653234 -0.7524225415170396 -1.0434503363286805
Ni 0.9224941940603046 1.4753784477922 13.081554377567725 -0.0769132655182869 0.9348186566611901 -0.90550216708526
Ni 7.398293854209963 8.257916206909591 2.425224053230818 -0.6593424364309032 -2.1862015618422284 0.8438085467302049
Ni 6.47814390924265 5.653400305793264 9.838597404645624 0.242903171390272 1.1724477241367164 -1.5023444280994127
Ni 4.535515248115499 3.3954931244929303 9.02745780044255 0.27889810142764226 1.676272872092184 0.5556966400137784
Ni 1.6797785824337086 4.965514883706122 9.960433086231953 0.5984646271089242 -1.002398817704009 0.018673922260419456
Ni 4.701653560305898 7.788919298172018 9.49397164376829 -1.9915101742704926 -1.3446581569971165 -0.04007141409958905
Ni 8.401604886609455 -0.048867021485131 12.331782618052335 -0.31641461031586154 0.7263906362296522 1.3539645219997067
Ni 5.364257864723519 5.890288974923533 7.719206846026655 -1.557132836694202 -2.071445000223923 1.2865584246409068
Ni 8.546801240235792 4.92745531019637 11.199134306968938 0.8555147794235396 0.1641734214885366 0.1059711021161917
Ni 6.06137319304346 6.392767276589251 3.2066413368748625 -2.8292347195901466 0.18314584882598137 -1.1837546645091033
Ni 3.414385014242337 4.2838164405977395 6.712093533529666 0.9488771916367851 0.08654796039457352 0.10398286804156931
Ni 7.429679212654962 4.409541737051696 13.284954299262893 1.4644083151752716 -0.11482161052828613 -0.6133335738009565
Ni 6.01453417685211 5.650614786282768 11.961189931731608 0.3276441604830938 1.1478769767758876 1.866896260242133
P 2.223561633804576 5.117367066129817 0.8955987621134126 0.6390263505813705 0.4506441930571143 0.38225927672481264
Ni 8.20175535314846 1.425432152410923 10.12820409896712 -0.8605772815481115 -0.5019400151176129 2.2710631356733146
P 8.589540118797832 8.759309718798944 9.024994959924852 -1.4903995970327106 -1.4493028269924009 -0.7827682436884326
Ni 1.6449182194508625 8.413877720096297 12.484794054635348 -0.8004993424196084 -1.4959940604013526 0.6664569359884973
P 4.145248336367666 3.1522887725121302 4.876376420743498 0.5325346000750183 1.123989885745645 0.6256725549822837
P 6.929103889664732 7.573717231435351 12.853812876466975 0.600857809931449 -0.4403320124978287 0.4783460298477568
P 3.977023182827818 7.306178654555923 4.124654797570758 0.8826124069712801 1.0980878211679024 0.14221517204989056
Ni 8.914820768434446 0.27869444462195964 1.4317147399801415 2.036390322612635 -0.41060954573273156 -0.1793928095414523
Ni 6.380503636236107 1.2579976083691042 12.114092889336987 1.8313183631375234 1.7430045690917788 0.1103743733902099
Ni 9.022058673021709 5.845288585471783 9.093293508107463 -2.4025897176611073 1.8648812866946336 -0.1848959987478687
Ni 9.003994165305123 3.4765122117734744 9.029005004843924 0.09397510609658008 1.4232935474128325 0.7957242896284683
Ni 3.197123685557315 1.9883920806758353 3.395187912454156 -0.6900331806465407 -1.4917260291536178 -0.05733328650383029
Ni 4.6486643376705805 7.43153622566196 6.369218145308433 -0.24725964858675478 1.0179627335805372 0.08123091905703429
Ni 6.42705766528282 8.13295394055257 7.952679346674743 1.463057971794964 0.10941638035231478 1.6630985394937552
Ni 7.390442918031864 2.0548952098472246 5.598537522510292 -1.7869961441813806 -1.8309036441976079 -0.736925474322705
Ni 6.713341041772486 4.188860562631016 6.005110295498282 0.6788720218233986 1.6635705940341672 2.010345047588809
Ni 2.5114078430229028 3.565179986290761 11.805406765338645 1.998606676105958 0.08285122826927666 0.6921427707903758
Ni 0.8192718502723318 7.509429647485181 1.604101625145077 -0.6807507269033501 -0.9301994127216239 0.06920869778517759
Ni 6.536281286748852 8.056034990901336 10.816175936511023 -0.9541111863422149 0.779313966591245 -0.32993064252442533
Ni 5.376300869867909 2.577791461456218 7.016380743053509 -2.1000541793201832 -0.24517345548168742 -1.4702956271939838
Ni 8.212318263767472 2.2021048597534256 0.9157795292072797 -1.097170965780588 2.5911796203207955 -1.8023394594066702
Ni 5.43850161246863 7.367625560193408 0.9707158575598355 1.247791588285354 -0.6124079766628937 -0.7086356262390763
Ni 3.65646780391198 0.020111818591131966 5.388625184903458 1.9873958949918034 1.1691597974140637 -1.3069264467742974
Ni 6.546071974137232 3.800147290478146 3.909951917993892 -1.1542553694984057 0.29881155252211766 -1.9423987614558227
Ni 0.8480886471621075 1.8776607852833296 3.296454575850921 -0.9533300852018163 -0.40852900905461903 0.024597743944022154
Ni 4.95611030793306 5.5024582436056715 5.10974136172732 -0.2968156051380114 -1.0308547590518569 -0.5071755524849394
Ni 0.2618921541621106 1.3398440776824692 8.21089516667102 2.1613359089488005 -0.7465575980958304 -1.5727304340221429
Ni 3.0738437626670287 7.743339741297295 1.3696463785046713 1.2596353749978177 -0.054397086693641794 -1.556298770828681
Ni 7.364334418329522 6.35456061294033 6.949656978673368 2.6136148093958598 0.03390436605692871 -0.6095008303184277
Ni 2.632343516820197 0.9501011745554224 11.533345166679798 0.7808412018690488 1.3683444448704627 -0.1440069738429907
Ni 8.915519446595496 3.288816001061246 6.738317866716604 0.5403728651725146 0.3041141956819537 0.07979495794145613
Ni 4.147509847257376 3.8817087726468724 2.5913136418126177 0.6543125873164796 0.31080343477667116 0.45084448199337845
P 7.119631585555946 4.4804299909970355 8.182989409330716 0.3356521183892348 -0.6296266545340252 0.03583577875168667
Ni 5.03557575561864 8.809274400447618 2.6923618094810116 -1.3186295941438386 -0.24755661100188334 0.9188518489192886
P 2.1034533420401025 0.5258481668394239 1.0909013716473726 0.41998327363814764 -0.2796604335149635 0.4894364833339635
Ni 5.41469139619079 0.8419733746261927 9.323428901223176 0.3616045765889385 0.8027747687173464 -0.3532019543475401
P 2.2081263623256207 3.3668932855584277 8.25727544549084 -0.7762492116229921 1.1053349896486189 1.047549188988402
P 0.3596877911281492 6.5502824293709185 5.743300879539453 -1.2013536085377892 0.1866592612958785 -0.22676589950877718
P 8.316338571560433 2.8912313548897988 12.026527371550092 0.6086238270301132 -1.6723403698069974 0.15277777805708526
Ni 2.6969712467171933 1.70210870418617 7.020659227476563 -0.05534016733320147 0.46675935345142194 -2.0679447003801483
Ni 1.8844085454176673 5.903582246250852 12.171586747484328 0.31084714353041304 -0.37556412409282414 0.35330197026051413
Ni 8.55516699190098 3.870952806220203 2.558133783669768 -1.0594855354146722 0.021568984420027366 -4.522028986376122
Ni 1.800925698306057 3.193464818345508 5.343873929374926 0.5724388924691238 -0.29652841291489573 -0.805443059578129
Ni 1.5613158616011784 8.881946122330369 5.7347972308687964 -1.6937108650629735 0.6651742126213318 -0.8011796563160847
Ni 9.07780583576643 4.059228184355406 4.4552729806324365 -0.1819060628816093 0.7363778293493511 3.8273163979760407
Ni 1.7487822439709564 3.8366624175266333 2.726443514039637 -0.036152538661157085 1.1906069115442464 -0.6542729923277958
Ni 0.7239114744228956 3.903082808494741 13.444989289991183 -0.8831076014401436 0.1027363972289779 0.19406352417974965
Ni 2.262779542160278 8.922846374152808 3.16867185607535 -0.17742591562306861 0.011994710468030955 1.0158310319495152
Ni 3.9120645001176944 7.294742396235601 12.56314345588999 -0.016152955610778633 1.2144976021189147 -0.7563874397020587
Ni 6.468868037341361 8.520444525923603 4.679420885770636 -0.434158279586949 0.1351991457433736 0.6653459623125058
Ni 3.0551173493241865 6.154214650259643 8.39272707739729 0.14311788636981804 0.8235425973923172 -0.06755059335646431
Ni 9.068180624784615 6.286071766890171 13.191885771644369 -1.3131246051652095 1.0791889273808706 0.17537314685909797
Ni -0.5752989523143784 7.515497115725866 10.86828721487818 2.5411454385815397 -1.8242624847320066 -0.9423278205540416
Ni 1.057237954672007 5.138400956030859 7.387377007943579 1.1232794899421814 -0.4957032901792818 -1.2587894820577548
Ni 7.50099035075041 1.7800756710789751 3.118698900606349 -0.21629431055349202 -0.8276630473185939 -0.3469449176942348
Ni 2.8532545195833277 2.7399031810868903 0.6760731645985716 -0.560326682586622 0.8755632134339825 0.7790756253281937
Ni 0.9113668250322359 7.595753172909476 7.518792854156602 -0.6944703904822879 -0.09725660506132928 1.6846253578219372
Ni 2.4103201448796074 6.144819267620278 5.330741537887321 0.4842626524425079 0.1319400153761276 0.43363557431425964
Ni 0.5608638937817664 6.189553056194785 3.579037716027138 -0.00763026285174815 0.13899589378164448 -0.25812307366382
Ni 8.322782958282735 8.950673989856677 6.143226097550414 -0.3521156632618968 -0.6805568657249892 1.2078631275215326
Ni 7.253060728048834 2.1844816224543444 8.19904154008081 -1.088400161566493 0.10437084750860734 -0.4227515804119042
Ni 2.9272040870501037 8.802333584505622 7.7557504717896055 0.7915051093407982 -1.1814748673359912 0.7224784456594396
Ni 1.3904982443584928 8.876080903031042 9.821038519282428 0.4044538105439809 0.6698248240194657 0.2355901826686265
Ni 6.0268805554085345 4.475585209538185 1.4191477262149648 -0.051839867489426844 -0.5809505294845608 1.9382582569248876
P 5.737526672263735 0.49950616154115196 6.854932767675834 -0.2628392481925667 0.313282492444783 -1.6965401069816521
Ni 7.836677627733169 5.95126703074242 1.8270387945752489 0.8765338048773679 0.5751028124545321 -0.3649938047761456
P 2.513595808843029 7.232707130041444 10.501474745134074 1.00639148380317 -0.7089940380197596 0.2756957924402607
Ni 3.025533845083997 1.6248312223207153 9.197637414206593 0.36240984609905325 -1.2458558047152222 1.6426469565076225
P 5.557414796852363 2.259185026884357 1.4873249250327614 -0.6091848417399056 1.0991239757419007 0.4313503778245088
P 4.644141315891161 2.3978082899166187 10.965298677539778 -0.7724424362823923 -1.127151057082446 -0.7952422077857271
P 0.21590074489771643 1.580547897297411 5.449227241554097 1.5160476366181181 -0.8207156694664833 -0.49677981107291225
Ni 7.636570686528631 6.278193251310978 4.6389214545774315 1.1046667599370008 -0.5016152847883426 0.7319064238415588
