# total energy = -340872.85845310544 ev
CRYSTAL
PRIMVEC
9.25425832231031 0.00000000000000 0.00000000000000
0.00000000000000 9.25425832231031 0.00000000000000
0.00000000000000 0.00000000000000 13.54454248946935
PRIMCOORD
 96 1
Ni 8.862322075217891 8.736223549875678 0.8022896055974088 0.3480358367655684 0.7297778075343303 -0.3201859044328357
Ni 0.35491654295955716 8.205899016391102 3.6183030688865694 0.2997790586417095 -1.0843085079956227 -0.06338129247012311
Ni 5.362842759123152 2.347638786574425 4.329147645251882 0.9920658112091174 -0.6736501113028269 1.3347380696699271
Ni 7.953961084942668 5.748162317296768 7.517925414305164 -0.9473196173416781 -1.4036963420071955 0.9001383316701853
Ni 0.05771880981648162 1.1166928560101337 2.709775501959639 -0.2729997336653363 0.6497218826220037 0.26349436527806236
Ni 6.131973431346593 5.133003996801181 10.19707672427431 0.07008724373538898 1.9694717064132146 -0.5158144591068601
Ni 7.064987766074455 4.961096892239538 3.6942879339885684 0.9737731835475165 -0.9994034825211111 -0.10488018304485808
Ni 6.032980628940484 6.988473557390365 8.140351103944392 -0.6622266999572337 -1.0779332005968985 0.5441996951177724
Ni 5.66749294657843 4.977264081713546 5.722637221700196 -1.7034167794968278 -0.6281261587290988 0.3575895418922745
Ni 2.189316933385333 8.070925657216279 6.338764463053213 0.49164891760425006 0.6991117459090411 0.7664643643220863
Ni 2.3865529432648698 3.7216648066966163 6.605131634242848 0.5315087299136653 0.19658089128496467 -0.10065868876434278
Ni 1.214473350562153 3.3013826601813827 4.3866036341290044 0.3382895560120819 -0.9629508961210319 0.1412561505707309
Ni 7.792844445708269 2.536092505205631 4.553580069800119 0.9820187113857602 0.5760379226742918 -2.1286934403234308
Ni 4.469556955827413 4.320082173695649 2.7338300958919746 1.9425013484719578 -1.269431535152633 -1.1650622303059226
Ni 0.24982981137849944 1.0043369044337502 9.685499467513516 0.1498732028157806 0.05965113600372953 0.6976683285942953
Ni 7.897824753317403 8.307316434505394 8.505525992371574 2.5817940653408376 -2.0321513448306225 1.4841348470699216
Ni 9.06141819104149 4.876318630779094 5.381354977682858 -0.8000326871958351 0.17541788405410436 1.4782609047876478
Ni 8.829413932247327 8.830431900674425 11.664099712767001 1.15916694786741 -0.4664446504244806 -0.34284015149724184
Ni 8.923002247731386 3.741570716575605 2.55681649152967 -0.5861541851726872 -2.207227529274592 -0.9856825333905929
Ni 8.80020749264803 6.619737630320025 12.728985379244566 0.8674675809100414 -0.8908468790659303 0.5923191763328186
Ni 6.8173808275704015 9.393627560095853 12.891248621098216 -0.6810893411896914 -0.8501586573179486 0.20703242563559185
Ni 3.614916935727703 4.65886206623401 0.3569099102249845 -0.7617497324552365 0.013484407639680004 0.3402826751827107
Ni 1.9719344029076749 1.3136419838783975 7.0998596626834765 -0.489265504973738 -0.12769795227032202 0.21598269285034416
Ni 1.0516539277769714 4.916352552739347 10.036912348232171 -1.334090151673283 1.4870345372152196 1.1424118398962584
P 3.8127082011129296 6.454012370388399 2.0030888639061013 -0.7196970262595606 -0.7125154209094569 0.11305474843585045
P 6.529851018207233 1.2042566492574558 6.447622304943749 -1.0047189811967534 0.5478655740051339 -1.6712245110349992
P 4.232786753942744 1.1566805066782462 8.916101347221502 0.11230090098896142 0.9862360919012175 -0.8939406874999057
P 9.193420933260873 3.070155759095186 10.351226757763985 -0.42400396476176655 -0.43044972038711027 0.1181226498770611
P 0.5755760063466294 1.5907329897345932 0.6291091150760507 -0.09771246165182527 -0.4921371700945782 -0.24682770325565878
P 6.855850779856294 7.24839791386231 0.0700658414113429 0.5212333161295861 0.5383375799100406 1.2447227195520434
P 2.667142058806913 4.756661069302886 8.768872573610254 0.24889898396239069 -2.2581202023594016 -1.6727005813598932
P 2.9774373439033743 0.8038073039796283 3.996737458789629 -0.6297577807952509 0.5430933494274712 -0.26636680172985094
Ni 4.70492976468943 3.40841741316157 9.595929351038968 -0.6435635763300916 0.03646801301904687 -0.5051358963470913
Ni 8.403153534787497 0.4023483191072876 5.078864734144713 1.1505573518215282 0.5334972210986038 0.3705545866933747
Ni 4.012294792633221 0.5051307403397316 6.0609118317283786 0.6267223364030368 -0.2448196716866945 -0.09487242109986888
Ni 8.273612425310006 1.2820849626383457 7.680216418934097 2.1844244153371477 1.0654124424220683 -1.2012643912580925
Ni 7.275651704933264 3.291277009977824 6.553445675495689 0.3053552671779064 0.8877924085103226 1.8507793000756125
Ni 3.5673315388900644 1.8684717936807607 10.969277959444218 2.595861599177497 -0.299973948261335 1.9044104551375074
Ni 7.020289697866405 7.224392367499643 11.47366373198048 -2.593868480006868 0.5482085591668495 -1.7428965827590048
Ni 9.017497480541406 7.4623193516878334 6.554745898804846 0.9818140515741218 1.0598766002055036 -1.9748602244186377
Ni 2.1367064742212 8.53955204976026 13.538664510196867 -0.743809345926732 1.4795171457922518 -2.0999623909373253
Ni 4.937877957843265 -0.08812275045638361 3.8180849252596953 0.5404890790354047 -0.787979869796359 0.5004544317110219
Ni 8.169529780768404 6.672505411877437 1.897576436437348 -0.5787879746156033 -0.1706873113476544 -0.613322260947047
Ni 7.485186624263836 1.9628744839064987 0.9688088809021719 0.5926112536519407 -0.1342259831968269 0.7553078334846347
Ni 2.682828026842657 5.155732455500759 3.746041448822253 -0.6179438188794584 1.1440385768664039 0.5104691356345468
Ni 5.811045003316168 5.5826499053089895 0.9577213538793843 0.12668802294856893 0.5213091636728442 -0.127355995549871
Ni 4.821746268828189 1.7072163405699394 2.185262642767953 0.5399851428157926 0.8217435965103654 -0.4059648478718686
Ni 4.978272795882217 2.638148467151464 7.120596604969315 -0.8898297506553257 -0.24377606091352852 0.1584642869189013
Ni 5.36365713386483 2.8547906569548682 0.27731495891015734 -0.6440009209778264 1.3850334754903695 -0.2003383014448679
Ni 4.446754463060408 7.740280257836276 0.37966798255153433 0.6896894241538767 -0.7146869746394788 0.10776341812992409
Ni 1.0120734644796985 7.491849690332116 9.340763534250787 -1.1202221911730965 -0.2805382081342265 0.4896056619219762
Ni 1.6612504389572307 7.351009131313832 1.7319131800371903 -0.406567514452874 -1.4801442378532896 1.0572954697418888
Ni 4.035458201478925 8.141859548068183 8.30237095880138 0.141110369021486 0.9469262385580014 -0.400623123943981
Ni 7.184432479606815 8.149966278451258 3.757838777466481 0.36920141509959 -1.0057042279281583 0.3592697578081748
Ni 3.9695771357287994 8.716697064592244 11.860536154718346 -0.742415808013315 -1.147579757250443 -2.5217019851449476
Ni 2.6337064231059437 2.2360509384475797 0.29235497970761537 1.764206657090691 -0.36048408983125013 -1.734779095858193
P 8.511900325576894 6.378497621614551 10.209849451756867 -0.07712692419098977 -0.3856243365423036 -0.3978162506228052
P 5.877277730886563 4.584652167898534 7.918966106696552 0.44254727498159274 0.434921897225851 0.693960797835721
P 7.276706690394075 0.6388519983492257 10.512231420471403 0.32308662301939844 0.03523594038415867 0.5376593228960934
P 0.948959421999595 5.291714528844255 1.1347784532563017 -0.8353511599914711 -0.09621659383258914 -0.5944323660210795
P 3.87366600137927 3.6935040982997025 4.7444639566945614 -1.3651303088085394 0.46682311680982186 1.6826612921170312
P 1.6479335610790975 8.018777910973554 11.437648009029738 0.5555089494830047 -0.23316331839468873 0.34471577125339986
P 0.7686531524885479 8.957437343342598 7.856187068371548 -0.17695951750961136 0.4669660701455893 -0.6012015664241129
P 4.651097743412778 0.7463124472171084 -0.2820651697613358 0.2780560651423212 1.7939738610507943 1.8588325093973923
Ni 1.1953447983911305 5.8455818957700885 7.415975876331255 0.9040551502260882 -0.5019762676721871 0.0600393725810837
Ni 5.375521093169741 6.523002866970388 3.4726586243182243 -0.8319490762884575 1.2485670329987981 0.7762114164065212
Ni 0.48562461442483984 5.5660940369809975 3.3238038775011476 0.43870039043167675 2.311661625920967 -0.029730437184897183
Ni 3.0099660622783833 6.4441565851624 9.825563594249676 0.4019171601650562 1.3493416785157148 1.4406181547342092
Ni 8.298052921818798 4.362077998442674 0.25462629352181876 -0.25758956975785313 0.1180192915299774 1.1959087833731339
Ni 3.8330027898459016 5.864997329952385 7.412562905822947 0.8091791295817936 0.034937692417449505 -0.9659565157165751
Ni 0.862420075160271 3.9133482615192534 12.227674796783983 -1.8719453926302665 0.18595015104399587 1.6259615254321418
Ni 6.214373348390997 8.844637187361663 1.7633637773053181 -0.24666186710175586 -0.9820112551865927 -1.639452617940041
Ni 1.5567420985279334 1.744899680889438 11.831185348687567 -0.49109818730710253 -1.213272214352246 -0.7922317030941776
Ni 8.60661766058919 1.8997326786511108 12.276556715227406 -1.534002421324326 0.47084149394059555 0.16338666392118312
Ni 2.0824672655737095 2.4701466596465083 2.3438695271166328 0.017855025903549895 -0.018992224831786645 2.016670218475888
Ni 2.66069184068248 0.08336143449509134 9.818940321492637 -2.0840531759062366 -0.6731191785000213 0.2428383795906076
Ni 7.707344352090428 4.181203517464137 11.598665627698955 -0.0067332049587755 -0.1252777728646036 -0.6816557552161229
Ni 2.4483251182728893 2.6601736022105027 9.12838478130524 -1.0418912193716765 0.05254229287309016 -0.6248222911668465
Ni 2.873262156777491 4.208957038490213 11.560375208026569 1.4497429998536129 -0.6032970155005609 -1.2914772020987628
Ni 2.8081677029937597 7.7318773911835 3.8807556887610892 0.7680088259910709 0.03507807465005572 -0.11980260868264529
Ni 6.982939510850321 2.959104657957174 9.186003645130697 1.0788053187892066 -0.13939647165417282 0.30755304616017354
Ni 0.18690918289954478 3.6952901701763388 8.218246047985964 -0.3894329116551164 -0.6494665720780879 -0.519211400603551
Ni 6.061752118393657 2.0650137341781853 11.751150820097402 0.3336785396026318 0.3137257506297887 -1.4731801478306308
Ni 3.3204741953186927 9.363458677620025 1.8387258308151013 -0.8689431370143035 -0.508994093750917 0.29738664715013297
Ni 6.334447351496474 0.47997211337691503 8.565731421427703 -3.662965056148743 0.9337765885499208 0.11775189680120365
Ni 6.888657125984149 8.353569218129374 6.174468986048739 -2.1814761313421016 -0.6722239203792616 0.816936147819393
Ni 4.285452738657446 6.049277378032487 11.946069563666526 0.9280885370262082 0.8320012696826316 0.305246509514184
Ni 1.862854458814863 6.087349397205968 12.76372679080975 0.747872460252512 0.5424420889967174 0.07677314039599681
P 7.222254633802736 6.334243757811053 5.26915172137054 1.5089344226121044 1.5095658855485161 0.8655767916452319
P 4.321905262605998 7.42834696899803 5.80389053612535 0.4605686512596777 0.6955350843013763 -0.22166354528520532
P 6.653895098178392 3.852843919915893 1.9495067076070107 0.2623198853539869 -0.9817369184792835 -1.1178362074394232
P 1.4723525159214725 6.468430505019485 5.187925244294826 -1.1501616590450061 -0.7529419043556194 -0.46901832468892773
P 0.2771678162011495 2.709156392070794 6.302370240932758 0.18089381956701103 -0.16482211081612905 -0.783984632594037
P 4.9690463002293335 7.288802006159689 10.236640529906412 0.9608855289515709 0.087602626911333 -0.3959740552077438
P 4.9857132196584635 3.9807192628763133 11.827324472071336 0.6908582476509972 -0.16997794398545565 0.2645922263279314
P 7.05607591520813 1.0077332172768878 3.029751666797806 0.4079929340454909 0.789205257563028 1.1232555786827816
