# total energy = -340873.0175101749 ev
CRYSTAL
PRIMVEC
9.22690265427864 0.00000000000000 0.00000000000000

0.00000000000000 9.22690265427864 0.00000000000000

0.00000000000000 0.00000000000000 13.50450470414743

PRIMCOORD
 96 1
Ni 8.26051374037139 2.8379553441007235 12.34669554215826 1.8192046105931248 1.461156641007193 -0.225203954338296
Ni 3.197444696781731 8.866222989263807 6.808269393642347 -1.4475642470347392 -1.514811964438804 -1.996996908416677
Ni 5.6310218069922096 0.7883437911311182 3.563892979412997 0.29388583308572613 0.8745255161980875 0.4460311197651351
Ni 6.5063411502184225 3.603982025883274 10.914381305071961 0.9728486148507182 0.046862983100125745 -0.13071976981578132
Ni 3.4223873555689877 4.253472927671442 7.070026471162746 0.11433592914111922 1.533540908306875 -0.23307410111499213
Ni 0.4240859751800316 8.428452594819351 6.929877202002755 -2.3672694450932585 -1.0591055263674338 -0.6608578446341651
Ni 7.596582735994845 5.821252858151685 10.01329306822989 -0.8386655690766847 -0.5805458378469744 0.6693975066740601
Ni 0.6866273394224824 7.760969232937039 2.42559768483129 -0.20671515150548916 0.7888687001592155 1.1722800882106004
Ni 3.3163702445527203 1.8687245860856883 7.2163079397989245 0.28780208878549146 0.9819444065043992 0.6638830046137342
Ni 5.337486354184507 6.733396769703914 9.186736059929592 0.469098800217876 1.1234077879899298 0.25332539516486047
Ni 7.5140849997375385 6.659360103142162 6.454424137289334 1.1824176908652346 -0.2913594671194466 0.3728698650901127
Ni 1.1335249859311056 2.717092146781134 1.006353355295431 -0.800322450522112 -0.6196181212580877 -0.043754519378131095
Ni 5.045593290041808 5.594695491407262 5.088888685169888 -0.20605206400019352 0.22150953620584435 0.7221231192025498
Ni 3.701565747911824 2.776402676773524 0.4210069577782798 -0.7884501245645583 0.9880088675309243 -0.8046221063387304
Ni 2.0341814037309187 6.068663024800091 3.762665374320755 1.2137131585444065 -0.008351457288488844 0.5969556466635655
Ni 0.11987038259849707 0.9158568171634512 4.966578709520676 0.8678537606048667 0.39585064225600214 -0.5246238298683739
Ni 5.619645036071143 7.775132528447045 7.002599034942243 -1.1896856852815574 -1.0072522891415685 0.49276889014130615
Ni 6.321812324873399 6.844645534501401 12.163237037516273 0.034065060004509075 0.7232744591981738 0.1869279415762329
Ni 6.452151551175904 1.8821681831919286 13.216899490576168 0.11076543818104148 -0.8983077062193497 0.44131263124354314
Ni 1.4734440781712514 7.190645155563107 0.37391838298625046 1.3308063387156888 -1.5171740369130775 -1.2789533586001394
Ni 8.375434812408606 8.273569807567911 11.499936230588153 -0.8636978294549641 -1.244070173569709 0.33001677448032846
Ni 2.454845120732018 5.8240209289354 11.511240108978582 -0.44551818468445853 -2.112080771467414 1.2830151873743387
Ni 6.86676242006328 5.69238993626716 0.9589482977437968 -0.9733355817894657 0.49732514205342093 0.6222139070097219
Ni 7.665461563996275 1.9395041560252693 6.3261849540214055 -0.27289277577382676 1.417455600574817 1.6273077550473911
P 6.007460979772163 5.1451884768398575 7.192323529148299 -0.38342861444256543 2.1463959998095166 0.39410074944443096
P 2.1666243638290474 4.2810798202876885 13.297372844400318 0.16742149611218907 1.0886066211503445 -0.2317877782034008
P 3.126388319763779 6.767268729193967 1.8691720908623888 -1.0253991352539245 0.9877070200197893 -0.6911176719599711
P 3.1870090699271274 6.625072933034551 5.801008111129859 0.25323797765737677 0.468239023320742 -1.5437278761422057
P 9.198206945257304 3.3576606337431287 5.6035726944106345 0.2453338923189517 0.552398685988797 -1.2257199531972955
P 7.557986602367252 5.038968373966117 3.0445226263354215 -0.20960609990003903 -0.5191712913942349 -0.32174245028667814
P 5.6502414451338 3.6721503823835504 0.10148116569202012 0.12277069017203372 3.3526311048093227 -0.5177147614533665
P 8.756035318266743 7.935791356733837 4.820662626227948 -0.362481322766937 -0.29254808811090904 -0.47179820142691004
Ni 1.1216868698794196 2.156437863344978 9.658354423917308 2.569626576740368 3.035498385380514 -0.1384428494916519
Ni 5.481481396353337 0.16088304202027298 12.014728194589464 -1.0365032155868859 -0.240050018212193 0.5183714212007587
Ni 5.497822240879866 3.160776985800126 6.941450505949467 0.8558863038303454 -2.12126655173174 0.11054638019169993
Ni 2.4434683498109515 2.941158249820214 5.114142717619977 -0.21481361224290746 1.0632318898309816 -0.08935226261258805
Ni 4.009273723132145 7.45590015186386 11.681180278603168 0.1791038175461238 0.21978843974967952 -2.323505412633431
Ni 2.568206846227741 4.63907441474549 1.9353714263451833 0.9844599738374012 -0.8260198552882161 0.022610538310664285
Ni 0.7359109943459974 3.137294518651614 3.399691943213312 0.05876384830276976 -0.2806927314342198 0.31466523172492256
Ni 0.6073377972035019 6.475541749298292 10.144948050844919 -0.07922700125312808 -0.14096227347939594 -0.9426093563502024
Ni 4.246119086289374 5.571046940011727 13.551229847903995 -0.0052969867328812 -1.2781596590542503 -0.7803370085391206
Ni 7.423319958739539 1.2717255332593604 10.666492262177972 1.2072188090693146 0.314174151021117 0.505863004321103
Ni 8.192862090417407 5.410581876679796 12.635908191092062 1.1363373515674042 -0.6906988392549975 -1.465139022693709
Ni 1.1965724114815104 3.3461915937959383 7.394512646093421 0.3412830914227671 -1.2037313647413461 -1.1747133802424414
Ni 6.488450186053014 0.5632332027163167 8.300786402203652 -1.1127955596917223 -0.7822044007651626 -1.118347856968519
Ni 5.452287476487761 3.105581654372858 4.443467770124041 -0.23475123170709894 -1.2128184146442789 1.8415894060462286
Ni 1.2785442142899104 5.499067872732537 6.1598635756013955 0.9718973066810422 -0.31626908587693275 0.8949637294477812
Ni 3.249567469639076 2.18654524656918 2.737484524244759 -0.9818937557721219 0.40698994670227323 1.0056749173521196
Ni 1.5643198420006 8.204165046117575 11.72525903776304 0.8654816608282643 0.07222023091799175 -0.20656679885308296
Ni 9.410610243394334 0.7954881818238855 12.819178466920757 -0.33335920859000007 -0.14673491429711502 0.7518178180535052
Ni 3.0843044169487053 6.7032524788692625 7.907562570881516 0.44275116346228266 -1.5409886228341718 -2.3882175080998356
Ni 3.2160645862535175 8.607491413110008 3.1358403587999026 -0.48847026276595235 0.061205882085359105 -1.9881222316348663
Ni 3.7329279898913095 0.9973082226645129 4.823228627844451 -1.171737071222937 1.247805215132109 0.4313843163862377
Ni 5.541151775547611 3.1481822637342245 2.1479048238090472 0.06944961015139008 -0.1479299630464807 0.14371489652386862
Ni 7.0064669525173535 9.072767204241973 5.698104157055009 0.7645596911002059 -0.22583181773028205 -1.033486540247749
Ni 4.391894920662394 7.932700344358689 0.30578970216720686 -0.025687120353458985 0.1679460011570914 2.016458102465082
P 8.581508455353541 7.26282721469977 0.19383692470039462 -0.6434813010289305 0.019582807227934016 0.2127114782982401
P 5.204655864176658 5.434470327543251 10.982673302067244 0.019852515949552906 0.1819078626538222 1.0819860305100333
P 2.7502813154778716 7.149234816638737 9.744027137363535 -0.2012135049609696 1.1463499986084 4.395617614127707
P 0.505191371833129 0.4397172708956676 10.484830235474616 -0.4423842670411672 -0.9382706197655324 2.8773613998940446
P 3.5461662541140893 1.0122373510913467 12.61896021637364 -0.48855768027343605 -0.5281231012708839 0.2543507511055813
P 0.25494577801193813 4.331394120233006 10.925413912525586 -0.12073617624050821 0.10212267490437896 0.34559406009329513
P 3.5047466882871077 2.779659773395695 9.352666217678838 -1.5876178926569366 -0.2169769384428134 -0.5420140003203633
P 1.4304559389001648 0.7503483288635913 3.069101249514284 0.22569169260799193 0.3097181721322924 -0.40643741663291294
Ni 7.879664108142719 0.11021258363411704 3.252370602652718 0.09396430746330268 -0.5891495203555853 -1.5448146814484816
Ni 4.907466557934453 5.752475526078991 2.4925665439919578 0.7093280243204106 0.452785150659517 0.2540941550100849
Ni 1.6815937742039728 8.232611586871547 5.024648221111701 0.6463622221211514 -0.5309513147482985 -1.6334552627060255
Ni 0.32399345833117493 5.148805422663911 1.859624092039096 -0.4446599504492213 1.3169329231677063 0.025368560671775665
Ni 7.220355781974977 4.364749373176767 5.4668936633231615 0.2715306053189775 0.15574740220837047 -0.49040810321861356
Ni 4.214692255991601 8.897013163281324 8.678359561314668 1.0719026781321024 -0.1152584409553886 2.2726189101962087
Ni 8.99778939361376 5.820874555144577 4.506358338330035 -0.121913484378061 -0.5736352267700702 -0.7972762074966204
Ni 7.613901632198285 2.371009483595917 3.971756214419939 0.1796416923274648 0.5925662593466182 -1.1423483336481746
Ni 7.9109248541934685 7.996836544417355 8.903357581517598 0.5690473502890716 -1.857772443563994 -0.6219884212624772
Ni 5.164361980468386 1.6537008476067425 10.060234935270381 0.19991098409946215 -0.0063609092210213025 -0.4606601825322196
Ni 8.818178507361134 3.8712023524404633 8.91564689310703 -1.1774657461765978 0.5301370463771192 0.5243518071539098
Ni 7.944464645189476 3.5948289384917906 1.4075067867226487 -0.5851601966905341 -1.3919589989656092 -0.2796342082627184
Ni 4.568553198079056 0.8683170468336764 1.3613888820854418 0.654571497404821 -0.3964075432007367 -0.756246286138504
Ni 2.2031259905636302 4.570121771523161 9.143359468058524 -0.16152004302608958 0.4220895213478731 0.9434539637386848
Ni 8.8023543693809 0.8637617250139435 8.669729639301307 -0.9464266732137635 1.531403036028266 -2.725313300914132
Ni 1.5386136913225044 8.796006260383582 8.835902464589259 1.7073335980527307 -0.8675647686095381 0.5356183812066646
Ni 2.2122052627342135 0.1449555627307795 0.7633924010867155 -0.027058289669372754 1.0896759429551235 0.19543032262028923
Ni 6.9139118924125516 6.931055477466358 3.9701221299672866 -1.0579223046926103 0.6279981177916668 -0.7604765221697677
Ni 1.5493538059633167 2.6671007884272493 12.028813061427266 0.5374209816330422 -0.06743695059673548 -0.3505107806686221
Ni 4.208750130709228 3.3202732243577575 11.474858431977959 -0.9558374250047023 0.868858290609981 0.6234508647406166
Ni 5.020588383962253 4.414454697549667 9.109369404215032 -0.25082191201671644 -1.0580035515525068 -0.7736953348528869
Ni 4.672872559014645 8.10028857650738 4.757312558271857 0.8227591822590734 -1.500835961874686 0.7795014000117026
Ni 6.9691164507424315 8.809532899613332 0.3279065877290861 0.9361913686390005 -0.24961066531743464 0.33163682658225463
Ni 3.0062909553610173 0.6111042188498761 10.473188652448576 -0.012084184858043705 0.7656125578447524 1.1660873291363272
P 0.12433897153367358 6.381371981236323 7.799351302424025 -0.6391065690000025 -0.21781974605908294 1.3748488216478838
P 5.791634500765939 8.511873021337896 2.1263784600143607 0.6282853100147824 -1.8062315953722248 0.480139888523386
P 1.2086504270011182 1.1527815316831465 6.84162556927637 1.0586578973070542 0.4174821044828488 1.2787222164259398
P 6.4769626923005985 8.621368674639031 10.35852224292346 -1.3125263094595783 -1.8040685262826348 -1.2402258601229543
P 3.924718387592278 4.223946839311821 3.7240701633834234 -1.986869847285004 -0.31374323413128546 -0.5567965579461766
P 5.1446533164883395 0.6707339996726548 6.383687011101769 -0.12103442420721736 0.3076687458024314 0.6453903451261853
P 8.086706575861953 1.4518900336687275 1.2297689617003378 0.8495984139391046 -0.5299434423090744 -0.12440616889292769
P 7.011089630726157 2.536807696637806 8.74176314530591 0.2355863260138846 1.3016698263610487 0.3274384722301909
