# total energy = -340854.34918762173 ev
CRYSTAL
PRIMVEC
9.35852420859908 0.00000000000000 0.00000000000000

0.00000000000000 9.35852420859908 0.00000000000000

0.00000000000000 0.00000000000000 13.69714615341091

PRIMCOORD
 96 1
Ni 3.797651739113413 2.397756877174705 3.8102445694521814 1.8967976757872562 -0.9099666306145167 -0.2839096957096207
Ni 6.6869276726365685 7.292686235484237 3.855376988887189 0.8018136903556579 3.2478761344884197 1.2289767695716964
Ni 1.6363754132395014 7.244143569783291 9.066579548641993 -1.501325499916595 0.5414005351060805 -2.0592443443926727
Ni 8.683952537990466 6.009173982116374 5.438424722935693 -0.16229934439427532 1.2563855006019524 0.16269143762637142
Ni 4.870419383088639 9.04140137478392 1.8455262659387 -0.4407469885480603 1.655912563268277 1.7772897155268939
Ni 0.4676361022576815 4.106473683486949 10.287516029075718 0.1372164332837185 0.10106209485034852 -0.5414768968699706
Ni 6.081272053556531 8.15686173066278 12.270191469074062 0.8178990259532947 -1.5935262877215717 0.034967517214120426
Ni 6.186190469822833 1.8376959886315896 9.91235056987269 1.1106705429289194 -0.6023220531818013 -2.5930359568032437
Ni 1.9757248639782752 1.8204763038639509 12.27758751085225 -1.7384899690508768 1.949388305399778 1.8576837405049296
Ni 4.386143824571793 6.92454060538132 4.9410266416029875 0.922691791490669 0.7648648810454505 0.5842469408476454
Ni 5.845736713213091 3.4819606378814814 13.35626506294202 -0.38800903472439624 -1.3371788179009358 -0.2518135865060244
Ni 6.707974993855274 6.342187711883577 8.9966142848967 0.7815418274804992 -0.29080770838103465 0.45297566940376827
Ni 6.120138005100011 5.952367739431827 2.326570326004314 -1.8713424689389448 -1.3805008777273386 -1.5082947321455766
Ni 1.4687829595335924 1.1365366287614695 10.087632923020754 -0.450651649256282 -0.5914126053581493 -1.0694416181861193
Ni 4.09040509721193 7.222553454153431 2.8536630050368657 -0.6616098923088412 -0.35534059795709766 -2.4425536596485546
Ni 3.583500626864568 5.436348066386814 8.384625752402389 -1.0379957409720124 0.47781098327989324 1.0196151815822956
Ni 6.8726007953484975 0.16100311672498804 7.82128938034369 0.8776627762754884 -0.1972558058648022 1.4132883565710046
Ni 7.202030210297218 4.223782785966487 10.99549400977285 -1.0564454630367675 1.2739417643181608 2.8274909974261626
Ni 8.880734229082387 6.518773707470844 10.344660114488587 -1.1549948187675916 -0.02237605370235501 -0.9247656433005621
Ni 5.701877477208667 6.348298828271222 6.731490157939864 1.6026997266907237 -2.8956684257333487 -1.369386512981732
Ni 1.1719867189244126 5.154048179965173 7.904568080801182 1.2484104528162756 -0.9305053739978167 -0.4051310391166636
Ni 3.2078401017244693 1.5092492187375433 8.545279796169858 1.8603977970019832 0.25318141338782846 -0.42372422873781856
Ni 5.301014446047236 8.930755541627512 10.15454356442466 0.3086827888892426 -0.2336464286786944 -0.7677823118025616
Ni 4.998107089050411 0.3338120118925718 13.465965685141073 0.15511876748543607 1.7246317230115458 -1.5801976889334657
P 4.97924030400065 2.482797787763581 1.479442318745734 1.817608983971231 -0.7274887543898374 0.6103348961839489
P 7.251911144977389 6.126483084595912 12.0940874374898 0.1250404600428169 0.4045630824283355 -0.2652609702601819
P 8.750547797124442 6.048985144617208 7.802825947692562 -2.064023768059187 2.175840787433195 0.5824330275673582
P 9.246952003173277 9.113780201953984 9.042938044478944 0.5423958091398143 0.1844134026844953 -0.19258565408264253
P 4.524172699918479 4.845254311164627 5.7357487843170984 -2.794300626717123 2.7552046891569257 1.1926619943010621
P 3.3307268847048297 0.7466389805577792 11.240015405178186 1.9764293686779701 -0.7977588035599938 -0.10134363064650932
P 9.293941153835403 0.8177338181897341 12.622085085825088 1.2457426761761254 -1.219990764023002 -1.0117537765563478
P 4.956545882499822 0.4306418555802492 4.1201156044031375 1.3535477461772623 0.0004707689888314472 -1.1876619699833095
Ni 9.179420891606275 1.8738666851679606 8.32346779590428 -0.028316844666822202 0.7987116543915663 1.3633829871001293
Ni 4.912186477174492 5.823435349734133 12.873797571325776 1.4877495610043732 0.22708985850709923 -0.4447782211946405
Ni 1.5686196970885755 0.434482593965379 3.5945558516558784 0.35858327326411144 -0.7162864579161148 0.3194904210277078
Ni 3.4214577780864905 0.6394586089608582 5.53764660544218 -0.894183656748647 1.5324512747871222 -1.8986131317294401
Ni 5.382152851990403 8.785211771243645 6.17496117647898 0.42764593238972803 0.6473654665746851 -1.5068065776358244
Ni 7.472416695246466 9.019100011304962 10.315540130182617 2.164764989235007 -0.1731619981403921 0.7444482650623114
Ni 7.682946058579509 7.830586138413349 6.08203945255161 -1.8340987540961382 0.5423299888988854 2.769076562043012
Ni 0.967858586233253 7.317243003326783 0.4168174434396211 -0.9932027530270379 0.4587886765411195 1.7322272759706168
Ni 3.628608714136317 7.9762796451865 12.012082432193655 -0.448266436853557 1.1003413930887695 1.8584771829405027
Ni 0.6757350568221612 5.861711714244808 12.319446318476539 -1.150337008280606 -2.046551579416353 0.7590670434167508
Ni 7.235917426897012 5.041614868661688 0.3871771251808901 0.8400786473741274 2.4838532897282897 -1.3671964473089486
Ni 4.271773298731949 4.844281024634283 3.6771083306253445 1.0359902805062093 -0.5324057878066379 -0.5154509051198541
Ni 1.0639425555318105 8.084024335800533 11.459074127585806 1.337981259197573 1.1134144242226438 -0.9781147483456638
Ni 1.3722404225428535 0.6696230045820825 7.202000263019361 -0.32840237880535705 -0.4725348224826185 0.7564681723413229
Ni 7.514848244559767 2.324105290695729 6.928701405298544 -0.923003666304133 -0.7342443279461162 1.323496949538469
Ni 5.353599994258846 4.241788586777866 8.613943289180819 2.254692921845407 -1.7269742551017937 0.4392279808003726
Ni 2.1504485132238256 6.971043112778275 4.058930508184472 -0.9817220060809481 0.7009835090104573 0.8111087425043386
Ni 2.045979306125375 9.148472251646178 13.397329331850672 -0.0010006733503724703 0.009366528816564513 0.1078595773881562
Ni 0.49851080987557095 1.791558463683514 0.7333723364672333 -0.42543169834722866 -0.7810880277725322 -0.061916534999138524
Ni 2.8477240854968966 3.6553553766721385 11.052802805213929 -2.215840210644268 -0.05304828597523122 -1.2308806714626286
Ni 3.237515982375655 8.656195154826978 9.719316967775027 -1.8832939848738663 0.1959849095721786 -1.2089463332833823
Ni 8.814157686997072 3.1840600914013337 12.724114525630645 -0.05571529128443309 1.4594165183876349 1.415902140044768
Ni 1.7386547256446767 2.8988309868643283 4.078256796778847 -2.058218988451952 -0.020434356594951904 -0.5306499814577957
Ni 6.013338525443331 3.2600138748655483 3.407836445923828 0.685003331532117 -0.7534147302269798 -1.4870939296982455
P 5.360487868165901 7.282532236585928 0.8092671612281674 0.3004542303318632 -0.2300232301038103 -1.0761097742349144
P 8.580437900373699 3.3333472715172965 5.191766776425766 1.0396309625825901 1.8754112396916796 -0.02892311079225341
P 2.3398463286191897 8.644403414170878 1.8676881874051372 0.7001453293798781 -0.27792391043983106 -0.31495062417582526
P 4.648369676305072 4.565687113847416 10.770517892431217 2.2971351501700177 0.19648344647515195 -0.16778325032698202
P 7.616921669429677 3.354422668308993 9.315784885474612 1.7207071911461593 -1.1226058609139247 -4.3643221464485356
P 2.2849773004710023 3.959713304940151 13.139096762449107 -0.5434242504043286 -0.07345564598698962 -0.23409148663591298
P 5.380814583011179 7.716552519449394 8.03043181037099 -1.5251825090398508 3.5607907020708227 4.087827512256063
P 5.297280394839471 1.6398848598633406 7.370708252825435 -0.6151402879923922 -0.16618196727813317 0.3052076858564486
Ni 7.808902437540187 7.409415109455301 1.0216878823283513 -0.3285013662770665 -0.13530173275950894 1.3686434641681204
Ni 6.945251019724138 0.8706160316226121 2.4454067396545467 -2.5271596658254087 0.08022510350033926 0.39486179598017157
Ni 2.744677374096642 2.7359926635181804 6.3360943766921585 -0.05931792103402687 1.0933613622265106 0.5802398765707814
Ni 0.23095621438865388 5.124924452249471 1.3005971753851466 1.014463462178027 -1.2626978159732254 -0.9924319362992844
Ni 7.614806642931042 3.1244088573203945 1.3460655658436096 0.46607852533431343 -1.8677393249687189 0.9689978736460602
Ni 3.8701615856241 4.305482703369468 1.1285369621639818 -0.20789091698114517 -0.11318587469707604 -0.16507330759498667
Ni 3.213080875349403 1.479245789734799 0.7349604780460748 -0.7642858686135289 1.1619545379148761 1.5571402928933697
Ni 7.63121213608195 0.396599287476574 0.17278081959459304 -0.6070886213325093 0.2701661208712831 0.1813108524997716
Ni 4.80928950216352 2.435471730225566 11.45403362638154 -1.2230064109208745 -0.16446215637354902 1.4525380461002468
Ni 6.66269845314558 5.213063034391656 4.676904752840402 -0.4390438898140245 -1.4290281359037647 -0.1849492205833073
Ni 8.4815557323004 7.788809685803165 12.564926962625723 -0.28008775086036924 0.6963591228645685 -0.5249012518994767
Ni 7.678847024922864 4.523957453858883 6.814453476127428 -1.150847115147805 0.08220151050041972 1.2968492650439536
Ni 0.15471418837506784 1.4659473266615304 5.462312356288627 1.3958043408536283 -0.447572496110326 0.1431176292595019
Ni 0.01233172750995511 6.514459427754605 3.181654950648462 -0.9098653291499619 0.12187620338222234 -0.5621907323785544
Ni 4.272419036910736 6.604713036395424 10.477426691604379 0.4575067245049024 -0.7958906400030035 -1.6904656186527984
Ni 7.3952369450949895 1.693602789518909 4.803370235524645 -2.6623318149855892 -1.7894700596431696 -1.991102397309113
Ni 3.1816455921241324 8.718419983098734 7.182564479690322 1.04427720310535 -3.3993740173918168 2.6812456211709566
Ni 8.916287263012963 8.466844132053264 4.490363159070626 1.8623091550920832 0.9451745459742174 -0.5575866579476397
Ni 2.8622110811601056 6.121710237187491 6.425988617998696 -1.5093100607839685 0.405277849107173 -0.7777491932072863
Ni 1.0629318349041448 4.874359321831668 5.122047641870355 1.5031476407269984 -1.1694752717719537 -0.09692210454004599
Ni 5.532338450442068 3.239368970193042 5.839134274298108 1.4094910943121015 -3.331683298913062 0.3752303949024892
Ni 8.801158696702371 1.9864122987634074 10.87602683158276 -1.2337734196293912 -1.0869744848635603 -1.5147268609241655
Ni 8.955274875372735 1.6600431212706743 2.9007129861071395 1.6703945589345364 1.2175034788247743 0.8473358431571729
Ni 2.6972109386936727 6.0046725319135295 13.443995613423406 0.5735740345148316 0.46666447974477054 0.46708768332511813
P 1.6761491416430145 3.0469951440606624 1.8368284534261763 0.5422569695691047 0.5728019322354975 1.7589258683077258
P 8.658721956396143 8.945279971388041 2.416149185040923 0.07282983947753263 -0.8552640968653141 -0.6392657202856862
P 6.757593889854198 1.4092440277446159 12.00370000195106 -0.4155530057809359 -0.47414767549569303 0.5122496245737372
P 2.5945666438396184 5.305375518385127 2.6587670565974864 -2.7271007318318583 0.8896595436260485 -0.7273175189192959
P 1.4780572571448587 8.31076266327355 5.849667293431792 -0.10008867519348569 0.0781785053839557 -1.130798681137362
P 2.0929871738361623 3.355152633206752 8.60558799865878 -0.17836565382851863 -0.34877888557917996 0.30460064840006895
P 1.9978390569706286 6.124180887610674 10.725071026578716 0.7412678104518007 -0.6583335355504146 0.48051989757062413
P 7.876246378620582 4.89479833896891 2.651315799525751 0.5643018651842863 -0.4556750706128023 0.0426528016735201
