# total energy = -381175.39138708427 ev
CRYSTAL
PRIMVEC
9.19724862015014 0.00000000000000 0.00000000000000

0.00000000000000 9.19724862015014 0.00000000000000

0.00000000000000 0.00000000000000 13.46110302773561

PRIMCOORD
 96 1
Ni 6.596873699968003 3.793156851101131 5.542595854419459 0.3065392601836785 -1.3693338053669255 0.019309756072205454
Ni 1.7214398194662945 4.38969959124722 2.406898799709057 -0.8963927485848239 -0.18689271746292327 2.884014643544504
Ni 5.090180437595664 8.54813436695084 6.610721077430021 0.5749014950770034 0.3021200480700603 -0.7706807163962792
Ni 7.236937820394558 5.604637734165431 4.49996632419746 0.9380001397129651 1.0330137143763887 -0.6942670162222301
Ni 2.418637248071686 8.898761074565423 12.87157422025331 1.4931918150658672 0.6466854097885251 0.1216625447095195
Ni 5.593830967083955 2.9379598891402616 11.247289536161636 0.366098350694234 1.3354199262283 1.6300202688825476
Ni 5.951217652404821 5.717101689801427 11.371065187826149 -1.321423097728576 -2.0005195768579545 1.2988159018520213
Ni 7.874463500213039 5.515507198176843 7.2454388372570335 -0.6501062625446158 -0.254080271053014 -0.7957885672075004
Ni 1.7516159920572094 8.833865288585082 1.9524526303988026 -0.6306378694073591 -1.377192639289712 0.9968583475017542
Ni 4.4474859040752355 3.855238279015997 6.016614688432769 -1.7496981790618704 -0.8612555385620587 1.1152671611606664
Ni 8.673253736632889 3.284245495425093 1.3694519190618764 0.4119187514624583 0.954135097601615 0.6701984053088006
Ni 6.8490438615338975 0.9813556207324563 7.140900150722406 -0.9906769012813905 -0.010408596927833687 -0.6502523012041769
Ni 3.2134082868620855 1.0782486345225466 1.3476314468058737 1.9398358858246527 1.51090517318523 -1.354070708560268
Ni 7.543316565090855 5.562256812708883 9.574330253410132 -0.1611732012096321 0.5055223331522325 0.6659668837259562
Ni 3.448747483526616 7.301539294420339 5.210375600387992 0.29953223273822605 0.8387339604207749 -0.09502643017922989
Ni 8.294888127301089 6.497883713501678 11.956528922332796 -0.634478840420004 -0.04126132064263216 -1.2421752705398414
Ni 3.4733041372351634 0.26545190824024356 10.77178994512695 0.01712688948827373 1.1831481412733558 0.39069223798351427
Ni 8.106850380083396 0.9281219459515314 4.736612449885206 0.004024290668044683 0.9619255401803112 0.2749555718401265
Ni -0.42236064791413597 3.6169099765629724 4.519053374175493 1.7998568021941324 -0.45837755714562994 -0.24380871392367692
Ni 2.0965496028007826 0.27223120016854685 7.136107464487378 1.624278481302764 -0.16907600099647654 0.0468490991430548
Ni 8.110188981317929 3.472540765603025 8.976510015436284 -0.34619672667430057 -1.1873146139462198 0.5149004319330229
Ni 4.373723970463795 5.311742155887385 4.230219300870366 0.021382065220201887 0.3717781746878307 -0.6765567434266606
Ni 5.479683914957821 4.934627372362462 8.613746618595561 -0.3187707692528639 -0.2390966531599882 -0.1225688585738728
Ni 0.18073237267061487 5.517309858898519 0.16076698545319407 0.8491297018328022 -0.5480928595245916 1.0702155202376664
P 1.6499036200112094 6.61235266932811 8.777217595131269 -1.4317450206142954 0.09308807550593645 -0.42283694103685887
Ni 3.3646294480141186 6.7451333470772825 2.396883915730317 -1.173746645453798 -0.8791324188424794 0.08598154636814224
P 6.222426118531273 7.121328405744209 8.1302233478997 0.5186521856659713 0.28480135428595466 -0.05090115772524136
Ni 8.769318998050782 5.384575167392247 2.658338699737701 -0.7701616106680155 0.5270272971035439 -0.30937698674278974
P 4.310042221296013 4.601135138852382 10.534833872162057 -0.10023111430862093 -0.27256958810645315 0.018050172633491495
P 3.0964008904275793 1.4214163735387637 8.927214602497306 -1.1020090105991796 0.10018432023108553 -0.11607990841541944
P 6.24725868969722 3.048759142783282 7.563281952308277 -0.007712023932277041 0.076947461190332 0.4840374238055793
Ni 0.5855630647913087 1.4272474291384711 8.731746398151847 -0.1489990277409434 1.6333678451985418 0.1445895858193381
Ni 2.198694245530042 4.090733828906387 4.735764463566131 -0.2975697096952165 -0.7539214946600693 0.48888498170586764
Ni 3.004124895424639 4.871350302132198 8.836137008984338 0.21447808328035964 0.17563102850617493 -0.9035370729390891
Ni 0.8191124768821754 4.44079030710901 7.733336319377534 -0.6102726754874458 1.1774783445820882 0.3406161472627295
Ni 0.2882252154491322 8.330196364599631 -0.08981297183322164 -1.2378455328162357 -0.8250806313033984 0.380772407766641
Ni 4.572016649848166 7.79043743718634 11.976518222396525 0.3697881408409954 -0.5852409293297985 0.9524325130882112
Ni 6.802505783719198 2.7942988663209727 13.693576472639316 0.2559062685181593 -1.398222720487134 -1.3387957846790686
Ni 4.723982788135177 5.813764772377018 13.550754238890521 -0.8824146891381771 -0.6022377209981112 0.6715232947678113
Ni 4.384264017336451 1.7514412443341896 7.158816390956207 0.8012940704067619 -0.9201011479453572 -0.33978645227258253
Ni 3.4778843670279933 7.249050596774392 7.802351552996846 -0.35577177195724535 -0.20245637622913523 -0.7317824966691849
Ni 4.219955171455108 -0.42716529057231756 3.372329384525278 -0.1589617953806101 0.8343826254306146 0.5164747183986782
Ni 8.841434624166405 0.983323831928572 2.1816140351921605 -0.3001007036471864 -0.28662503775825476 0.6413585982589728
Ni 1.863095842095148 3.3660366270468556 10.045617504595187 -0.2868088716342867 -3.3111088171958203 -1.1115622015052535
Ni 2.2659353298982765 2.811148225719496 7.1197115294438476 -0.14049818935878383 -0.4367630641996478 -0.3194479978255466
Ni 7.295754225063531 0.36018724751347053 0.4719963590505725 -2.82398992625144 -0.03991072015200868 -0.6762466683854095
Ni 4.681638655672948 8.0961447827363 1.1181104295930382 0.4431712817188368 1.47636600175778 -1.2083207838842416
Ni 6.651036296855506 7.532969660438378 10.458119621756444 -0.019004566126960817 2.01710910578552 -1.4035181645581183
Ni 5.4899480443730795 6.03034158193839 6.31115749393149 -0.32692142338445634 0.2678282167667258 0.5243793179577357
Ni 5.292860204552685 1.7857285870403554 9.363502643936107 0.4337625868104271 0.06771617240005112 -1.0615416466127525
Ni 5.950978523941742 6.171307810923745 2.413010371390454 -0.22212942917803036 1.2323384869550777 -0.5029766839122434
Ni 2.3115260911092377 6.6039555813745885 0.00701474149195082 0.3096487523469377 0.35498527150020803 0.43262873031630006
Ni 2.4468728012122245 4.898390212957339 11.545763245703439 0.6089912376718609 1.1269623381104075 1.6640398203611018
Ni 8.559391799212737 7.6752602932192495 8.780206700919763 0.47590579583738046 -1.640499571147317 -0.8408124402163584
Ni 0.5100527342248142 3.3589731401374308 11.973583380374652 -0.2965142718475087 1.2941956294711903 0.4980175401347552
Ni 8.98748693161649 0.05106404384090749 6.847138191628126 0.061073470272552874 0.44064517286287336 0.4354821406046952
P 0.682012771199844 7.055236977448471 1.801782384436711 0.14248488077150942 -1.2727953094185434 0.047474905652511785
Ni 6.110403630827117 0.5117321518155186 11.230827380928329 -1.1238389619900775 0.2732912967638261 0.6513193090161106
P 7.627544967586313 4.276481461227665 11.571042803150371 0.5088292860382785 -0.7947092181003925 0.012804865074152141
Ni 2.4217735098374593 4.248337880572926 0.4688297463644854 0.5175111300829927 -0.4245079009813786 -3.0491038919790907
P 0.141393901044324 5.447622306408011 5.5788734817183325 0.544800819036881 0.21810436717903725 0.14142070117305322
P 7.394698225286956 2.4834686533119656 3.3766097840144003 -0.47084946436039554 -1.5039446827069969 -0.5675602242205838
P 3.963857784745562 4.643111381371412 2.0226653457832287 0.7253881631070669 -0.05479303658047983 0.11387698722682968
Ni 4.588065848620231 3.1372918576141706 0.3394971171079473 0.27362579728510944 0.9370737712439539 0.8904699553424857
Ni 8.977581494895851 1.4489529357872242 -0.40880666268181926 1.669080468108803 0.3986073790655329 0.9860864536972308
Ni 1.3034432660033592 1.037403653578855 11.224500593630161 -0.9287248850586263 0.7976837273476843 -0.06908168528901006
Ni 1.5844284073703312 8.86769276886225 4.576667698455061 0.9363867724792583 -0.2888891512020831 -0.1811355032641719
Ni 7.594462464444125 7.630938752312326 5.904053241961825 -1.0167162627679458 0.034761571850901424 0.6202734954538994
Ni 4.718519622478669 8.586762810986757 9.075892724416976 1.870064887778102 0.5211533548212702 0.004638784323592012
Ni 1.9280744033127073 1.7089867448890017 3.3152006749707312 -0.48144600892931916 1.1446798099948285 0.0175205253822666
Ni 6.544044704124598 8.945271560634382 2.859757523914407 -1.6465113245590353 1.4974855573452144 2.693055469321691
Ni 6.639760470096451 7.27826105826441 13.330328380798429 -0.7416673598830646 1.1271384586769557 -0.4077574209959171
Ni 3.333754284531125 6.8793671901020925 10.221526840110462 0.3139378666405948 -0.06866336680466885 0.3709453943738902
Ni 4.350004266376026 2.9680440892453768 3.684735086216036 -1.4023493410609977 0.11197385666684587 -0.07974379298854653
Ni 2.965910327574821 2.536362029895431 12.439970337516295 -0.9117486622156039 -1.5427829957304333 -1.4497306585584386
Ni 1.4407213983081422 8.6689310298003 9.563211699601794 1.0476093528023764 -0.4789288989344204 -1.3983073097811403
Ni 1.1673423815168138 7.316448034368486 11.366555776847386 0.9051188156039122 0.1946469074870454 0.40277770839313853
Ni 8.5024884222484 2.7218889282507894 6.813579271009495 0.6255031192839551 -0.49728117618936296 -0.4930925920293121
Ni 6.147358175621476 3.877320872856529 2.492242828457267 0.4689111096871021 1.1667918114025195 -0.8685608139742202
Ni 2.686948580895445 5.520243781195534 6.570189722662907 0.1353544403743153 -1.4481854255585058 -0.8626241367748112
Ni 1.4673934191900844 6.486681464731262 3.9877439590326285 -0.2977556004537775 -0.6754043749897722 0.21223890953719576
Ni 5.78025919580015 1.4357640813235328 4.8246209215470355 -0.09565172246805463 -0.24302838411422661 0.15807605034154712
Ni 7.00059612363481 5.059231696124032 0.264794304966775 0.5104735065099208 -0.13387374206373073 0.08460960572128008
Ni 3.383897683789177 1.2282925478563418 5.083288939234685 -0.03691127120405256 0.06696463894600725 0.5836067361604852
Ni 8.024148720852214 1.9371152986668279 11.0069819858142 -0.22022192774267232 0.644499972101432 -0.6729620840968668
Ni 0.49700735683897046 5.319670184163328 10.235419284090522 0.4082788407170259 -0.13646952781536498 -0.4413697097337237
Ni 7.768612366306047 7.742961240016483 1.7839323643926852 2.6292157491579102 -2.954599909962234 -1.3686920580178688
Ni 5.480714006798779 1.6788749530381468 2.0231095728896418 0.5509578397772124 -1.3575121301416493 -0.023288538214295374
P 8.032398652828457 8.809106295407776 11.604561255875254 1.2288237889335998 0.13329730073497045 0.725600279117873
Ni 8.71959867222741 8.130294166713766 3.9257830150741597 0.06229448716384755 -1.4384391448050193 -1.0352469745822817
P 0.932463047281282 1.4457798850271313 5.511097117482743 0.5671691594297521 1.7007148071846323 0.6195918960058426
Ni 7.597258428012439 0.44513855374731465 9.200717782144464 -0.17421743598809994 0.46269881022880316 0.7212584572094094
P 1.314673106519515 2.158391902252569 1.1883111885543105 0.4345606572316903 0.3059229667559183 -0.3008987740684495
P 5.761653161922851 7.201362862887195 4.438489155514298 -0.7425263654492502 1.2823623842816883 -0.26837046242344104
P 4.770603641187096 0.59519166432969 12.940265710722608 -0.8964500841853206 0.6350234000695644 1.0098930691985253
Ni 1.1521577241112666 7.264097295451239 6.446495006785897 -0.6343204604652689 -0.3077373942568377 0.4737108450685906
