# total energy = -340865.2733223027 ev
CRYSTAL
PRIMVEC
9.32723708901279 0.00000000000000 0.00000000000000

0.00000000000000 9.32723708901279 0.00000000000000

0.00000000000000 0.00000000000000 13.65135429134154

PRIMCOORD
 96 1
Ni 5.0615278971055115 4.358627297420125 3.1098464063755684 -0.5932126346813654 -0.19615048861576542 -1.4159386497096582
Ni 1.5661550622926297 6.889694381183733 5.974051625075257 -0.049794297814307796 0.781029663730771 -1.8350822010553296
Ni 2.4833396107196832 2.5606250986309504 11.607979014508961 3.0547065828778486 -0.4199495921867349 0.4125047058729154
Ni 3.9578825486743368 2.051917578635715 4.119036688552843 0.8721464744429496 -0.3344089900107531 -0.7753662947974066
Ni 5.881746487009088 1.3879115583119006 0.33749861835371486 0.5109792425017458 1.4134076557576882 -0.2820091362527982
Ni 7.0099597783751255 7.820841803784473 3.785288552300156 1.488292835102353 -0.009195036235706746 -0.12825973831106297
Ni 7.775707302697986 5.165321393301093 2.8329151358737255 -1.4644407110751037 0.9749209239987147 -0.22327794096017675
Ni 4.280548994342015 6.577521077430148 11.047030571361153 -0.7053582410393853 -0.3395748504824087 1.2105992955057732
Ni 0.5781879757698692 4.028564352607669 12.935668332747499 1.8753212510810349 0.41535451661688466 0.8815644253227399
Ni 3.026520599616686 2.0758605966743615 7.334954302462145 0.4605115727694973 0.7899115396014332 0.8711260035982353
Ni 3.462139888466292 8.856174466545587 10.864757700885411 -0.5280577952505873 0.5384869610037114 0.4005660454538005
Ni 7.465763208648817 3.8431202214645572 9.960424219951014 0.11070398881548676 -0.9418706784119651 0.37307426779143493
Ni 2.411930282280308 3.8351640880843605 3.642550109661815 -1.4209777547954625 -0.627228586615494 -2.495606059388844
Ni 5.9166769905364465 4.212059091164073 0.716166729235977 -1.157338893519736 0.9956879813427368 -0.4113775342470076
Ni 8.96492072572462 5.319136862905813 6.752642755100967 -1.2381309252671384 0.5264063756900934 -0.08311733744646976
Ni 1.6226035021718224 2.0370033262618175 4.927783709354069 0.45046113051203074 -0.22594134672495284 0.9252443827091936
Ni 8.513948804350038 7.453068838742079 0.5367340025049843 1.0575610646984497 0.22739196312855034 0.3871651986668622
Ni 8.321863680279964 1.4825736892329064 7.343664076612705 0.2177834935045088 1.2532988912568286 0.012483734289307533
Ni 7.170462877093094 5.9085249851738535 8.75931017490821 2.0727032981110565 0.5063456003844763 1.7375304333510853
Ni 5.427444741933767 9.281617739547837 3.7385870753544985 -0.7807257593371071 2.1320880678272767 1.5180127307642888
Ni 5.8589227374412784 8.322218115295728 10.820268644617109 -1.3468471942286353 1.0196072111624956 -1.71986566908147
Ni 3.9432014772318635 2.838809949820131 1.5448964231365396 0.3421989183688171 -0.6791365883386948 -0.417684707411958
Ni 4.121538253585162 7.413894442262799 2.8161652832076554 -2.437873737674382 -1.6901771408781021 0.6865246532726499
Ni 3.432059548312558 5.552924064751808 4.435870812763737 -0.3581772960749444 2.3243142816879714 0.956748623965062
P 9.22512266348236 4.711821790629871 8.768087105167021 -0.47926159968349075 -0.306474211273698 1.584449008010652
P 1.78286409272111 3.233249486180207 1.2135715031232144 -0.07353689284688626 1.9401958402672326 0.2829352476114934
P 6.717970616045627 6.382134111371105 10.970146154651935 0.8077999898460798 -0.9814188730182324 -1.3880352384311707
P 8.339417540797585 5.335599436664368 0.009996932892022251 -0.044563388432671644 -0.25591321049669474 0.6358507810668662
P 8.17711428528902 1.3493154505425518 13.646071762082391 -0.2599169323394492 -0.21308557380820722 -0.2527697797717066
P 9.176275921967598 9.187468606675964 3.854978870913071 -1.8191735002448737 2.1756590104396913 0.15203652901568654
P 4.25857402336459 2.607223975966781 12.899451603202403 0.3702905343987107 -0.39301908634447796 0.5043735642597701
P 3.2906119953105826 5.931320753029892 9.244342368574076 0.1071826059257896 -0.053352190368895214 -0.01390581144781476
Ni 0.5787578699662702 5.558371171309879 1.7093542704514646 0.8597432156825903 -1.252705480647204 -0.3003207900777924
Ni 6.6521109937741505 3.9616041163398683 4.571264988785937 1.6198127322219265 -0.3747624541271352 0.8323573674704697
Ni 5.4766086095152655 2.492424339807974 6.009749760228864 -1.4268681521379685 0.6834786673574745 1.139550202077747
Ni 2.7659269178941543 8.136792638627131 7.574058029544614 -0.2712063892103394 0.27197617749682834 0.36181823526164136
Ni 8.948290261695439 7.411068289373936 2.8772820053339623 1.831333018425543 -0.37838513848138705 -1.2955390308729624
Ni 0.523527567272838 0.5668768351483396 8.856125032188125 0.9106196908174834 0.13202023379475974 1.760772177487845
Ni 5.347995334978884 4.970223571597016 9.709935667072685 -0.6040032975389662 0.30876017909439724 -0.15248235830385354
Ni 1.5664348794103389 4.370892614413043 5.98905355347937 0.8495778451138143 0.06768300516927053 0.2196452293035959
Ni 1.168376374994558 7.61840344635916 10.16519438669057 0.1565758116469368 -0.5932895106658879 -0.07994793857955264
Ni 7.430515579054722 0.5124225585946875 2.3973415504866784 0.24396452277525082 0.30932376490735114 -0.30474668705963
Ni 2.143772211142372 4.87475929827191 10.930981085409911 0.025237434410550083 1.018488009956388 0.5543115867407937
Ni 9.17706873713444 3.22917348349891 3.4924394186955645 0.21239908926414386 -0.30330481240678087 0.335136612205397
Ni 6.5961942064186045 1.338701054544118 11.50725884298955 1.5528149260451385 0.42485808523194574 0.3432661832910669
Ni 1.0888243684298466 1.8597018732440425 13.359980211870475 -0.7661979980345772 -1.515223855165242 -0.10945289001720504
Ni 8.211279955361308 8.66726993038014 5.875242604469801 0.8973183457228869 1.0446566979319558 -1.5306988108723896
Ni 1.8615486662209229 9.12628193027023 4.3130907924078645 1.3994792186020542 -1.2715095007275845 -0.4455837478150713
Ni 0.9408943855342756 0.28499466711049554 6.526794897608107 1.2465898546677692 -0.03522668441277804 -0.1021725543057079
Ni 5.469986271062815 4.125698201401772 11.917059406388134 -0.4506503637047013 0.054284986595809735 0.24109414320599123
Ni 6.578547073528414 6.565181142539174 13.079498994868631 -1.1753019057560596 -1.8621785430514897 0.9833374301971839
Ni 0.942125580852196 6.353126403501922 12.735676509654688 1.0266229803586964 0.5081672269742474 0.4250174936279455
Ni 1.9027657276594807 1.526850084491751 2.467332206139268 0.27208930603592496 0.5054750248540649 1.0175153616304735
Ni 3.363970716336665 3.6585715050981156 9.226103888841791 -2.250684314906646 -0.2793264472143125 0.38125783204349173
Ni 6.56383802037417 4.722044442663513 6.9305196986574975 -1.1556861884076612 -0.6130952325379054 -0.3922184448200536
Ni 6.9942154018853575 7.3852878055956666 7.117980378495567 -1.3159579608489465 -0.2531970971171123 -0.2375676181099715
P 7.460996990410506 6.080976274818003 5.22764972354708 1.3092635795479066 -0.2043790471731448 0.8783849991534937
P 5.832358765733423 6.372601674894479 1.9202272485282574 0.021135496427034568 -0.6573380044063647 -0.06607452303157008
P 6.1511637351767146 2.223949142603301 2.9032061285659894 -0.47107289322511126 0.8895489861901132 -0.18711357522447775
P 5.17185978661823 3.314956084551279 8.419595404982239 2.232993839605419 -1.5795636548938925 -1.8182885265367588
P 3.6170746265418487 0.2520331433680833 2.6715427386434065 -1.1694583024910892 0.3014263644371454 -0.5148896332997455
P 2.4624279447895527 1.2400375388398717 9.752350345775039 0.5736236568058443 0.40720977602256314 -0.4231961241484905
P 9.265108529602996 2.9477427537443033 5.826889273805934 -1.282297335371708 -0.07199345961916633 -0.04184547528087632
P 6.555480815791923 0.7626350252502099 6.583270386475345 -1.3001089096318317 -2.2839734159770795 0.7264405156309812
Ni 7.299980893643403 1.5329221159460393 4.712297479729978 1.132048237273747 0.08906841282358209 -0.2637705017575845
Ni 3.2734685332322684 5.168212836850754 1.4362042619335973 -0.4620097545815785 0.32516947369035615 -0.2670085490789079
Ni 4.213793957293869 7.022747420654434 0.021516070904382283 0.030585328986024743 1.034935871099766 0.17021191437313266
Ni 7.904880211469788 3.365015366909446 1.3247829511092648 1.0019614730562745 -1.2721944426097511 0.357536577167152
Ni 4.632530946708356 1.7503213619315354 10.521562938738866 -1.1070236902049515 0.7259468638240143 -0.6439726388430522
Ni 5.589057781885316 6.318186572737306 4.374958357133357 -1.8808542650841222 -0.6990623807283445 0.9273120638714998
Ni 4.096653184583562 5.5043011769312145 6.870413116326121 -0.5726808332766008 -0.6311042675208163 0.22891508464129612
Ni 1.9553340368397731 7.888445619423004 1.2976593451659912 0.2443859265833856 -0.57341076946409 0.8315554403944647
Ni 6.413352374470189 0.7477608799965172 8.932655013881579 2.355865059911059 1.658591138541705 0.02455094986648675
Ni 7.732895283688487 3.416333826297304 12.580078605010161 -0.7446248998494918 -0.7718207435379933 -0.7273116053820249
Ni 5.1797133203886006 8.773647071295901 1.4251468221654573 1.504528580234925 -0.06431537424861827 -1.2776516090695802
Ni 7.840820745988906 8.347159147720872 9.610048417840323 1.4471441287781852 -0.7225869462128459 -0.39422441950648884
Ni 0.26861697121097894 0.3842252788399659 1.4076871667441322 -0.6930357149182903 -1.3438343755442406 -0.20949579957441986
Ni 7.3782550687039095 8.558486362252077 12.480123266945824 2.2941572984886167 2.1209454209468954 0.21675042425430413
Ni 4.463875842627794 0.12362506805135412 8.589964855270633 -2.597990472595042 0.3145896412919808 -0.2275763112252145
Ni 1.5154708550382456 6.121932173613366 8.123047089081533 -0.3858621635847226 -1.3590481071702014 0.8125326194350586
Ni 0.9423027983600785 2.8647210149199984 7.87972558531146 -0.6172704469615177 0.5915391036336844 0.6510632271412464
Ni 0.1754462655273631 5.594794032798354 4.434901712812737 0.17568784988603936 -0.25169942952566327 -0.882038279635365
Ni 3.1424768131953584 0.726869733988352 0.342527864682674 0.4632148306332733 -0.8689325954913423 -0.2521645420875399
Ni 0.3149518877324372 0.1496797726049788 11.350418550342395 -0.19388946049573058 0.3866059837292826 0.9530904583871843
Ni 9.022115344584371 5.287871963620443 11.131096028034513 -1.0834345900311018 0.14652254117599284 -1.7472746572220423
Ni 0.4878266339480532 2.6426954592550445 10.974692250090984 -2.516030645791783 0.7951455343068629 -1.4224643666433179
Ni 4.9124599912645905 7.1312231899530145 8.388225107915865 0.5750290217938033 0.27000208448959306 0.6392950308617248
Ni 3.717379736003322 0.5229315568121174 5.98064504909221 0.7469244945169459 -2.1633344274360677 -0.7536754400875342
P 0.303029813070576 7.929252282422255 7.954480593754912 -0.7228862226208195 -0.008693156898623737 -0.30224346102180205
P 4.396393281073603 7.619588005490796 6.181866202055488 0.35721930303704935 0.018743856266406428 0.056449598347296334
P 3.4972569367387902 3.670221224432073 5.637736633129451 1.1196858590536523 -1.1165002622368192 0.019836832220269062
P 1.7873971300279978 6.8298135179939745 3.488248690996007 0.4542118558037145 -0.29553056777800074 -0.05527254732005965
P 5.325665928985693 8.895339535787611 12.824122969667647 -1.5386985412484144 0.10555689739690853 0.34101132581861915
P 1.486705655337745 8.364666372052207 12.909704102395267 -0.03664901868160139 1.9739335988393103 -0.450497897287237
P 8.245156481078629 1.8012200956428301 9.806300018793086 -0.903111041145264 -1.4179880760395192 -0.5004888844933832
P 3.329739755603579 5.373869091129722 12.751689510577458 -0.48955423985875046 -0.742356158419973 -0.1412407239517632
