# total energy = -381175.74699483655 ev
CRYSTAL
PRIMVEC
9.17788429747752 0.00000000000000 0.00000000000000

0.00000000000000 9.17788429747752 0.00000000000000

0.00000000000000 0.00000000000000 13.43276138411933

PRIMCOORD
 96 1
Ni 5.2886365720778326 0.9482590160421522 10.086459160086747 0.5275428032873817 0.020444641007597047 -1.526334620366423
Ni 6.597457954595324 3.358343925407435 6.23120254642766 0.6508066310457501 -0.2129361927145365 0.4675085729126206
Ni 4.487618355439128 3.2932635471384177 2.6919120411636723 -0.9432662732079109 -1.376018673586269 0.5894518820873527
Ni 8.717769519850087 2.626692159051799 1.590277727786185 -0.7363881137619963 -1.2185879701382045 -0.8305300844537439
Ni 3.8602548895024524 0.053755786709838264 7.839870001182909 1.653646907162552 -0.9429037476621696 -1.1754952527137885
Ni 0.9954241639655032 8.555807393871614 6.990892749620393 0.5197701013204984 0.01455115834129752 -0.793472260369498
Ni 1.9349274782915868 5.145103637971337 13.30210074992574 0.8787518955746092 -0.041903582212321384 -0.3760850295933007
Ni 6.640750035302552 5.888383783859739 7.4248781912828905 1.6331212764053744 0.852174402196397 -0.2245812331526326
Ni 8.564278581171331 7.283633303756913 8.22317424740903 -0.4157275836855872 -1.113065268413341 0.5323965318352573
Ni 0.9691662367016957 5.644591640585178 6.638672162274756 0.06560581092526765 0.9277000433385378 1.6400956508406788
Ni 7.816785786344067 4.241614342024554 11.429721471597656 -0.6559946030045928 -0.06598787685503474 -0.7752385109702906
Ni 6.896234803300668 0.43927465644129216 11.654237304270268 -2.745005637136737 -1.7482102816624343 -0.4474413698491004
Ni 0.278455177070419 8.09196629426114 11.93147549386946 -0.6527781529498242 -0.14008012798475875 -0.19861669076807087
Ni 3.730984387751062 4.603525857506456 9.324122972821957 0.7051016449438889 -0.7155634637071612 0.9844502036453885
Ni 5.156768729041696 0.5561293161785347 5.903120712838241 -0.0566930818166701 1.3120290581081855 -0.9482099903664315
Ni 3.9187180131202277 6.691448668719285 3.606844323378373 0.5466419860106779 0.460809049405258 -0.6398660728738463
Ni 4.218642097375372 6.904146139652085 13.066060247814065 0.2007854162846155 -1.558896356352528 0.6928768207429228
Ni 2.7049152677793185 0.955784881248836 5.957926449523256 0.31256618310404877 0.5695998803584319 0.07355951855470558
Ni 6.0946750914824595 3.8924692637408183 8.681782117335542 -0.35465514185429886 0.1270171241532135 0.2786206793965395
Ni 2.5765625544677664 6.455834020443693 11.303816500055156 1.265196156915047 -0.20257644674676725 -0.5353355598589232
Ni 7.4674387946035665 2.463307460991575 9.744098373950305 0.04534011869769611 -1.572728120029298 2.0037429688912587
Ni 1.9528243528684566 1.3541876650987565 8.167562692473837 -0.6782253893783352 0.1778501476446808 0.7870167345521414
Ni 2.657474783324015 8.586296325843081 12.288666823405267 -1.2990866390149047 -0.01106242846174869 0.862151825124083
Ni 4.261787331932226 3.248870120303382 5.395805810409449 0.0878319693133197 0.31951664627995296 0.5246731950490706
P 2.7941701935537075 4.531139883256317 3.2689430712711114 0.0950318294958686 1.193135848613687 -0.28021862001127873
Ni 5.464861130411411 1.3229186129534254 1.2713398204228865 -0.6653202512808929 -0.004828017516262653 0.6025570520107429
P 6.18729830083106 6.82029698778835 3.048887690416118 -0.20779450061259697 -0.16590531657797877 0.5704642852412563
Ni 2.154031112534466 1.704911339499016 12.447024794180491 -0.5890101665642437 0.24359865479539983 -0.320178448233668
P 1.224164576826697 7.518330163592665 0.3090432301933892 0.3372937677577159 -0.49279588672449964 0.779931802680902
P 9.053083526345443 8.998163066105448 4.671846946756547 -0.1004296034726722 -0.2859447238617785 -0.7607207769700898
P 7.705017510140415 5.964147219568488 9.767417542629747 0.6328374481618392 -0.3888189322202013 0.17110588694231177
Ni 0.481346078523534 3.2652526439545166 12.805868142908011 -0.5720267446323697 1.0807146199967774 0.49914728286382415
Ni 5.787647324702957 5.183072545727495 4.842349094167727 -0.629996122058302 0.5737164736299668 -0.3138360509554079
Ni 3.073031033114536 0.2857139658411095 3.6171474164040114 -0.7256740697786018 -0.3880208617989382 0.5723465898656337
Ni 5.5839258247117876 5.835996419713701 10.485184087679052 0.1639690187872144 -1.2766229106947498 -0.08577817210808453
Ni 8.494104477061207 -0.31842119247166906 9.826763578726647 0.47928216850878097 1.803391040599636 1.0759966456958179
Ni 8.742760899066917 5.895358976002519 -0.007906747409217133 -0.04768753588395013 0.6930102609969936 0.01210321102143722
Ni 6.496501226212981 6.501062634758982 0.884880217540597 -0.22938405385791463 1.1479605376286293 0.9036021218490696
Ni 2.5468537426701627 2.511528065620741 4.074801704141529 0.023500911335417592 0.9788873648456303 -0.3471922578183505
Ni 0.5365088349116461 1.8379447738537487 5.193105808951821 0.3666786486777362 -0.23073696834138324 0.588792908347115
Ni 1.8962151618991576 3.214095116317864 1.5532835113531354 0.1945656606271488 0.5709245127071265 0.19113632323062568
Ni 3.9836423673544723 8.146308547784034 1.6551580281753178 -0.4514018971587452 -0.5414049059814547 -0.8157369853049692
Ni 5.798660785981031 4.841554289378826 12.92108087912638 -0.599879762288896 -0.135943737218882 -1.0064359638878604
Ni 0.9442941699820456 1.3049024258793764 3.1716896192435207 -0.9813458536884517 -0.4379637693759683 -2.9864340237536955
Ni 7.644021290428683 0.3642518760034934 0.5478435221436637 -1.5253318901335213 -0.6809001079970208 0.33518752004799046
Ni 7.749199845634288 0.7874771659973125 3.003176319381473 -0.5676167884901321 -0.3273356281037395 0.24851100449535266
Ni 2.023429817545308 6.253626871378259 1.9259891366759903 0.1761385642702128 -0.8183649098461196 0.7045218611810189
Ni 8.355674446680217 7.2122201852530035 6.034883010203796 -0.3487945693084638 -0.30053907673618563 -0.36118420122206835
Ni 1.3168153198284926 8.342852942175659 2.5123026790639655 0.4522663020415695 0.5373335641255584 -0.8342867232826986
Ni 0.6436248415137519 0.4546053945403708 0.627734252466371 1.2557938897645404 0.642786588954751 -0.3406279743372714
Ni 6.7938830364897695 7.195406301035144 11.931596641943518 1.066911652675414 -0.04761425944385349 1.035969711680919
Ni 1.5982459670208713 5.184541007231239 9.107130251990709 -1.2844125819424976 -0.7452815595968842 -0.8341396561818731
Ni 6.58690338753717 8.500574885562074 7.407174052278387 0.25605642094277836 0.8590343625410238 -0.8182623228299843
Ni 0.552959274907329 2.6832829942523015 9.817508600099307 0.6583330213297822 0.5489351529202288 -0.32342163776131394
Ni 0.5427387828412765 5.595379824440984 11.24850047299759 -1.9986596408310808 0.2621054553503357 -0.37234381738331357
Ni 6.474556904616419 2.319682748041094 12.9894671313557 0.7164535796215984 0.8141189900855721 -0.7635572179776204
P 3.9554020170606115 4.763055844119355 11.657931402740623 0.1053064719489993 -0.2689990971463755 0.7590744996159186
Ni 6.378391031890038 4.139941738659136 1.9438015747163948 1.4956011958383082 0.5264336293836029 0.16734719123082792
P 8.480842434105526 4.661392418638336 5.88334787869034 -2.876113900640189 -0.5807620676228384 0.6690959162732412
Ni 4.267606110640808 5.226171890862358 1.36022854860978 -0.8187390053560866 0.7398637310154225 0.7655763052901783
P 2.5720653911125533 4.086700831264047 6.986728743468841 0.8674570393870802 -0.04602197525606913 0.9247936683250202
P 1.3001391038766095 0.8099639005618197 10.383779478538068 0.35416380404017717 -1.091532536547888 0.609177385540738
P 2.87534858105751 8.107265827553263 5.260322798708785 0.49328208233229887 -1.1552354740234878 1.1524327144673703
Ni 4.61345632842552 7.931032091335285 11.15226851950354 0.813756721650147 1.0687175955359014 -0.4367540653385833
Ni 1.1184995937479778 7.377697440956062 9.666242380598721 0.5349956600210012 0.5333252142971138 -0.01300206868662277
Ni 8.626522993161247 1.0929483635828465 7.88857703368519 -0.25442891264168443 0.17030550252820345 -0.28879839126048973
Ni 7.9666422828010575 5.810142319363424 4.093325428222809 0.18896014151491328 -0.025110936135014823 -0.6613833781203319
Ni 4.105809186581506 3.1467936900244347 0.1690942599444659 -0.5957937651449803 0.00334654787472972 -0.41198482881370335
Ni 7.62191176691295 1.0363758841511408 5.558933527706518 -2.1936253651101256 0.49058396667484544 0.8749721168172027
Ni 8.46080711246383 4.222193938637551 8.460490475452085 -0.16723200580920233 1.4987009178095545 -0.09782584730123797
Ni 4.85662437556099 7.272959424201581 6.090010890631195 -1.0149002926051296 -0.1381479439590524 0.5696631294961997
Ni 3.346293363192343 2.0629314319959993 10.12389666833624 -1.0173649520955381 0.38914134855662663 -0.01705412726880934
Ni 7.94964484089523 3.179053953684793 3.7293911070195005 -0.9143431624156576 0.028531274670473443 1.382330988957542
Ni 4.655408438010582 4.997651747226725 7.288481980084586 -1.7720163829430966 0.052102377122194135 -1.4447954260403506
Ni 8.771955749338211 1.2895202916276665 11.88652955839364 2.5570739368863378 1.2214784043121223 -0.17997567862811584
Ni 5.1556031377231 9.306374779972343 3.2133985148920257 2.734232457780633 -0.004147446509470277 1.3038886883892382
Ni 0.9777475586141948 7.224426771502868 4.479114127755576 1.0832240166821925 -1.4776415260360938 0.3620717460333442
Ni 2.104828474274672 3.869965091195954 11.130506837806506 0.4403775210237835 -0.14979401283841298 0.44597301283369
Ni 0.682738231454391 3.0386690339269453 6.941124753681658 0.3547039928143633 1.167984289048724 1.3748825030992968
Ni 4.344672805934129 0.9946256880228428 12.488411546086613 1.4078694995482786 0.19349145372636356 -0.544930659746526
Ni 4.334980960009425 2.3628096268291516 7.704293375061382 0.06761744203865774 0.5894192290772042 0.07738326317616995
Ni 3.082704523270444 5.608238040483136 5.464406825133691 -0.24741751432085776 -0.45966310872627286 -0.284821923111245
Ni 9.08293918429342 4.796757035630261 2.2171850528682606 0.30210744966457004 0.6860963074859797 -0.36780273497985044
Ni 0.9580518186952395 4.443390130523264 4.601970206100929 0.5296482796661588 -0.5789242430831514 -1.6743987949979227
Ni 5.419549915136537 3.195454833104724 10.954403427546987 -0.4484752104302534 0.23973068719956134 0.3574962108475198
Ni 2.7040617245302676 6.926888937191307 7.700021987662368 1.0802873026513717 0.2684555659380796 0.3180197500194523
Ni 8.308050404536946 7.529903475819041 2.2932944948188294 -0.46708536933227296 -0.15071652465268237 -0.14655159464171535
Ni 6.356492599715468 8.072389866839362 9.63435290346806 0.4618835134163594 -1.1691230306388574 0.170478537770958
P 4.643550611367856 6.9330748312758255 8.863527173134754 -0.8430217891628513 0.21159407686434525 -1.3474817424888408
Ni 2.8338461878079686 1.063065171981673 1.449744126301084 0.5684770796078984 0.36737567474476085 -0.8431624285057737
P 7.639046877084753 3.9954175930376135 0.2059278634005438 1.5191473585893642 0.14771296193966818 0.4940066192031492
Ni 3.064963672728347 8.710463923868964 9.756470162119342 -1.487311702136006 0.13967646478843687 1.0716887623490834
P 6.5057800673397574 1.724717214030752 8.044195405967494 -1.012619724101069 -0.8926163122615272 -1.113280726858257
P 5.618370424858964 2.1029011185510087 4.148010016833765 1.680579469887338 -0.4513149938718937 0.1104751606341323
P 5.567020161649944 8.639573944775764 13.499656547178068 0.7117399761960129 -0.5559709767210876 -0.22585264366588845
Ni 6.645439934230132 8.086679832847663 4.852437424698443 -0.12723978168698089 -0.08015079861897809 -1.5533286324567637
