# total energy = -340866.4063490877 ev
CRYSTAL
PRIMVEC
9.26779778370370 0.00000000000000 0.00000000000000
0.00000000000000 9.26779778370370 0.00000000000000
0.00000000000000 0.00000000000000 13.56435885980697
PRIMCOORD
 96 1
Ni 4.685400131353009 3.432940647751403 5.997115134747302 -1.6874013779051777 -0.6512015524913236 -0.38356976800612
Ni 4.745640818068442 7.907377894226963 8.83703070721545 -0.13251517115330727 1.5627303853866377 5.225978777103755
Ni 2.485660483050185 6.288905265940337 0.4682768076733442 -0.04971742182978534 2.6198296799573204 -0.3699478063473112
Ni 8.210360745011725 7.94323500451958 12.773258196199615 -0.2914947071457302 0.497905182926607 0.6501057483239836
Ni 6.178414578706275 6.405410754047986 7.854618174021789 0.688968229717136 -0.7964184874820155 -0.9009891097062548
Ni 7.398603589824321 0.2978920493674113 5.417089999657237 -0.18855596409795913 -1.1647819800613424 -0.7465120895698756
Ni 7.125602065427931 3.9373034803268836 0.09954356428817403 0.2225462050004748 -0.5901859320398997 0.1861884923070471
Ni 7.31510999803673 6.734602937452941 4.876767184231825 -0.8176789395226886 -0.32126705331215644 -0.22446913305480054
Ni 8.606633250023807 7.569974441832795 6.462752473562714 1.123874186103387 -0.5426027829442978 1.1828632630430853
Ni 6.439358697961623 5.833559816755308 12.2770741953205 0.6476338897447234 -0.15231857903247958 0.11815555999752553
Ni 0.6279618932388203 8.95993097591289 4.726202538635065 -0.10191210155546966 -0.6799261741195258 -0.4145271356195829
Ni 1.4773147976154293 6.245800737645956 7.861034270546881 -0.71140213324062 0.8790205758549635 -0.9914284347354344
Ni 5.963957733999331 4.967993826634086 3.500635424363025 0.05109733289644748 0.31456161626752277 -1.3278326007993455
Ni 1.4797800318717842 0.2097728996198704 1.8551972111429806 1.8855359868305075 1.107058914318261 0.16334038406427998
Ni 1.0627476594377703 1.932947548537102 -0.013796970817425579 0.016118502828417404 0.4856621038931958 0.6214873132563425
Ni 6.9394583434772406 7.160143148410766 10.36999307087921 -0.9092976295719503 1.1579279332539862 0.44670140635928235
Ni 6.534298020225146 4.549441535335252 5.735051465498843 0.3460121214673202 3.5341854407784683 -0.44698345637607534
Ni 0.9177001339643489 3.5438391180955384 11.594474926010577 -0.581128964043954 -0.02532922279340799 -0.4454703621656586
Ni 7.186148589475921 2.579441330569181 6.12981517300365 -0.376951491358654 -1.7532910386194513 0.4558709886736923
Ni 3.6835048332957827 7.045426345308668 7.2255302433312885 -0.7195062504049932 2.670175993620356 -5.056321963903144
Ni 8.507810720416625 0.3587722141418243 1.456310260327451 -0.7911186725356569 -0.6688421483912224 -1.317954422453685
Ni 8.402018806746367 4.202686874803259 3.3040746975095425 -0.5513054529246183 0.2109011645623787 -0.5138087415307409
Ni 4.930672404264386 1.1980019028108535 6.047235386094543 2.00762739154733 -0.6314899329950092 -1.8826949178372865
Ni 3.4466291853327404 2.7340282004789405 8.165540747315648 -0.5108928534355266 0.8782718706143972 -0.506572885903934
P 5.38620320940854 6.83926417977254 1.748906689942678 1.8147573734550488 -0.8110328949610808 -2.0426558439063722
P 5.087520616875464 6.29527224313626 5.286071139950146 -0.46545631836928225 -1.101934191497186 1.0246352605047062
P 5.075389069350771 3.4548497221199086 12.796467542621379 0.39788592751847607 0.3925714572840981 0.46512361762021187
P 0.8061519909834823 9.122729114811861 13.064200323879657 -0.5162098947730658 -0.5927536927670759 1.8610747684643498
P 5.646405904827389 8.470971223540648 7.1674888050708665 1.3789458745353929 1.7208761126238556 -2.5666471823970696
P 8.932507561760433 1.8971831162240467 7.458064854731637 -0.23068374650594464 1.101169802527336 0.07402900199195638
P 7.613273593884259 4.145606507190897 11.076466187724357 1.742237351908451 0.39919796146168024 0.2642623537923384
P 2.4266431456649724 3.321347092560551 5.302388951811664 -0.27533429533578385 -1.4496694663032001 0.09630066890596319
Ni 3.5468140812394853 4.901970033993971 4.074597566030131 -0.157843879726083 -2.289206896461877 -1.0945029320301214
Ni 2.8761313465416705 2.3589233459988685 1.7468455316772145 -2.464595984160575 1.9179115749477353 -0.5095761915066321
Ni 2.36242657362632 1.4740339971389274 3.9687546794711137 -0.2575682296016145 -0.012930849129055148 0.6633081059468706
Ni 6.207598874470414 8.809403401507955 1.1127251866964856 0.04454281960738135 0.09721392474885193 0.45923964803560907
Ni 4.260953520554018 6.838105705028013 3.413280867946872 -0.8206038264789673 1.7295276176512664 1.5921507475302838
Ni 4.6186256470784395 2.4609432659009447 3.4714047896091054 1.0109392510748525 0.25759368352291123 0.47132254734207213
Ni 1.5156000709725768 1.2032196730602056 6.4385264497051535 0.25976755124577844 1.1093163428938702 -0.3475874363742401
Ni 4.771831615092721 4.0965242492147524 1.3863587749134894 -0.5605791649170604 0.3507622345577959 -0.1359087702158885
Ni 0.35430328196733474 7.558602853740513 1.4215180200200035 0.57083195299332 -1.343425570141596 -1.1706865184712352
Ni 1.3341643903836462 3.74609027289414 7.4935623744635524 -0.7057210236954427 0.36903892137979666 -1.8727745733997812
Ni 2.7574293903183973 3.7467482865490322 13.239221761503087 -0.42083559433611395 -1.3179554508949496 0.8272061622868334
Ni 8.088637486654724 0.8391527659459925 9.755080237162748 -0.1318456558901084 -0.04915872111283792 0.23361377566854605
Ni 0.6008369021805541 4.4049194940059495 0.5872021178273623 -0.6919918470348082 0.6519926809340513 0.5276461616344655
Ni 6.801433028515248 1.9162099054281674 1.9354711699205807 -2.038150499836851 0.43016535637747205 0.2919348800069424
Ni 3.7786758505082116 8.28783953592573 1.7439289556603919 -0.823274431332595 1.10553682124678 -0.9493289344622231
Ni 2.0170064760000224 6.1846518067308125 10.221884391740849 -0.620870248497634 1.4032268585699448 2.294349874115397
Ni 4.1517695928317835 3.603227167399 10.278406837916245 -0.463230514362557 1.4472711412743529 -0.3049096950000555
Ni 1.3966108130126604 3.8656355987314295 3.4247562553762645 0.5215115094916374 -2.27160666688161 -0.6109851281734381
Ni 3.067984032033393 5.103961690449799 6.278290856941078 -0.2569920453831703 0.2859735202171849 1.0961800626222282
Ni 0.11018948380048461 7.988369180566374 10.453386570448872 -1.8578608895127424 0.864411567692537 0.2610721289898149
Ni 8.560674239958907 1.109874412045152 11.96958348760983 -0.002514538891737605 -0.345571691495792 0.6878667691228412
Ni 4.8997179590906095 7.604200419685119 13.02461941236823 -0.21965011439960236 0.0650936471755395 0.5702688814009985
Ni 9.232747144350157 3.2290583605125063 5.375026245073339 1.4589984570136099 -1.3782915287808457 0.41887769927879476
Ni 6.760330344579409 2.238757077698512 10.937295372934974 -1.1515120024253134 0.5012771847226335 0.8456702825292919
P 9.164221046261861 5.3102350695614 5.319629836349621 -0.6803097827111896 1.6002623208938247 0.001744236384616351
P 4.423714588261165 1.1713569836867193 1.6605623327048007 2.9880679598126925 -2.198276747839208 -0.2771456375129098
P 2.5507760314905905 4.924240552482769 1.8749468885876865 0.5881758435884064 -2.6704199913103626 2.4272352841239293
P 8.15686701520842 7.135370324473788 8.687795990625407 1.5650117252216467 -0.3481566786141488 -1.5246387207212388
P 7.843281803561741 8.438617340875481 3.5180384953652157 0.12202995535126726 1.346788573076558 -0.3952268926290742
P 1.9004083099128113 8.451564454620323 7.158672348875113 0.3323731905276469 -1.1548307823859016 -1.5146379007547848
P 5.295091487700936 3.924106136037225 8.020374594028386 1.1807680710769535 0.42327377146396133 0.8993515741028317
P 4.473149022559645 6.993109625845802 10.749714215521275 1.1113428864055959 -4.882235397065952 0.47286803745232114
Ni 9.23737177553031 5.10837316227696 9.307266727376739 -0.7736865931021385 -0.37081966742930333 1.31448934672322
Ni 7.50797287350568 3.3519586292099475 8.871076889787421 -0.3033868305976259 -1.3580731448514418 -0.4211585248931714
Ni 3.654858069813105 5.644339185883152 8.7720300794697 2.212881899346892 -2.9024512529831368 1.343819206035589
Ni 3.711660403486781 0.4922034816569189 7.640830464327284 -1.720712847573114 -1.6465066965733448 1.0768492235041003
Ni 0.9282997144868784 2.407162234360997 9.31202759518685 -0.5993786542827613 -1.6323311764039115 1.0122916513376887
Ni 3.525674234101346 8.617356092259152 5.060808042826249 -0.9374391250031726 -0.0039962656435866654 1.2993622612737945
Ni 6.030750753869813 4.966918762071165 9.983720519861892 -1.0827661032091673 0.6341867631008821 -1.0637815916868647
Ni 3.1646842359085983 0.3228113045120972 13.294211313896527 0.2400037383552899 0.39919924701326087 1.8458702928097694
Ni 3.9104268662538435 8.795279277422676 11.176611232099889 0.7225290963917169 3.8797265361466415 -0.9271344006430549
Ni 8.96451853590122 6.008146594654591 11.499998993644864 -0.5260765031545004 -1.4012216552144579 0.858718888183134
Ni 6.086774592515166 1.4617634326448914 13.089376297027728 -0.09788781088742496 -0.3054637677313126 0.3502575270072355
Ni 2.1299067907027016 7.718426029495537 12.085640414296398 -0.6321514778384081 -1.2799080092039248 0.4464633222065473
Ni 1.3472319855019173 6.055458703221098 3.771841776295295 -0.6087158725232872 1.9588566499015299 -0.1383441191302585
Ni 8.060926770765626 6.446476366792 2.611125151442112 -1.0442656331411242 -0.2761521632513889 -0.8689619060673809
Ni 1.7946071284445972 0.6399979824445641 11.333401984363638 -1.5597736167511587 1.6255540055810775 -0.7306039029800513
Ni 5.061496640214396 1.454191641714659 9.555507475973494 0.19796594455794936 -0.7292427609664667 -0.4833378266353934
Ni 4.061251010193377 5.3518752857787 12.504562490733687 1.2191052760942551 1.4563458498821114 -2.006428229032906
Ni 3.817887903660981 2.0750877657916567 11.793708485794633 -0.4753365535974718 -1.5521364119208754 0.2698030811049096
Ni 8.16574556565048 4.960607391662978 7.340244266094 0.6975996801398889 1.0584385822073965 -1.5952700098855557
Ni 1.8980450214339752 8.251454161149608 9.303414103766338 3.725777877709906 1.3310570212739141 -0.229132857079057
Ni 5.2558238277604294 -0.0032455828442684476 3.687362090805162 0.7457890953609221 0.3212446847146532 -0.868526361191859
Ni 0.11366120091488484 9.137186879623565 8.195477588273832 -0.9123839818067577 -0.06438633669586975 -1.3404058094786657
Ni 8.954889293824706 1.600196530716958 3.3436824856350427 -0.03944252226633852 0.8734574799448893 0.8990821224915291
Ni 6.92384210392101 0.927993877154323 7.700893209321959 -0.6334120897183865 -0.6067425508470002 0.8017715242638126
P 2.2372834978234732 8.09278946013911 3.3797638766382008 -0.24885218988485527 0.07677236906504842 -0.24706398763618095
P 1.6575549322680074 5.505887552215173 12.24458778314456 0.5208373662427481 -0.7650952518887018 0.582766499647377
P 2.850895132706882 1.1445267086034607 9.617008583210973 1.0083884596285408 -0.012479363413933346 -0.4458413723518322
P 1.9912605332776416 4.318061691560249 9.491795998923454 0.8472412265608376 -2.537436108050753 -0.6991631679722669
P 6.4609155960077915 8.83813357517224 11.852211460393276 -0.29642634011939273 1.1326570745023397 0.3240091348336678
P 8.67043277115443 2.6994685819001933 1.317377627945544 0.9918490672126209 -0.23103521630809243 -0.094326833009044
P 8.216329206895532 5.969295985622115 0.10747957967808572 0.028855490779111592 -0.28843817970759356 1.4807039670115014
P 6.8252790726566035 2.879727252148684 3.929933727392097 -0.5098173609831608 -0.07715186389165422 1.2214938309310899
