# total energy = -381171.2047503674 ev
CRYSTAL
PRIMVEC
9.20571698343918 0.00000000000000 0.00000000000000

0.00000000000000 9.20571698343918 0.00000000000000

0.00000000000000 0.00000000000000 13.47349733339483

PRIMCOORD
 96 1
Ni 4.432120068170915 0.8620086109992365 2.0562984977878775 -0.9693832820099371 0.5670025519449008 -0.992355574535394
Ni 7.027957354350257 7.312331158285153 2.1405077940714055 -1.5267912482878674 0.4412732933651755 -0.08681406957176661
Ni 4.599774586226736 5.307372023650445 9.078590653894583 -0.20141456522818216 -0.9642603589610748 1.5708213899248882
Ni 5.259686409575706 1.7722109916517692 6.7989559381874765 -0.5513224222054828 1.031768529115378 -0.14339325151839175
Ni 7.985664917024274 1.5888239032380864 12.853150959410756 0.16504065458483835 0.06992654978780861 0.02128924839607946
Ni 1.188596150822381 3.670650774846554 1.7916516248183783 0.6385599524679131 2.004771410155773 -0.3091569003121837
Ni 6.687465499566016 3.775200102847869 10.061684822347347 0.3460823125836233 -1.2588424467828772 -0.07534180726610895
Ni 6.056919913456121 7.6482569774359845 4.892388427450879 -0.546451981487059 0.7584080696765132 -0.06773057057775433
Ni 4.1923571688318075 0.8871807235718169 4.71425504173072 0.5166536671787038 -0.10620455828323645 -1.1496386966620007
Ni 4.269795660259743 7.8693046541083085 9.616425464068822 2.7929513117780806 -0.041123766623503366 0.5515998442365855
Ni 7.25699559338105 5.235815985387328 8.346387255493969 0.8813970465069402 -1.3393861099648998 -0.44260383925114094
Ni 7.867086076310622 1.6755969917069071 10.242996942148588 1.124666085877063 0.29395345309886795 2.007784485950484
Ni 4.659013375140045 7.863238086603433 0.5454525409940929 -0.03957339141724797 -1.7427878250952824 1.8474695189760895
Ni 8.212558223993403 7.031612024000387 5.641191574751025 0.37143621796737963 0.5539580600561169 0.23350270401197848
Ni 1.697396129569645 4.60981802347684 13.159713303037611 0.08541513234171096 0.4520906956956537 -0.09505188410052663
Ni 2.776563922379203 1.5843038961896894 6.487920536668939 -1.1397448345870562 0.49208394825913954 -0.24374392212401244
Ni 4.031919932906218 4.591259297999104 12.50624824330573 0.5965558401219855 1.1574998445776323 0.13673615121319033
Ni 0.1812771380766306 1.682087022193913 1.8262117275904601 -1.7854431978719638 -2.634286735922915 1.4232670650502715
Ni 2.553638279438299 8.461333520278297 10.923610581893557 -1.122644427461344 1.466542845019771 0.3080166160601534
Ni 7.920608114965165 8.930797470272402 3.722997243439834 -0.4526689367966269 1.300232836804206 -0.3415653985498763
Ni 8.938751209762861 3.773828451014445 9.201482373024069 1.6328094015919103 -0.7405095921295376 -1.2884525563398261
Ni 3.310983411545385 0.3362728746818379 13.100591426730237 -0.9523044721507793 0.7736922495290933 0.47504807582277536
Ni 2.6799591281513435 2.76002124892509 3.6168258681026177 -0.42123540087769396 0.03945846310593849 0.14607234101245167
Ni 2.447542390980506 7.291977317991863 13.209524517168306 0.5158005751497892 -1.7722668083910058 1.4325420625942942
P 2.139758448707374 6.517748900901558 10.073743391049375 0.8383719490956658 0.41266257160701836 -1.2209711256584004
Ni 4.820417211350933 3.191640496320498 2.647474914563403 0.16058570413727827 1.7084813385039286 -0.7070590257805758
P 6.736320239700117 6.926307827204838 13.314954832286794 -0.20549413461419447 -0.22796789023667835 0.8484445028403195
Ni 2.888993344134953 7.7572526667496735 4.828443676005715 0.6436545933820012 1.153831908807742 -0.39668727922468455
P 0.7192500340059116 1.0692256184464848 11.15222904022902 -0.5369936642876365 0.47102275671346616 -0.45259591746684635
P 4.63699330006924 0.2065330226739369 11.527991679137966 0.697915668718411 -0.9334418309183214 -1.5915277692343042
P 6.742414424355999 6.942316569072787 9.854434674318886 -0.32448376047724115 -0.9715975160524363 -0.8476603163761274
Ni 9.022486411620742 3.7268240599979165 11.532909373160884 -0.20081395552970577 -0.657062639257791 1.3027208933333823
Ni 3.4867205491297035 2.7394280599897245 0.18936712217873114 1.0540561368689847 0.790465098112058 1.3296390578804649
Ni 9.108127196898213 6.759969726680425 7.8945126689772 0.05743973017470753 0.3291767950775363 0.12603444852497003
Ni 3.7878579637267817 0.4387693277915184 8.349971041123176 0.3548366617374856 -0.29182483679163934 -1.1326832997545848
Ni 2.6385149902045337 5.1511233889611505 3.901008193123855 -0.22159875348554092 0.32248421354870915 0.23858937450626652
Ni 5.056405766718875 6.047060590546074 3.3270243734228435 -0.325111366758911 -0.6097067756816468 -0.0161041046507142
Ni 9.079267274094294 4.376941000455861 6.640992278420551 -0.3885206842534922 2.040982312858691 0.10506530247247066
Ni 1.6356994142165753 8.542721264300454 7.660586194217896 -0.3649380118375457 0.05558802167794943 -0.061057786543269044
Ni 2.2734806938907055 0.4592529686945496 3.2676732747620987 -0.5386006037634402 -0.6004945130547594 0.48155065282798365
Ni 6.954339235478503 3.8729187888330734 12.657286442171415 0.3081202315175532 0.5554436434627079 0.051239000680634327
Ni 5.642156333892923 5.417371136117445 0.997608822451149 1.1062191920257853 -0.5639889619295577 -0.7010439299347475
Ni 7.545060889834088 2.154450773043915 8.121811027494456 -0.5194759671188472 0.6042354681544304 -1.9620908405681112
Ni 1.1383145245528394 2.0963074644539437 13.2208291376478 -1.38668978014687 -0.39621599601522084 -0.5249961256061281
Ni 2.0103444790813736 5.080966619682466 8.488384519691158 -0.6766305340873896 0.2255464252793793 -0.33975945568938903
Ni 8.706444941196057 5.2825902334787855 0.32468747983375706 -0.6679394340712947 0.6447347138200573 -0.4261292386348855
Ni 0.8424676355172968 6.523732616953407 11.682991098029973 0.9835644586063255 -1.4721563345518065 1.8477484836690885
Ni 4.2277347392737425 7.010521726346869 11.706973831965787 0.44203613967312905 -0.49081973683473534 1.1038823163624925
Ni 0.22721734820763018 8.263143638924038 9.853828938140103 0.3012666989308295 -0.08210715101440053 0.2780061857409922
Ni 5.700548196841972 2.544110362340354 0.5575378062754283 0.8413752546983639 0.38293573396654695 1.0733532945356998
Ni 1.9123404158690815 4.380190618557864 10.770350122943386 0.21229007449010537 1.9092130187324732 -0.9232695183710099
Ni 0.583099320677229 7.691901281746475 3.601115391465562 0.916655612598918 -0.5699590634700636 -0.7756061787223546
Ni 6.233964262854844 1.5927455386812988 3.6410507123956055 0.30878948967043596 1.049789905393463 1.6251961080210269
Ni 1.3072118144040434 6.194232388270564 1.8287037151831307 -2.097749956667039 -0.8373766750619319 -1.472845390199031
Ni 3.392030544038436 6.965027072918807 7.86934423869142 0.1334847341554282 0.6102523637724716 -0.0661007482838152
Ni 2.495522587999336 1.5322547722556017 9.792134063930432 0.40288878004970613 -0.2714249329790487 -1.4728068236516119
P 4.087688166509455 3.530097887647111 10.634294228499833 1.9811172610719427 1.0390041276318687 -2.287758079830492
Ni 0.3340119505859391 3.6761281764632474 3.96906329721079 -0.5396604124865222 -0.4039236490721237 1.0072959978953102
P 6.755698273991106 4.135125226225118 3.3885305304339544 -1.0951127976999786 -1.3410308446571744 -0.1078328379152788
Ni 6.620438674068298 5.170878857649257 5.294720606773435 0.055193614453008175 1.4816300783701968 0.10337325948202843
P 0.43314095241597866 5.777857808231867 4.572177687795605 0.8225740628314607 -0.5179811277408756 0.628532135918266
P 5.163560312631994 8.381925005411754 2.985174675380682 0.3379380862099341 -1.4822168041116022 0.4276073658423087
P 0.2750115897430028 1.4287917188606225 4.008217052767292 -0.08961014425966503 -0.5030023949438563 0.5598685120032809
Ni 0.588641162312942 1.1639524464057638 8.723321782177374 -1.6237138670485456 0.7325957365990996 -1.186641756248911
Ni 4.3129428558520795 6.230622587582811 5.860971624192056 0.1751224643008726 -1.0921696559112546 -0.9605561706366103
Ni 6.241319630740118 9.143955847473288 13.099688345892258 0.7678656155449872 0.48133596571401616 -1.1948415184508843
Ni 8.557017742805872 8.38845185876677 0.8050215404648225 -1.1662323393546237 -0.00018383387603194146 0.03947260417332557
Ni 5.899750707066542 6.81944786423581 7.686185452059408 -0.19700332353436395 3.4594938655018486 -0.46456903066832245
Ni 7.1523081796246935 2.9977496848065686 5.592929682791908 -0.21750350037024477 -0.5380637574233637 -0.26895024618631097
Ni 6.242221791006397 0.2168563137209277 8.141144874343832 0.36353393240116744 -1.450190886024309 -1.192664051183591
Ni 3.3632626784045443 5.19589999646299 1.4109178987278979 0.06959513459031885 -0.5593751173066303 -0.19125305131414805
Ni 7.878979862678298 3.295582246999625 1.487850996292377 -1.226796731201242 0.9072651725229536 0.271359626958752
Ni 5.273531807947985 1.8731516785879687 9.587794763618273 -0.3494939093683336 0.12094057894183043 -0.5666721651886757
Ni 3.7371528744751092 3.208173964057608 7.993084724928567 0.5642478720178992 0.3175489810306208 0.9705821874140446
Ni 2.6333966115509515 2.524299659350231 11.649711510492986 -0.15835372948296597 -0.9306323864939844 1.338614779016514
Ni 1.9459228714954615 6.427983954406813 6.337798306645038 -2.9976028958863217 0.11500518729400191 -0.9538998416623572
Ni 5.478294571242276 2.1760289736985845 11.889822385934801 -0.04542779331549596 -0.20016809441559075 -0.6621937898367692
Ni 1.1450715208329278 9.19327087345753 5.410942783934358 -0.9588031925012456 0.21667406249041396 0.4669966662732086
Ni 0.7133344402598831 8.571461512783337 12.466852377392055 -0.2821343489767528 2.4222900243035124 -0.3936976004687413
Ni 7.929951917723053 7.557194024843838 11.664720511494426 -0.8771711813510507 0.29907174816203974 0.9523124425705791
Ni 8.268703891993757 5.525924951014997 2.7951714381570545 0.6049474066197905 -0.21044813618536015 0.24544264998267404
Ni 6.9419023118076595 0.62173203265137 5.713800747039268 0.9741537068153867 -0.6685729538902356 0.37839593711466446
Ni 6.8283037639925475 0.9824341185436586 1.6706866622575893 1.698766939429642 -1.5065867483155344 -0.7744280992538534
Ni 4.612607355728702 3.4023961813836396 4.934601242767426 0.20373267183839755 0.7285413640240678 1.4410439294177182
Ni 1.519974345773806 8.95430887149767 1.1500021028596519 0.6178636004608263 -0.5770203411922192 0.791105045688902
Ni 2.435832718952887 4.280437469115032 6.264812620531379 0.5724617752872593 -1.5103534144468183 -1.5593789524159016
Ni 8.619045863971044 5.7572370021454935 10.30343983884587 -1.509650731952839 -0.38265779771481195 -1.6680512555133404
Ni 2.964434194973271 7.2367982502768085 2.6498324986878314 1.9697766392481433 1.8593711555096817 -0.6650824242384739
P 4.071486104584448 8.81997904899215 6.3770468810866685 0.09577693519200925 -0.9778319269979223 0.7339553359507875
Ni 5.907446686480921 5.428915105239012 11.257376739835522 0.2541633176851235 1.805202382776762 0.9147074877336118
P 2.325023503389637 1.8047347898228219 1.514555860745931 0.45739668128959937 -1.1114524154002665 2.0014423457825403
Ni 0.13736218568625702 2.219295843611958 6.163814858149762 0.27663990152108486 -1.8882194471999418 -0.18429127528433423
P 5.4111020428385075 4.851164306140437 7.115326973280863 -0.6048209083442552 -2.2520739961653216 -0.5478241792442372
P 1.4595204022161203 3.042268532232329 7.782723044553147 -0.4286782303089843 -0.34234675680059107 0.28576243264764334
P 8.223522232943793 8.879484803698544 7.212160989862093 1.176245757726568 -0.4683580653971095 0.3650313428823004
Ni 6.560932919361906 9.026822304329082 10.276398045150012 -0.9382428518513904 -0.16480565575589684 1.6689079470866808
