# total energy = -340887.0795375593 ev
CRYSTAL
PRIMVEC
9.13652061638924 0.00000000000000 0.00000000000000
0.00000000000000 9.13652061638924 0.00000000000000
0.00000000000000 0.00000000000000 13.37222145574850
PRIMCOORD
 96 1
Ni 6.304847998553413 2.5739680303859505 11.671556220966307 0.7317930381921461 -0.20153952084182064 -0.002387012174937824
Ni 5.126273370114606 0.07732237496106566 5.921821294483607 -0.940301277042316 1.101222253031826 -1.3741844485910075
Ni 3.011050045718861 1.5099196893318718 5.015546048050545 0.9354370069714792 0.633197145494103 -0.731032762987354
Ni 3.6522784803038157 4.144554217383128 4.6030659420946485 1.0322313276844095 0.7891072985325829 0.2747753375085203
Ni 3.9114998465327364 2.7752821282108497 2.6883517880472487 0.09062932955279876 -0.33901126466945486 0.48648614245638794
Ni 5.1145694870559835 4.904950291885036 2.3560117600463903 0.7847492786742033 -0.3501559684323647 0.6389751856284608
Ni 5.030961185830802 3.0562849598665904 0.6635334226497602 1.3063543763209116 -0.8407707883451455 -0.5523164106876359
Ni 5.80512599707693 8.140639972859447 12.185477289313523 0.43015121531008504 0.8555682583692944 0.4449420004660144
Ni 2.0532503042656605 6.806360758093512 0.4554564721784969 1.0154319967388834 0.4198454625087027 -0.2742986549824179
Ni 0.7746115871099577 9.008865265048994 13.169551837089898 -0.1721078458442649 -0.06312701036747193 1.2048839902885509
Ni 8.12131623150973 0.052541389777691155 6.981610189572089 0.995932493253375 -0.19641788334453913 -0.05241965125229681
Ni 0.13763711657816063 2.74204346578519 1.3464755562920516 -0.2837675137048016 -0.9446163594779021 -0.007308617846271284
Ni 7.343286671993659 0.49453337135236874 4.561090938544355 0.29919310423125245 0.7992585280339718 1.0058703211923772
Ni 1.4086961761339933 7.910518425164261 2.5896773641338005 0.18960548840839603 -0.5992534415588067 -0.24670866117929124
Ni 8.287107536725788 3.938215033155229 3.408659550530172 -0.6762487252679386 0.5354684858923617 0.5599834403145905
Ni 7.772237183874443 4.296704697145224 12.815214721772927 0.474313511649596 0.0649956881450945 -0.03656082984316929
Ni 8.705377455870014 7.581073760583603 8.803080667629573 -1.0441239653569372 -0.39237528211289197 0.6237699386429322
Ni 7.199770204323989 0.6882970484437425 0.052299271978273894 -1.07565314631347 1.0146521811500655 -0.08474458863724761
Ni 2.1092389033158097 6.87621859561594 9.237945249380651 0.698339643629707 0.12388140673770924 -1.6368943702945613
Ni 0.312822592411608 5.178753545203388 1.306280346980494 -0.01794552873482716 -0.05825914075220934 -0.5338242654207194
Ni 6.694611973011533 2.0875762126585142 6.546210207706073 -0.34374955068538865 -0.5572763257960724 1.5807702736074838
Ni 3.683214739504828 4.814443917506646 0.04304671743224162 -0.5939703387829964 0.5481658788543721 -0.008698813325578567
Ni 6.448675107927997 5.826414090384183 4.713561196532098 -0.021638147095065962 0.04608059640814644 0.03600521445001541
Ni 5.548736952275154 3.2784303249621063 9.36897940242527 -0.5086382530733949 -1.2141355907938056 -0.6972219850854959
P 0.5242435094710493 6.058609628285698 12.519983586380109 -0.4553027748750481 -0.7967442462525504 -0.7001928947883619
P 4.110347083759798 6.892371964271401 12.56899279724253 -0.5061285992776638 -1.7309576652295737 0.23544774355349124
P 2.848639253173912 8.89408315508375 1.1579270052349182 -1.5671228580273786 -0.3753612640533987 1.3833602015530047
P 6.947775825994655 7.753059626856449 5.713910628689679 -0.04365141814136353 0.4734089975574557 -0.3185103165026256
P 4.822694195728298 1.308569045424042 12.608908429019666 0.14991922556236761 0.23114217419960192 0.6215045396475232
P 4.3880607679517585 6.776804113523141 8.087827228415993 -0.2858804462827464 -1.8420992558031113 1.9443522856377677
P 5.267441751955966 1.3519126997800972 4.236293108408363 -0.8120590222327498 0.2531328195380802 -1.4243006485211083
P 0.5521638031781886 5.864915388751893 3.3141577756353606 -0.7455011318068581 -0.14190586833958785 0.5171306068151224
Ni 0.6468729770936331 0.09493301867339628 4.496650144164361 0.9420344576833389 0.2575808280071048 0.7598301468350205
Ni 2.128635736831388 6.358232689194735 4.60604810246181 0.8861744132909255 0.8025150872980565 0.4916016093060824
Ni 6.207452687542547 5.563227474157258 8.905979818729833 -0.21464880453026902 2.309719928813564 1.7590973608885836
Ni 8.8039787876176 2.5088885932067386 10.09257722602405 0.9133843980468141 1.3589879433562273 0.7176511994741254
Ni 2.776643469800026 5.264353607948304 6.701435126694732 -1.1073067686630091 0.45128594040617115 1.6511951031879497
Ni 0.7711095587131036 0.39303758983665493 9.222072371911684 0.19192102391545013 0.5351887498684137 -0.3940547266978439
Ni 1.6010108010371567 1.347837811533301 11.493732117945248 -0.5072591133376811 0.7681556359815803 -1.4170323969944691
Ni 4.212895392463922 7.121579859893314 1.7707892839009765 0.6090174629241061 1.240373184334096 -0.6852738115846843
Ni 5.951867656565252 8.445635307959328 7.7754121248290655 1.3244469721565644 -1.2608268242027576 2.7392466231657724
Ni 6.0519491046715395 3.3382105801163364 4.6547631173566355 -0.8020515173980768 0.23045260433174503 -1.6169572650510025
Ni 0.8279222719333444 7.48955323240388 6.296109830124633 -2.4224484042582475 -0.876896073312793 0.8557582628929132
Ni 5.406992969627632 4.661169645694423 7.106506427988462 -0.14707352858345638 -0.10419241294921411 -2.110761538435358
Ni 0.7224027666869378 7.695380771470746 11.025971493295987 -0.21549675435286111 0.01076880848072984 0.6407523321335417
Ni 4.927764184154655 0.7381047912182018 10.40675750541654 -0.541453499831203 -0.05464365548680912 0.1550010109606492
Ni 8.269309594338436 7.599337665528323 3.7099491128208593 0.6902944047277273 -0.7167322872042817 1.5824612881566615
Ni 7.73030969023196 6.1985354433074065 7.010708180801676 -0.3516456656040137 -0.2689679867981239 -0.5136380202808315
Ni 2.7768810193390765 5.404014463868764 2.546338278038112 -1.0315525564498298 -0.4021099929021526 -0.9121649238174161
Ni 2.5237993950425484 6.022593463557289 11.368568179471405 -0.022614652075722344 -0.9716759346988556 0.9906460480434552
Ni 1.4868225649195388 3.5004386422466314 3.651485430304215 0.006364251655130974 0.11508977658800824 0.0604242667243282
Ni 2.0490566412493387 1.281196029308793 2.724938071669379 -0.6172599054385564 -0.7627396071723316 -0.878165684053836
Ni 1.2848780471640817 3.500712737868613 8.11717921492195 0.4215493325736869 0.48692682953823246 0.17333837581725633
Ni 3.698390500441887 3.0908210082362975 7.158056505266653 1.0557569216101754 -1.2793642208853127 1.005103361119366
Ni 4.1954629109058805 6.990571289106747 6.062898311117639 0.05106545121724754 0.9094526670925757 -1.3628638813718659
Ni 8.011741938362139 7.343990184090079 13.1207299249025 -0.02967284447408438 0.4662127369193325 0.863431463167455
P 0.7000045861106585 5.963343126605556 7.822482565991999 0.1133689372421596 -1.567395652072791 0.6556341343413805
P 8.717931035356779 1.9540368256289817 7.877722883994139 0.10065200389612343 -0.17736446625751387 1.3326855580162726
P 1.8512509673858069 3.3349762517769515 10.593821371854604 -0.07932753138673436 1.1125492480088712 -2.7278993164737533
P 4.398476401587066 6.375107842988081 3.9503145275615785 -0.6104534240396842 -1.0967603606057306 -0.7943816595576448
P 7.133082739495817 4.231451666072091 10.466277369729887 0.8967272491061072 0.09286876040627877 0.5065515457476953
P 6.690500538681805 8.163664005105918 10.148994327896563 0.2735345231228838 0.8356278106916254 -0.9546377482696464
P 2.3826492862426543 8.640087878713949 5.822519191595821 2.428591541041508 1.1054051807649221 0.03098384997602406
P 7.070762531577888 4.276403348077106 1.629752467958168 -0.43633060464791945 -1.3404220074285818 -1.4678011429069044
Ni 2.5433880954935146 1.7640976961163275 0.22868254567978172 1.1193906964107367 -0.07107326179774211 0.8320591195037605
Ni 1.6819786477705803 1.3187654025617648 6.972062525406389 0.07932290340104403 -0.9149964797289403 0.9891432382456836
Ni 7.034700684245816 1.2308172539885383 9.437151551872509 -0.531528270297691 -0.8542004314874903 -1.979645561622423
Ni 3.003923559547334 1.8777742870729124 9.288746131958757 -0.15074789211125006 0.1628791281571453 0.03261752892470512
Ni 6.847575603118841 1.826280856223265 2.638446284500949 -0.5105768648570046 1.233048625648225 -0.8730044515678707
Ni 4.3162203054303285 7.468000179995378 10.313472715083329 0.7705719587325568 -0.6509755525234466 -0.565059312175601
Ni 7.362217542951869 6.321439920204045 11.056219772485827 0.21358976713813538 -0.05798634670679691 0.30583889168254424
Ni 8.227171960719101 4.345740403917768 8.502138293126729 -0.7391772464713593 -0.5858106857903396 -1.295642646330362
Ni 3.16682772421185 8.904919068672765 12.339832411528425 1.2773428195799097 -0.8108878847427842 0.2833707924870152
Ni 0.4261181904536383 5.121230010670141 10.27077592639515 0.38616735352996717 -0.03478702577219815 0.7743424815185825
Ni 9.09730678574179 2.3072547171561943 5.756113131606217 -0.4200336672601089 1.2499855106128794 -1.2444956911429017
Ni 3.6706520234973286 3.069194863661933 11.595681984541379 1.0869181777043282 -0.2837911678538855 0.3755291570898307
Ni 1.22817679949678 3.6849324054025803 12.607397248490473 -0.3002264305917733 0.9536432455668606 0.5051775482183042
Ni 3.498565655496422 8.895298312341202 8.117513611580769 0.0003872081360896557 -0.2586416651714514 -0.5244546512803613
Ni 5.8005029175861695 8.078018259757338 3.5313365280605664 0.885967439486442 -0.1574024213132902 0.2152609841929712
Ni 3.542055494184201 8.496598820606478 3.945621096861177 -0.779752082569928 0.12431206651722462 -0.18045827469148923
Ni 3.6101317101637473 4.553130288029931 9.373299149427703 -1.3448363344461935 0.7330155977453375 -0.49091075388664485
Ni 5.100745931187368 5.034570111520229 11.218691779719684 0.11204301934188446 0.1867523352303171 0.33901846375830647
Ni 8.490057071761845 0.04039529911560435 1.9738201339715546 0.7898261789764784 0.47154134822109756 0.13444632673774912
Ni 4.819149225684 0.6023571071275691 1.6451712603467175 0.10272816969886178 0.12026180770725095 -0.13378478189435025
Ni 5.88950176604366 5.925801162914783 13.367607851621507 0.7115440581351229 -0.019061644617141365 0.9839339261306022
Ni 8.29237017266784 0.35611325494741347 11.281741995644158 -0.37407159870769774 -0.6445254260227288 -0.3257446294675358
Ni 0.40872316863060004 4.884932174959632 5.701861385147359 -0.4379933370623231 -0.2603331939412613 -0.08526909368214992
Ni 7.284429205433434 6.315830096474151 2.1789231469443155 -0.513017098867381 0.03666778773467878 -0.6932966818891608
P 8.963127842260965 1.7537551546468808 3.4201057837041318 0.20293511563776662 0.44161062209993623 -0.29103165146638266
P 2.32087726956869 3.6063217810182002 1.2971401716394741 -0.3099277170399372 0.17527595915960137 1.0384315429578501
P 5.042655932368692 1.4944241501691675 8.069747881190075 -0.04035140723385308 -0.45389303901171507 0.15405664476950887
P 8.896613971326715 1.929788499604325 12.656432955263016 -0.36782613201861813 0.04737180441574422 0.40702799902906034
P 6.52508383081579 8.337632496377765 1.4763064295561705 0.31713066254627964 -0.9581534747323885 -0.36620273748258225
P 2.083839375678829 3.3402388877190017 5.87911080101433 -1.4048420255758645 -0.182779209515182 -0.6430766093913441
P 7.420389770457139 4.0812472652260645 6.081566050278746 0.28275064240451303 1.3536637029298364 -0.022608224317819125
P 2.6278643661883048 8.876943042189156 10.267619258481991 -0.9222865856324503 0.45507831756906786 -1.6679838926105144
