# total energy = -381173.282056119 ev
CRYSTAL
PRIMVEC
9.20624871865529 0.00000000000000 0.00000000000000

0.00000000000000 9.20624871865529 0.00000000000000

0.00000000000000 0.00000000000000 13.47427558162928

PRIMCOORD
 96 1
Ni 6.130505536935076 8.18473266246232 6.4143479976120386 0.7741771595853119 0.42275517995632994 -0.4796174403610128
Ni 3.928665417732712 8.79473870966909 2.225896047384544 -0.08062953802760951 0.670057251745246 -1.3348460560027011
Ni 2.71557642243628 6.850222451400569 2.7230841183538343 -0.9691688520062857 -1.442238978167084 0.21814833304309528
Ni 4.865171079551436 8.643894322656067 9.493584137421296 -1.1147922784067767 -0.9731522621340658 1.2374490687087658
Ni 6.162119795403353 2.160347555743853 12.901847927770111 -0.5220650680022622 0.012465479456862404 0.17427297181638374
Ni 6.04453758539845 5.226461108476616 1.0303035279818107 0.42296061109891675 1.110251196003314 -0.05695944810417932
Ni 5.991426735921604 6.732170722705544 8.161718881647237 -0.18306305930418795 -0.13249048856295892 0.3195032765435143
Ni 2.862195141238197 8.124284432671201 8.271494192647742 -0.39924629820111246 0.171410305556608 -0.008216474372521333
Ni 8.014509121670693 6.947642976476663 -0.144146840992152 1.1567699083901433 -1.2216943769776702 0.10005242263891156
Ni 2.4165390480721047 9.083492704094692 10.731856826381085 0.55409998495062 1.1924084835293594 -0.6044061894043397
Ni 8.164589390031164 2.857638048069357 10.092811508502656 0.11239088959960644 0.27802161235995987 0.03586714621025435
Ni -0.06051359415778472 6.810469868970162 2.834502744769771 1.035453691276449 0.9922123640893107 -1.9010621074905647
Ni 1.6742392052365809 7.3522023748837615 12.13420512316654 -0.1936619178659568 -0.3850736062451562 0.502939917137037
Ni 1.4805305236899822 9.095516065061368 6.56963900280799 -0.4577450657679536 -0.7608791569248251 0.22284008209180978
Ni 7.383632508375519 2.2742472662183797 7.623893507735366 0.17120795973781483 1.6956245371459184 0.23411102701993872
Ni 4.984732633053916 2.7107799667979657 8.330201520785877 0.041653928095360525 0.6740213785993165 0.1856454753193835
Ni 1.2767686184254574 4.637933239780764 2.619304837213663 0.09941838859933845 0.4293960823116153 -0.14107283091533124
Ni 2.279550065542121 0.2704814317558757 0.015066946828533032 0.988700237170994 -0.40882905679354103 -0.49220067634266196
Ni 4.64572172628751 2.9947190930876006 1.0833600605905842 -0.6034407401672769 0.0932485123432007 0.6101690600300459
Ni 3.8181904318214355 7.06075094955216 6.256969015182363 0.45096275273879755 -1.4125928731658768 0.04272350701045545
Ni 6.951168969776999 7.682476551514351 10.072007227405797 0.31477938870528366 -0.11373171989821702 1.4243186462432373
Ni 1.5157168067027242 6.095512585147678 7.497720026326096 0.5268177521958991 -0.31760785929301427 0.4618943120496368
Ni 2.798073618165527 3.2329860189517476 3.8130183612310224 -0.31469197119779996 0.7032285962908921 0.7376561818411426
Ni 2.8125182225734267 1.7569021134446943 1.9832920576984967 -1.1733998036373405 -0.3277171798128743 0.07180654041934086
P 2.3896568015003607 6.921616911045732 10.08701801611649 0.2586300952072256 0.11243742656682572 -0.10349487266155724
Ni 5.0450611816103 4.235960797293757 12.686111454657686 0.6390836861818671 0.8373077694972096 -0.9275923141160799
P 7.681316564162282 0.9163448975147979 11.03394975473059 -1.2952004165866209 0.7914143493992047 0.030308164065238126
Ni 4.750221856710752 5.9888397800015145 10.727558428804254 1.4977110430924594 -0.6060789491210722 -0.49895367879577945
P 3.384180243420156 8.177349250903918 4.265565331643331 0.002178495708557538 -0.7912819375863985 0.5041334232245059
P 4.554064312976453 0.6324766593411232 13.58287834341924 -0.2433274034118842 -0.09465207755894667 0.2611957990518728
P 6.4598406761854195 6.701053601673867 2.889760491472826 0.4749177208924982 0.1619905549046049 -0.05172776739159479
Ni 1.5146212630924372 4.789265557981563 9.652621165264522 -0.36215350711387306 0.6543143870886925 0.13688424675528038
Ni 6.349025059067582 3.386702755598464 2.6720428336130593 2.2677579825594814 -1.054680400716545 -0.5379760828055637
Ni 8.97835734250246 7.980132988554635 8.290223385259234 1.0927643520724601 0.8081887406440662 -0.8915336207203097
Ni 3.3094623279488293 2.2669190921529316 11.884944094954456 0.9762902935424154 -1.354068651677739 -0.47397412603230626
Ni 0.15425622282791643 0.7038195639928607 4.220560584257724 -2.2809107178913557 0.7590709000714927 -0.8208341973222186
Ni 7.411177604862731 5.417582834103126 10.747217452547167 -0.9492983383346039 -0.6453741471762692 -0.5477892122412437
Ni 2.1801409907196234 5.811895677566953 4.969528513117876 -1.7727136661204372 1.1032187146365646 -1.142813189099735
Ni 2.817774990653038 3.9362881917605903 7.573121966085191 0.7094257262405395 -0.15697484685756835 0.5843117326473098
Ni 7.475510871658399 9.232854885046738 13.162602037016498 0.2981453796930285 1.145564783702943 -1.999729219746175
Ni 7.966599802780504 2.0559302815600438 0.8223583032507787 -2.6775720289741107 0.34261775107379056 0.04361208026299586
Ni 5.472829533307591 0.4502969631992487 11.544557774613454 -0.20034138676866142 -0.2655579326753104 -0.7865266822896003
Ni 3.8812624425279485 4.765338517282944 5.5549179715889645 1.0056486920998746 -0.8507620952299025 -1.2101560373207674
Ni 9.30153350128825 6.909814500050878 10.232081799491707 0.805908686360638 -1.8294327160790367 -0.9727917934708536
Ni 4.0533272330847625 2.411061330020671 5.77675910829787 0.6494300624131977 0.5503078648980394 0.6868956634588235
Ni 8.777651911848146 2.923223364705352 2.9660517548685066 0.1056869952168696 -0.2902176402055195 0.46359381123924676
Ni 3.7380684482892814 5.956240452908863 8.625004941315003 -0.4241114368739083 -0.33447326758978524 -0.33877472317861657
Ni 8.245190098502267 5.873945794653786 8.204971679881266 0.10297448138171299 -0.8848191848146115 0.9804176854472277
Ni 0.13461561158265653 5.3372030756038455 11.90736591397003 1.4591156993177645 0.22675458665486756 0.5907240639315569
Ni 6.011450327118022 0.9010975082092764 1.907094698040841 0.2262480793320942 0.11965579869213587 -1.1514315268963653
Ni 0.4613849692852106 3.6563814024567174 7.766585761413019 -0.22397162459309167 -0.6715798590373595 0.006371193633666446
Ni 8.37907657517791 0.2845292468393772 6.4575197808563995 -1.5959081576901868 -0.5848760897912121 -0.9464557266794862
Ni 5.6852913437126285 3.247145229646043 10.72598139838037 2.12478639195954 -0.7218526391499825 -0.7371399043263562
Ni 4.876411909367908 4.986675151556189 3.1166402081641684 -1.8153597829257382 0.8668877971471716 0.2928036557651409
Ni 1.8746960671725936 2.3659046795294363 6.069999307776352 -2.681594519869943 1.733815446393343 -0.31620969339390703
Ni 2.8084122355970575 1.3078949457059597 7.834752510219808 0.5827446452705061 0.29405166923962905 0.7934432069037755
P 7.198025325795748 1.3934394097965919 3.8522820918487723 0.45054109182034663 -0.002580873353298781 -0.879955171854091
Ni 6.1733514189709995 6.313774332313059 5.068025248681724 -0.47774182060485465 -1.1385685548907682 0.0677529391752575
P 0.7634686913858897 4.435497034347175 5.546671934515571 -0.7533491670963671 -1.1424987431831097 0.5633089051433975
Ni 7.959538609931008 8.818785431602445 1.8339565748680449 1.2864830913182812 -0.5421009036072149 1.8258604253467459
P 6.220533444203941 6.487597516395628 12.260620728919932 -1.3009368048497658 0.04863627295046462 0.5481352827267527
P 6.661301019243459 4.476050560425439 8.886459646097045 -0.17012526819659735 -1.1937968792364537 0.022763776059076927
P 0.5374156958391167 8.116201346202025 0.5449666611261526 -0.5687719851404979 -0.9969349663759605 -1.1215951602612233
Ni 7.937646150222924 4.5729555355672815 6.35929186775827 -1.3367039351470464 0.6513743306237622 -0.7066347937589637
Ni 5.9538100032188135 3.706021496126185 4.965822997965436 0.6059637636994467 0.4524205682312466 0.16582869770377248
Ni 7.924711370622479 3.684644586352353 12.506040910121834 -0.6202704101301059 -0.8298824235674159 -0.5048826426857047
Ni 8.028539444881428 5.224721127448514 3.7403239792516367 -1.195564769770154 -1.525487184764463 0.9680666200810425
Ni 3.6589315333815033 3.90493170825944 10.239977999109716 -1.5760821241031953 0.4545440423321526 -0.9583969582017623
Ni 7.7583912793330505 8.076936694959393 4.468433310146857 0.21931201433389325 -0.06212042347982849 -0.35467005425263437
Ni 3.924283243291565 0.061378060922540466 6.071185072625132 0.3976085054873733 0.8117890564008149 -0.12315481298432986
Ni 1.5646664317102459 2.2127034928169724 9.749945945352827 -0.5575848581754268 -0.15202598749272525 -0.2009977894057377
Ni 5.237637494551308 4.656612718648596 7.1955055754920885 1.4710877840779761 0.4168490988845402 0.44110540032874357
Ni 0.7238689326859924 1.726364986089052 12.341318103003706 -1.1443885040066548 0.09597002503942181 -0.2405094743471148
Ni 1.3295572491933958 8.960064526085317 2.2225145921907763 0.30141042359754544 0.7624349314477192 1.2829131145788357
Ni 2.2495284881207316 3.1980667171549584 0.18260594546251538 -1.2226688250757975 0.5856559053800301 0.2527016455379325
Ni 1.2862786734626532 5.9359222617500125 0.4390147052630596 -0.36053551189447586 0.05396282736970061 1.7741995066373446
Ni 3.769811594241122 6.865587680691063 0.6623187149104068 -0.4237206291933928 -0.9206860739145498 -0.031748496056190484
Ni 4.677722647206476 1.8889933715992782 3.449616418825171 -0.35217736973776764 -0.07268431503860386 1.177912346795713
Ni -0.01992324308421626 8.739105348013936 11.331098006835683 0.0848651733755119 1.315085328436006 1.2274076253123636
Ni 9.130131560646902 6.784996178468786 6.0626287849663045 -1.2906410793507128 0.19772374664015627 -0.5176458558886441
Ni 8.353621297174186 4.621951191818932 1.0968462944957034 0.44160188034918785 0.15371211694589657 0.8195226775996466
Ni 4.009339776194422 7.67501948996534 11.985476332133716 0.7120073709247867 1.1911463289874842 0.37701242650357647
Ni 1.1783814372226389 7.922142827200041 4.479011290047862 0.3084051097478237 -0.3993028624706607 -0.3242212508444739
Ni 3.0527552856863247 5.231717876556227 12.338326992760159 -1.4217020345559968 -0.12452675363119199 -0.47375403960170026
Ni 6.175432031205662 1.5157260129515502 5.705722771732036 0.5264829945642998 -1.0566316109056448 -0.2601223634820359
Ni 6.005300552902295 7.785927169571436 0.7902975417144434 -1.2350417448188538 -0.2674276388941975 0.6805530090702473
Ni 2.290284551673167 0.845471511553183 4.549050589865846 2.1300293855260346 0.337665806385154 -2.2928655762603865
Ni 7.3506465188321775 0.3408079665372296 8.835149538890553 0.3753944312841793 0.14027913136944228 1.16918396578378
P 1.3164751696117354 3.616435488800965 11.513485764201024 0.6498311545063583 0.033048960035168884 -0.040843259268607074
Ni 5.37667026432065 0.5966597482838044 7.773121277454554 -0.364928755866165 0.8076094711018286 -0.5045625403421246
P 3.77156078151805 1.6428643092377782 9.728130818134881 0.5272697521316533 -0.7793607606687802 1.4678512794185494
Ni 8.643535278951855 2.5139227481528956 5.537172926976966 -0.14457518764163488 0.3938415822457733 -0.6459125361782424
P 3.14645648623674 4.768367373146679 1.294486964915861 0.865711003230251 1.319446433618179 0.7966468014427376
P 0.6376689836789532 2.0732656480992886 1.1919385592437177 4.118390729754901 -0.37858388475575444 1.124099928960948
P 0.19624868559767553 1.0263770628575475 8.128976857697781 0.8788804507326735 1.3090221529610617 0.7481413976431825
Ni 5.491462980931293 8.707730452015133 3.983777705704318 0.7717613510549677 -0.26702731813198527 0.20169764368623974
