# total energy = -340866.9600110879 ev
CRYSTAL
PRIMVEC
9.22080624780202 0.00000000000000 0.00000000000000

0.00000000000000 9.22080624780202 0.00000000000000

0.00000000000000 0.00000000000000 13.49558199703461

PRIMCOORD
 96 1
Ni 1.781745556797691 3.112529156423372 3.7412184601860052 -0.54637022040653 0.8964701387899786 0.7249940129924417
Ni 3.17591297660454 7.4886130162052 8.482107832474906 0.021176119856982884 0.41285180479968897 0.28676336310833195
Ni 5.926949656102902 2.55729832543573 1.9706245461184722 -0.7499231721339537 0.3605555664991339 0.4240690136717471
Ni 2.3713607732167516 7.9292292290881115 6.4294568406817705 -0.9440142071175291 0.3932538280631034 -1.6986939200998616
Ni 9.195725369548372 7.404841994042572 12.523373162817915 1.0286096717714222 1.1817980550033647 2.596209212324903
Ni 0.7834282590099824 2.4650164993703925 12.535046703165511 1.3116030263143605 0.5192132003757639 -0.9792899996006877
Ni 3.117231767463872 2.131389298061834 7.0213459078510025 0.2503619416611624 1.4136508821167462 0.9750983301168433
Ni 1.762492513949527 0.5604719370963084 0.4006504736028351 1.049870123812095 0.19446667315543928 1.0630197738201757
Ni 6.571806721038893 5.568500045145274 13.27885592519958 -0.34844438505789666 1.2584830065609296 -1.1141980964662035
Ni 3.8804378769191086 5.211193814126904 7.609065326564325 -0.8574191955351039 -0.39366880411333494 1.0244192878391583
Ni 4.161746225200616 3.981544014289855 3.7132416128174164 0.6806417121293117 -0.6045892519494233 1.3204213959369389
Ni 3.247918250359958 5.955589479420142 13.46751084893549 0.44641395702585057 0.248399675728469 -1.8886526780826185
Ni 4.95529800707602 1.6401139772249902 8.944979382627132 -1.3039552799611154 0.1633136445914026 0.26918293102240737
Ni 6.884438147172514 8.025955483627019 13.388628698093788 0.9404817684842384 -0.6936265544247537 0.9146547801188054
Ni 6.842935299538612 6.516269806731186 2.1494952726483545 2.963573317105438 0.5019217602851679 0.8111303397708933
Ni 1.9911592809953216 5.221576441639851 11.52281059877852 -0.5239329744489364 0.3584040673737698 -1.3829585952392118
Ni 2.766435425454508 1.0503881111343882 5.069790910542055 -0.1553807628975711 0.4689157376727925 -1.9629637300913676
Ni 8.090620995836872 1.3273719014198282 6.923705871441283 0.6085001569680553 0.5797318265861112 -1.2687306524308666
Ni 4.443783017153103 0.16824466973954505 6.881329813482803 -0.6203128333322673 0.7390535764093014 2.0141613360111053
Ni 2.037752013520117 1.7277208546677136 10.36059808542343 -0.574858814764526 -0.11100300811314431 -0.5712924375695064
Ni 0.3755864788375672 3.6535968294537433 10.336657184824304 -0.3401510347008529 0.14610010892659353 0.19990198523839764
Ni 8.700936921640094 0.5159741716860259 13.340639013465786 0.16145833655021868 -0.18328545972763918 0.7826808261809488
Ni 6.568118398654187 -0.0016127189627125882 8.431782517696789 -0.3917273641162479 2.1613042843799164 -1.1309447197969233
Ni 6.5296030921518975 1.196482560792583 12.814756163693248 -0.7962981598540674 1.0021440213807256 -0.09259313814738891
P 5.814455823369377 0.5496181263987155 10.762739563350282 0.6282909664417373 -0.40050228209540056 -0.07180679752965698
P 8.818529860070475 6.544559239421878 1.0809661478647912 -0.12899893046993266 -0.40870204429737356 -0.5535220009599627
P 5.493405801392664 4.9257822071924116 2.075877279930224 -1.275217545706791 -1.2624779866529354 0.004300684257882916
P 3.3603290958398278 0.17726907253432383 9.723701342274229 0.9141032784907097 -0.5216166676109338 -0.650072323982887
P 0.5562976782374177 2.133657616328428 8.583891699083843 1.0694652723352034 0.3793588152485661 -0.308891562465939
P 5.960292090460642 1.9244836330858035 7.0106036689055475 -0.06498951749750743 0.1642451552667365 -0.47053887509851217
P 0.9607065523502679 0.4463082164031076 5.9445199018630435 -1.1465508017652963 -0.8450971836346413 0.21348358057757427
P 1.1509871041772375 1.1642005191204459 2.954870894008528 0.40461733270503863 -1.5260535987908943 -0.8724588634770458
Ni 6.863977178743358 6.366957295792336 10.57064343482944 0.4129034839732308 -1.709562230272933 0.7308003352615736
Ni 5.098377253184717 0.053900221249493625 0.7115991026484341 -1.2022658359394134 0.9442684892201803 0.8042806638389115
Ni 4.898543946381359 4.035771574150991 9.355987587566815 0.6785372641917992 0.013883442850311574 -0.08335002228256613
Ni 5.2760068592321465 3.5278895817770097 13.191175281309162 0.16818948462646519 0.5587565098860248 0.45003047073251523
Ni 1.873077639848967 0.2613766541145575 8.00356828883245 -0.9048511637648223 1.283243758445377 1.0696298229375254
Ni 0.092078968334179 6.524125933410609 10.578592691649078 0.16117628653342564 -0.7924715870191256 -2.270523461119761
Ni 1.649546861723875 7.38073880725852 1.6489982237691503 0.34858399595955447 -0.6396470148845049 -0.5001590119577902
Ni 3.0579419851297267 4.9119509982497656 1.921716469216678 -0.03864445184507539 -0.9099414338035361 0.022788458649425268
Ni 7.94657356510219 5.914704425785679 6.735266714564879 -0.5363745426463988 1.0080652719611671 -0.2999587787526834
Ni 3.6069856553170245 2.9987536316611614 11.588683114488768 -0.47259241519343126 0.5244384533304453 0.34661221694516436
Ni 9.09391845092453 5.1177593873163465 12.968646804792114 0.33208239876010553 -1.6628589126791233 -0.6132027046500472
Ni 8.544561273334532 0.3565510470101008 4.226654244607264 0.1980577329408073 0.10357586241113775 2.163912154316409
Ni 7.685089949638476 2.0860598159538 8.979163676569181 -1.1244195170838958 1.8494855209648535 0.016563560785635992
Ni 4.7476362360111235 7.530659891390846 12.36261394335813 3.3903808127542705 -3.005685930004772 -1.7181294031166539
Ni 5.419925198683364 4.8957869253987925 5.915828442032418 1.5702513763540311 -1.2325099795359356 0.3894946181309873
Ni 5.6722709954389705 8.459112064486863 2.8410630964254517 0.35893294329404635 1.262159426971252 0.40181045938386284
Ni 0.6963322142175408 5.118856663225796 2.6264156427639236 -0.3260498194127804 0.5044476120308151 -0.3008288400624625
Ni 0.9979862708536812 5.2562927760858935 6.1115953734066375 0.47937087156784536 0.2134776670403033 -0.6151210047186825
Ni 6.043832592474227 5.9326481141872724 8.298622092561162 0.8273645422415685 -0.7639523965335101 -0.42025503924229557
Ni 8.785039892817347 6.442964399335159 4.4813559572861 -0.3611134958851329 -0.8507826640551928 0.2285931825255031
Ni 5.317528148477971 7.7202857659945305 9.59471056559451 -0.9208100010869239 2.2450019198098885 0.9497117717229384
Ni 3.170232960132093 1.8889097636853165 2.3283115964230627 1.1699059315514688 0.4731043218328433 0.39133424244288734
Ni 0.19512147495689583 3.0589654945914826 1.1325325831253623 2.4840499791201287 -0.8642400751116793 -0.14337988178195307
Ni 6.913409919504378 2.2003701474617934 4.692210893455555 -1.7086026945731414 0.5864796868329061 0.6298986772484894
P 2.2593372015872766 4.155761922131431 13.290610608639637 -1.8608246001267568 -2.6214656728988466 0.9006489527580166
P 2.5360443676938633 6.0825046526778666 3.6345899821247585 -0.35529740342398813 1.095915753217248 0.1810401153368882
P 3.0437880479784187 8.01278817271362 13.362448063726552 -2.137446761036028 0.7980061436841095 2.6546444736436605
P 7.249028814900677 0.8585169702790143 1.6978657291247128 0.6480558077734904 -0.8272470428270979 -0.8371054236784163
P 7.113980890784676 7.658690782169944 4.13543742163051 0.3895187865007033 -0.3349304097318619 1.0841742964106038
P 4.982139773230715 5.305873049742301 11.768403999328324 -0.17375592297064912 -0.37355300720006634 0.2790307703507646
P 5.118736792748293 1.2340573450867727 3.5753167972413444 -0.7722236354033668 -0.02170679554947229 0.9115738272006365
P 7.360397709306867 3.411218723942805 12.739450763484113 1.8581228849248772 -0.3183043711394067 -0.2907362317131509
Ni 7.605514394188449 4.2277764166928105 1.3322699935467175 -0.7896670276907949 0.33460696495417214 0.8929641825192494
Ni 3.5532099149480145 6.1656855432589435 5.681140488693591 -1.9951894228942932 0.008893445834887909 -1.5703223388012826
Ni 7.731553590879806 8.535183713671419 11.212048230013348 -1.6644992764960236 0.28188340930821126 -0.12387909274486407
Ni 3.887703872016979 0.27670901026777933 12.180100076392756 -0.1620059815235726 5.072140676102955 -1.1883232577163922
Ni 0.6576509332079392 6.931178412592698 8.064351841732403 -1.1378550737635114 1.1043080910460015 -0.9368194891413028
Ni 8.897293984595867 -0.015132264663851506 9.39362691750274 1.6484728191607803 0.2964541080335346 -0.9070342874590702
Ni 8.733707666028204 8.210519135757695 2.4719717533073515 -0.6887982797981751 0.08798880660615814 -1.1978052290648982
Ni 7.495943556944804 3.595607180760207 6.617517944513743 -0.9665848933291935 0.4379187750706458 -0.26230008785964504
Ni 8.585759834371697 2.38018508452216 3.1836612198542107 -0.6535623394140163 0.3235681906415072 -1.6461351721665392
Ni 8.164018611292517 1.6980851843066027 11.145474933050005 0.6627900286598715 0.19605998578448816 1.295392477992769
Ni 3.912000695726228 6.019720184884213 10.083466762242601 -0.21386590361765748 -1.1254821540204551 0.6919231985804019
Ni 6.368709248925071 0.06287483169207889 5.51310697541057 -0.47269834464367616 -0.4985934672428832 -0.6186747835082119
Ni 1.24324126782469 7.979390413520109 4.235925765001818 1.517212603460497 0.581270888938457 -0.3668748238489423
Ni 9.074361121479628 4.468586985190249 8.153922750844982 0.8003695017099636 -0.42609992805884683 0.31993856430872
Ni 5.181576585377717 6.3116232392157885 4.167179124073288 1.3785931191816645 0.5060334684606962 -2.241457654102056
Ni 6.093588061443907 2.8137934848741297 10.795682736809876 0.26906723138014954 -0.045757151630456676 1.2283301371266329
Ni 2.5678100442321417 7.915619319488547 11.114691272346654 -1.7038063016257625 -1.0732615061528419 -0.3528116608876569
Ni 2.6346240042310862 3.7045233407805678 8.848202413655434 -1.3595679842294133 -0.007972219572199174 0.8353465320057807
Ni 4.1953191797074 8.449042944376615 4.850285014219273 -0.0027940178053693816 -0.8022163251107152 -1.1835137521428907
Ni 4.8815407801878665 6.9435250717755 1.2446446744920705 -1.7138598292070224 -0.3766869248433577 -0.07414495874453036
Ni 8.266434103109834 8.439563955847921 6.5510525309801535 1.4244114630673597 -2.700415252120872 -0.07845181365000037
Ni 3.3318460262239373 8.803509167158762 2.608966189561881 -0.4567613616984456 -0.4714865837237622 -0.283750287313621
Ni 7.047572646248049 4.603136985784315 3.8134330462367556 -0.8017586687480063 -0.08921470859345926 0.40672460885602857
Ni 0.5063310528112127 2.823263252596862 6.139450506136531 1.5457035118113378 -0.4050986432168313 -0.1989175098379413
P 7.421937368295682 4.227914728782237 9.574615663162039 -0.6873623186825968 0.9519686860779153 0.22057288332418787
P 7.646399447822912 7.558054905903248 8.629735702164544 1.9697663548354978 -3.2671493808957344 0.20885430933567897
P 1.8438108017263268 5.82278221115285 9.294096615870858 0.3990421526101063 -1.3166331325391 0.918540745436773
P 9.021369149617367 4.061211777799499 4.33357963262048 0.2543607784079104 1.2291976273332508 1.8922743339956056
P 0.7404777448400839 0.3098393660883987 11.447411146348575 -0.7135628883373647 -0.5098669832741736 1.0007211728912702
P 3.906698732298213 2.0232937897720706 0.3556796808467141 -0.1907743119055166 -1.0501444605194044 -1.3042417008532827
P 2.6498291132620357 3.79797620920305 5.714649819639239 1.2420587995666352 0.4150148738892788 0.15862575219743005
P 5.173296301624053 7.38414128465841 6.955568366442161 -1.0277085001133914 -0.7896917102811433 -0.6554577566645163
