# total energy = -340858.75394956715 ev
CRYSTAL
PRIMVEC
9.35807419310745 0.00000000000000 0.00000000000000

0.00000000000000 9.35807419310745 0.00000000000000

0.00000000000000 0.00000000000000 13.69648751024468

PRIMCOORD
 96 1
Ni 4.64291483457536 5.519972246044042 12.348629965523186 -0.5647662064152145 1.077498427052325 0.28947407717127566
Ni 8.228629333173682 4.918762781886155 10.852452672067187 1.125797371268029 1.7726517025342503 -1.543738417665167
Ni 2.281339354047819 7.189920551421502 5.297198615426709 -1.0239719158890945 0.07091359629142625 -1.5129445722127624
Ni 4.182244925755992 2.131291995524859 5.9411800926109795 0.30717020889945806 -2.9003254648893857 0.9553201190486517
Ni 3.7370345551853412 1.6799895187799256 3.4217937953697186 1.419441006435962 -0.6919764204158405 0.7247248184914551
Ni 3.3963164389035367 8.38015526738871 1.2158618016173972 -0.3207042388301509 1.9015511313118412 0.23789003444639678
Ni 6.678174274707764 1.9547519295066702 6.699965485825175 -0.386814757305979 -0.7837069534526181 0.14741445686264287
Ni 1.7209030183098235 6.10503903255118 0.4955483864263858 0.8879965541013286 1.310688227809575 1.560637764523667
Ni 8.249114157160632 3.2694396716056517 12.50289313638334 0.6863284781014438 -0.13240795615148165 1.193689664234628
Ni 2.1110130491659187 4.843449002330661 6.072200615076256 -3.58907797905129 -0.16760841531201456 1.2612837092345182
Ni 8.258191488941053 4.0183756919343905 3.606599848152491 -0.1799286274402643 -0.30547945146059646 0.26136343497798853
Ni 8.555675303340852 7.405380847207496 11.278413484418945 -2.4300146466412795 -1.44820573727348 -1.53125931136155
Ni 8.870939458341475 7.971441385419753 4.094852680088138 -0.3351713220980744 -0.37785034902383957 0.29107098934475034
Ni 7.421298931082234 8.778172870775172 2.4139376477895698 -1.2441725034755282 0.8735888633164309 -0.6014987859495576
Ni 8.886370922368192 3.601426704845051 6.113166519820557 -0.5158877355469567 2.7867773217568845 -2.4739326881804686
Ni 0.2616526848595367 4.274992797174294 8.42372271670513 -1.015946988702089 0.14245248487167725 -0.6295256101797868
Ni 4.186091094170171 2.0784375935704076 0.9834390608982164 -0.6222501595642961 -0.3427697032706226 0.24174206120263533
Ni 2.270259394431305 4.924892320356439 9.261002698827568 2.1503074190487808 0.1664277647403521 -0.9714769313141722
Ni 5.317276363194639 3.3575272221717376 8.756972154127189 -0.5984589706819694 2.0207914397331135 -0.6122493395978423
Ni 5.792610373972688 1.3257209113454929 9.280178328261858 0.1346219330836649 -1.42097261258914 0.9534385857552226
Ni 5.239566916695035 9.102233615336203 6.831725296136487 1.633702088609509 1.5514003050857992 -0.10884071035450288
Ni 0.39303536478863077 7.916939962441225 6.728974579419121 -0.3848995425611371 0.4217511641718478 0.7949976958750888
Ni 7.5384900917896704 1.475899282904459 0.31528474276342433 -4.154899366203896 -0.20087283379209922 0.7248569731939452
Ni 3.4183079128045573 1.5305130027709923 8.360801834548413 2.1883098664344827 -0.023959081918758736 0.6105848074112259
P 0.6832301753494914 3.5520160741227587 10.55781371216352 2.713985277495823 6.299908512968215 0.08279337844814774
P 3.554093566550855 8.221695000339361 3.6710966299708825 0.7352632561289337 -0.20050439470908693 -1.1226110031202472
P 5.631660859239223 0.24664982062204074 1.0976543540735142 -0.5283244186484127 -0.012656512421745945 -0.4495902978713031
P 3.6367815084186907 5.000617855167952 7.545874547983413 2.243282623125937 0.4696945248203459 1.1721186229320717
P 3.567363315483471 2.485588677181293 12.643117324628045 -0.4456182005974325 1.5292283969744502 -0.6518193885809807
P 2.726035030548446 6.859299796986166 12.536628057347507 1.07644478897683 1.56678604351325 -0.05316809938254714
P 7.761698872848024 3.2487864022866937 7.963480471867583 -0.9522021422449601 0.035942736643196166 0.8014923024604971
P 0.09690004885229467 1.8381784016832632 0.17024863286769693 3.283979565079196 1.2205656626898655 -0.21541499327233224
Ni 5.44555684159259 5.7699825510396385 9.455863066316406 0.13035930115256902 -0.4457423848801227 0.09679354938198169
Ni 6.306686811112534 4.507615800677084 6.834122834695399 0.1795499039446069 -0.4988066116949538 -1.035995679822848
Ni 7.656139798123127 6.892913998795724 5.867273767385151 -1.0817841989118724 -1.965078719551841 -1.299178941618395
Ni 7.355867277671199 6.097356053796823 2.678964854133663 1.137934263740879 0.6009439418873522 0.5529949248118993
Ni 4.611359409045896 6.302213651740327 4.716015429629751 -1.6242103470689897 -2.025451564212944 0.6941975964368755
Ni 8.175943376551238 0.39853510487868593 8.884157737867088 0.3655689605533252 -0.4198601177967221 -0.04217071983077899
Ni 0.8842565777972159 4.414053776820744 1.8312749504931431 0.3202532673356614 0.17190318603262653 1.492402229285036
Ni 0.23971829520991922 5.639399986437582 4.390477045184051 -1.0199052020188886 0.6064905827371941 -0.5715050678009448
Ni 1.872756485114867 2.0071197116130994 5.049634510974825 -0.6336954252867603 0.027815479550371454 0.8640539272428023
Ni 0.22182285029888918 5.268024819730355 12.819487073699426 -1.610690458205684 0.24303018388643954 0.03250928548161498
Ni 2.3797956506063858 0.18301491741908907 6.710977131501486 -1.1655561392232054 0.8590312772172304 0.5584119820624125
Ni 1.1868470931790513 1.8105814414559833 9.422005554582837 1.243543868752594 -0.8000360296299448 -3.582179966379876
Ni 6.126132131348158 4.283246618442677 11.193357949829 -0.5934000681018232 -0.7017329855819721 -1.2666930531755476
Ni 5.1173411121753665 1.0762440165679212 12.473884042789397 2.8585455527391224 -0.16423204264061392 0.6109429620815929
Ni 2.1251063086105724 0.7746398421857313 -0.010144152216470533 -1.1568609254420528 -0.5017428115051423 2.263112256257354
Ni 8.605946876871183 0.26084414726589916 12.37500944032301 0.8416729884444408 0.9599506758421272 -0.5855713160860239
Ni 4.584511094738651 7.9649749562854515 12.96609440421983 -1.308205313486721 0.22443648004465216 -1.0000079488743294
Ni 8.49721541506014 2.5153941428726756 10.148836868315149 -4.456033910432235 -2.019247235174445 -2.135623591784361
Ni 3.899649807090884 7.1123140437359025 10.568319086036407 -0.5234493499442985 1.2057363109865171 0.07248582587455259
Ni 6.834678704291024 9.10691265233642 11.063474433354774 -0.850419110068187 0.5844125198912322 -0.3170211335516088
Ni 8.04945964836137 3.9229701274999655 1.2640951866304346 -0.772701860591366 -0.8882053276780251 -0.32359467300406847
Ni 5.275595501596706 4.547687073546943 2.419512252471628 0.8472240001696569 -0.47143978964622674 1.3900203871819996
Ni 1.9347911576637444 8.43295352089916 8.978622815864469 -0.5527483560187318 -0.40205831372861084 0.10161436780939273
Ni 6.086846936694336 8.329546803194363 8.982238775658237 -0.27177100346455774 -1.243652369306 -0.022386852335632413
P 0.7082845468708535 6.295054725129994 9.836598178638868 -0.7375638792376523 0.7518610125866148 0.1644171620682265
P 8.069963188496322 2.0168521085735507 3.367103339296382 -0.15861495356415262 -0.7224614763785752 -1.6747497505794382
P 6.684313171252049 5.195125423266974 4.4863935604589 -1.6794258158988689 -0.24406119625411515 1.1485459778184541
P 2.014746541923453 2.406662681061632 7.200928453868213 -1.1762275028941227 1.577147589253232 -1.0591402362601114
P 6.207594165521937 6.954228099646569 11.237707734131856 -0.16956399637648864 0.038457789755566026 -0.3165524214453065
P 6.800240991969426 2.2709799661293384 11.3658244462348 -2.439744986555166 -2.2228966032704167 0.4402901035162998
P 7.647857902632743 8.439831705289478 7.154497433907658 -1.4401903231681714 1.8944510299319501 2.2477488864274062
P 2.940437863972391 3.490093698461887 2.7040426208400263 -0.32416057280986754 0.1300019178131503 -1.0109220246836719
Ni -0.05272806795544577 9.289544824528893 1.0877216943294536 1.3808659743762413 0.6529555590679529 0.47062706393694437
Ni 5.78810914037848 3.702718497825749 13.409846786861213 0.3234116104589849 -0.49536801832705013 1.269057696752982
Ni 5.920572677854623 6.648340734794381 1.0555935546711634 -0.21966785501141523 -0.4533813894826192 -0.9308658426610291
Ni 0.8969854300526064 8.10485008836994 12.269477504012714 3.580387136145511 0.07960186809404356 1.6960418271889952
Ni 6.724506099083914 8.272200525719702 13.339392655134143 1.6664839110262204 1.2868260764799966 -0.18735063093594828
Ni 3.159407437508548 2.900572468730542 10.317700506230784 1.8237973721701302 0.5572341597042274 0.6334632546712962
Ni 2.276248561791583 5.238041550632964 3.7514675127162107 2.2027795208055676 -0.2374724872930039 -1.2811915039020385
Ni 9.284641193752664 1.7677308206079956 7.043227126620297 0.6312168818392807 -3.0288189164778094 1.199300325553186
Ni 8.030069719032472 0.7419296303246141 4.947595943688892 -0.037115159684742535 -0.9924180523422135 1.2945172744766673
Ni 5.916005937742412 2.953904132459016 4.478614193542339 0.6723398771318356 0.16582946903472084 0.05367512092595272
Ni 1.8869994737435276 3.1182693442026395 0.1816140137412241 -0.641398964578605 0.44981706917012854 -0.07089636990024564
Ni 7.543412438713898 6.069506425571531 8.340187869140257 1.6536762177385906 0.03502768102809451 0.25587567239053993
Ni 3.06329065945009 0.5323677285810936 11.779403590876584 0.5495401334940794 -2.912988662179351 -3.264791165076203
Ni 8.538288001848045 7.242606508043946 0.830857535935939 0.3430820923047188 -1.2308570173135447 -0.732760544311738
Ni 1.4734661836643463 2.1368413334071166 11.637987184004222 -1.0802027133573655 -1.8801171298077815 3.7127598681836833
Ni 5.85797652086572 7.865068158256818 4.135914972994643 1.789950598824014 2.6968455324917424 -0.722481273872917
Ni 1.3738307697817245 8.575074590743752 2.902600363366436 2.46395475103215 1.5266938034780544 0.13766663344725966
Ni 5.518568534943977 6.605331026688386 7.301596999120482 -2.264734879462442 1.0580704002347003 -1.2230781446990744
Ni 6.144576895203015 2.292176003740322 2.169921189191251 1.2055997854086526 -0.6321944152612016 0.19416996785062687
Ni 4.07936226019522 6.590423614805695 2.2617697496981113 -1.062698643035331 -1.029873368975194 1.4999828698457716
Ni 4.04271604240952 4.207305847929154 5.596467014538391 2.285334300880348 0.7177180481563188 -1.3326369641665243
Ni 3.628808429370321 4.6112377540838905 0.8452212437192053 -0.04636855996221047 0.14534574725907226 -0.4922628970391651
Ni 1.4416393739888698 1.6748800103756887 2.824996663103036 -1.1163953612278386 0.58882710401916 -1.5927441581399084
Ni 2.207672595516402 5.140614642214445 11.494078722025549 -0.01915934653727023 -1.2066238557977929 0.322743894967999
P 1.0744753405818392 9.230532809882154 5.095408594140548 -1.3416576796078958 1.1466688154003992 -1.9495585124290555
P 0.5799039370810986 6.748575065413029 2.428346274328038 -0.7663517500036221 -1.9734101222356724 -0.2675996456956875
P 3.8466550340264254 9.262041445041616 9.648189267365927 1.4298879128008988 -0.477890430367577 1.1031127851863196
P 0.07130478065370745 5.750854647782751 6.446347643302412 0.32035199769705475 -0.36465621893106875 2.0629508467099824
P 3.591769172476603 7.961409530091287 6.604897747862166 2.3803543033016745 -2.828895076862541 1.58384145633364
P 5.688529874939861 0.6541892643039443 4.8112338325841675 -0.44893492367549137 0.7078853783366131 0.15183186920404818
P 7.489051386845377 5.541720410021051 0.041555463406327535 -0.35952429702114214 -1.048474014795517 -0.8553653983298688
P 0.5266040908042263 0.12392335914334814 10.425725433454794 -0.7700533672249253 -1.3701938393743758 0.9478932304569611
