# total energy = -340895.4388753631 ev
CRYSTAL
PRIMVEC
9.03241555199180 0.00000000000000 0.00000000000000
0.00000000000000 9.03241555199180 0.00000000000000
0.00000000000000 0.00000000000000 13.21985317090054
PRIMCOORD
 96 1
Ni 6.012463640718771 1.9964890367817432 11.48424507112084 1.6449802326264895 0.33785838201193424 -0.8393404836565221
Ni 4.676551293779388 0.259037036909141 5.873316567127439 -0.15394480178199293 0.4293811699132799 0.3910624768387394
Ni 2.8015482481697376 1.4601622573158355 4.694488768119066 -0.6042712064883722 0.8725917895104842 0.8703377033689849
Ni 3.2342551547191962 4.145065889128964 4.649818956272108 1.3694248224188352 0.35487291429205975 0.3411064566355867
Ni 5.0042924974730205 4.551063942451963 2.5050826870807517 0.44881819559196895 -0.4723635870120768 0.35387121250042286
Ni 7.209547758341049 5.856500918817767 2.744216795993781 0.5214935117695084 0.8000977361058156 -2.072226615584954
Ni 5.073571125896064 4.54193217017873 11.670049991254817 0.3119480899040757 -0.16752459734895667 -0.8094028155568255
Ni 5.618352246457666 7.986326476170693 12.503720282615802 -1.0739940134434922 -0.3517374539868717 0.4820409622008408
Ni 1.6424815682309781 6.57879610514183 0.44362890361453633 1.3650079242980622 -0.1543399803378826 -0.0025096537957311617
Ni 2.6109913741357142 1.610533913898213 0.4161333269805613 -0.3842688509556737 -0.07114550979657426 -0.028775786581111733
Ni 0.6020565717602144 8.97813088216709 4.985524040888895 -1.2251039168798514 0.7483236888573177 -1.696812901027065
Ni 8.761398067432937 2.283403721508991 1.3958053922080087 -0.34988754526232646 0.6756601997543203 0.010523782349459295
Ni 6.968951301326106 0.6072944696249503 4.67760718317478 0.028545929958492776 0.550707157218987 0.5886746376016958
Ni 0.9568218599882534 7.615744524809462 2.8705324198409445 -0.34842690155639994 -0.26165525518679456 -0.38550786556909733
Ni 7.557467378709659 3.734921956999422 3.805877001776484 1.0363422645289893 -0.1396515250877724 0.7634980826049109
Ni 7.5770948180269055 3.658959340957988 12.539281806470347 0.2695796522401938 0.07915141082018626 0.2345188039813187
Ni 7.955471744137693 8.930412630021204 7.034825612271621 -0.1512921946504943 -1.0165758805353395 -0.4599086490781757
Ni 6.923491153105351 0.7554784751246603 0.4061362492832178 -0.36468578661742357 0.22650030455221637 0.49624373606378414
Ni 1.878868919529477 6.464499916867358 9.188261001024156 0.392339286668634 0.38932183999854886 -0.4102683603432289
Ni 0.13947224055655155 4.9419597967236815 1.3552733299934627 -0.5943074104074411 -0.7977053246142392 0.2919371939997875
Ni 6.4590985322784435 1.8893103920792864 6.774711911410977 -0.014317187953620504 -0.17009312940708127 1.2311421526541313
Ni 3.4763509927404286 4.366360073791882 0.5436900047449773 -0.22495892820702548 0.02537601687094339 -0.9934696335351794
Ni 6.004451887992404 5.399234873978575 4.642798962789659 -0.6420543387744169 0.7690879179878626 1.4051595568162831
Ni 5.466372819880594 2.910849510561818 8.89575796070299 -0.49041041721145867 0.35653307560330205 0.10295365544610656
P 0.3567605488562855 5.446916996461659 12.360152744780631 -1.1828177545171308 0.5298452261683133 -0.945043933933624
P 4.1215183813976894 6.206796064515616 12.713387941789001 -1.096453370888273 0.19589980605754004 -0.07246062906357198
P 2.4695166470183554 8.330994426887113 1.4334416619489656 -0.1104229672399582 1.2987464820666665 0.6219074315128967
P 6.352064406227195 7.807656261198563 5.850512427208317 0.020815394083454473 0.179136213445956 -0.2603879584385967
P 4.521437618954234 1.1347785141200415 12.630644691281182 -0.28955403847959166 -1.628683552348995 0.7188377635830588
P 4.004196333863541 6.1260191709058 8.21394425506555 -1.3049880921010042 0.7502288762998305 -0.21678410570571693
P 4.701074302406321 1.0916938912285266 3.75733318683557 0.7611198121807214 -0.2056633132022071 -0.24310705987096193
P 0.4141624538747063 5.66331561181489 3.5748467762299683 -0.6859500117161025 -0.5806227138314969 0.28816667121376177
Ni 1.5048727150334453 1.106299307416279 2.5889233760961856 -0.24026933331185069 -0.41538305586197494 0.4086102559145156
Ni 2.1620712814038088 6.407433114471427 4.8680123126250345 -0.3157229835654756 0.33449923573171425 -0.8089302467957811
Ni 5.826937822229941 5.4497080129131215 8.89043064192282 1.4689385989454573 -0.19903449503177978 1.5968401825861531
Ni 8.439085345575323 2.340235681096709 10.298278953984342 0.6356728607281052 0.4546039490358106 0.19693518930058987
Ni 2.499007484280577 5.198615888854164 6.87772119302607 -1.0126912007689526 0.41538074186912977 0.6084577337658941
Ni 0.39046320155966285 9.000034490240868 9.077240869924266 1.1021751038633987 -0.03731133485594865 0.5014720743422589
Ni 1.4310056194345333 1.071678058036158 11.338667820792303 -0.5409361938751522 0.8977580043634668 0.4724926563907734
Ni 4.317088246145506 6.941348238945293 1.810895475175159 -0.20270757300799283 -0.1941504274666011 -1.932772036999336
Ni 5.677577796206022 7.878416205796494 8.1431788910182 -0.23112237670526006 0.1549130792325332 0.14541233883094956
Ni 5.2335442403681025 2.8871032896851316 5.009835690988434 -0.2759027662447442 -0.336890104561394 -0.9626868438263679
Ni 0.7101601358304048 7.307874635656989 6.664669990931453 0.37549367586620497 -0.08018088052596513 0.8160069511369044
Ni 4.760227592829073 4.571820433731775 6.811026738734946 1.1328010562793716 -0.7739653006848219 -0.06446604089386962
Ni 8.096431623560122 7.108863420527273 9.329065522896535 -0.549975164148969 -0.2505087516516718 -0.38599714650069006
Ni 4.375365392245307 0.45077173795051334 10.456797849528595 0.25646445501447446 -1.0194251770586766 -0.4257160623568669
Ni 7.977492773615578 7.1207500795891665 4.58389135407396 0.6918347526316536 0.37125829762861867 0.23921389546414287
Ni 7.36921377067927 6.2344352565592285 6.9646681298009145 -0.5331061563077721 -0.81532252347537 -0.02222872949121333
Ni 2.413678253157696 5.202725637997903 2.5311393998936325 -0.6272591827431133 0.9362332776205294 0.5985705565591691
Ni 2.3889745962167535 5.226020238089563 11.269673713463826 -0.6198199528562486 0.7454743923339806 2.042025152300909
Ni 1.2081217296083229 3.3259070768324466 3.8579100389025114 -1.3563044829867934 0.18629724997076946 -0.7436337395808161
Ni 3.562989924139886 2.6564966844349702 2.595003998345781 0.6250668030774847 -0.1875385785770383 0.17944526004594255
Ni 1.2906328470326391 3.5026262900132625 8.143059663130952 -1.2291204942384124 -0.18133167843537806 0.4897941237836984
Ni 3.360474131718364 2.5227446727415628 7.250322792537941 2.2423832512401187 0.39767278306640547 -0.18048912792942465
Ni 4.318506335410488 6.866035956834298 6.0561868554003135 0.058023627702635555 0.17524073504629173 -0.2299496965533975
Ni 0.6653349664333982 7.530713363404698 11.306504291724297 -0.06054356591101186 -1.1514783209739008 -0.1843151865437342
P 0.21118420176931765 5.632524106691792 7.933392907199323 0.43034199116465244 -0.2261246663803525 0.43019955204951715
P 8.534088293913468 1.6374053506072819 8.096366590167078 0.26635240355214773 1.37969920776165 -0.2488750727029907
P 1.8703152218610777 3.34207510093639 10.356155964068611 -1.3463337449273265 -1.4193268494556008 0.1741583006153904
P 4.107454910151969 6.09791932566146 3.770116764776527 -0.3207050101610993 0.28423982535552983 0.9873195547733835
P 6.76757359328285 3.8047425303644977 10.38252881143101 0.3213637267910207 1.411961410229465 -0.33835949001806886
P 6.251063933863899 7.877928455348665 10.39557703915199 -0.3194953061237143 -0.7122035460959928 -1.2528492053139195
P 2.492829311941416 8.485042276659605 5.768442994911757 0.45061668225328844 -0.5243978299004969 0.5866666060327315
P 7.068624008581423 3.8757463501863425 1.52688019588778 -0.25363315621326643 0.3932543422837357 0.6061745941586723
Ni 5.334111156777773 2.782643402108534 0.633707059616432 -0.4151125758094077 0.5172306227280963 -0.6590372464856585
Ni 1.5099399002414413 1.1372262987748842 6.893241592924286 -0.7915210501803981 -0.4059414508331009 0.9964924795219032
Ni 6.826573332638694 0.8479360887183974 9.285175208524532 -0.7335617000567947 -0.9124297474430285 -0.1543939735042696
Ni 2.546527023281051 1.5361158409415692 9.277521139459905 0.23998908306727057 -0.24161787691994518 -0.5312580473554399
Ni 6.3367905912776035 2.057403648266099 2.667303969820651 0.35963382601581284 -0.6649530977494612 -0.041966060019140626
Ni 4.1300540142346875 6.805374252989556 10.561115928178694 0.5376714070809514 0.6077709921115146 -0.5695368883309804
Ni 8.120177844436807 7.158812679351188 -0.062287538670835974 -0.2371135612916884 -0.6422757107566036 0.9253845078314836
Ni 7.772782104178828 3.8677616947070765 8.136780327735947 -0.10984061237392696 -0.3912154574768359 -0.055919436875439175
Ni 2.759655904150692 8.420776638950354 12.405907349753223 2.0413967746882906 -0.6238856382851901 0.3699616903043822
Ni 0.1536766174872007 4.855700226783647 10.034701321702546 -0.20949297136094244 -0.3694310146118928 0.7875324978462953
Ni 8.648646422243257 2.4406671112708715 5.906828635859535 0.02612035123613566 -0.018329137326491014 -0.08126974271476971
Ni 3.5980537618893327 2.7477240830102954 11.617343135917531 -1.0127169118005657 0.4204350164635856 -0.6614589685532737
Ni 1.035187098606028 3.3647283995133126 12.554021805652038 0.6230454017720818 -0.11449919419186087 -0.07513251946878029
Ni 3.0863854772858645 8.317969683446952 7.92425752195981 0.4074175211579951 0.18223747807909907 0.4030332760473704
Ni 5.703527926513638 8.093721898849962 3.3874819579045106 0.3187795110036123 -0.6163967861073125 0.4969988690622537
Ni 3.1862930273493966 8.371974496920405 3.6223988319269638 0.7601597622602974 -0.41588210698558054 -0.12137355271419095
Ni 3.517692359401742 4.265386698675687 9.432881399233684 1.1880561200979345 0.2005452752493514 -1.3023601675598537
Ni 7.254276280890061 5.915852922385932 11.32302909624841 -0.3072296013824838 -0.4253504514873319 -0.4130749765540886
Ni 0.5607865611829354 -0.13149119804356565 0.36772048206730534 0.006985944399529903 1.1312545377278582 0.27912461561615154
Ni 4.493391968204097 0.4218625882594058 1.5261395378003366 0.21144289599846164 -0.41741859823476496 -0.02493790089226028
Ni 6.00800162736271 5.527883570801184 0.4537948874854798 0.708818945894476 0.7502880116725401 0.14119110166075038
Ni 7.7174585580130985 8.918101447421385 11.534203362360456 0.8018854241338578 0.17361991161341714 -0.9535380874475641
Ni 0.1755440958981772 4.827338441483991 5.716991645356844 -0.3203311717614483 0.5694677256559418 0.07528190056245099
Ni 8.020216099879072 8.993973739305813 2.4994645245150235 0.20710210253126268 -0.08453992882560925 0.08607384897163242
P 8.633797130831589 1.763714651763455 3.7597656163837225 -0.27244463249281464 -1.1755351048127882 -0.5017443541670392
P 1.7869911870237136 3.336231127978149 1.6355997707087464 -0.5229459279453187 -0.6843469288950407 -1.1330211427099777
P 4.837391520158678 1.0180526060221278 8.101338031768647 -0.6268637470769075 -0.6952324654592931 0.19785950088707216
P 8.633724871505985 1.6028834577998667 12.446557736613444 -0.1093839844524826 0.2776174349430057 0.5197880990426275
P 6.575128944367417 7.668873193959962 1.3393428584224427 -0.5281554971707163 0.08115224330029894 0.9099715157105233
P 1.7892221937017438 3.185462045104948 5.98452186274919 -0.10564277224249546 0.03774482284894145 -0.2569264822525575
P 6.809393677976291 3.999083986577042 6.134514157872146 0.5242319937465939 0.0957260273494158 -0.42053734636940476
P 2.3250160606413206 8.412692626898382 10.237044594984187 0.4394334119429594 0.2887199726140705 -1.2857102177079986
