# total energy = -381174.2846986058 ev
CRYSTAL
PRIMVEC
9.13446347787616 0.00000000000000 0.00000000000000
0.00000000000000 9.13446347787616 0.00000000000000
0.00000000000000 0.00000000000000 13.36921062559545
PRIMCOORD
 96 1
Ni 4.565514366771439 0.5947330301229495 8.511280062249169 2.4460182211583876 -0.7743910753683309 1.1462103877067422
Ni 0.6043379182742147 2.3163811427626166 10.650273581671499 -0.9781031783814379 0.7301421328522845 -3.168650675897188
Ni 8.057574010887402 5.621074675838396 2.498210855601675 1.3357009478038284 -0.11673451128028282 0.616629470943409
Ni 3.08280828525611 5.355828130772833 4.373402902051198 -0.8005132263766794 2.2996774569758975 0.7415421471591099
Ni 8.60703024681218 5.984772466262339 7.885788553883941 0.7133073206831327 1.4666973683197642 -0.5467006071627553
Ni 2.739635633848708 1.135103215411434 11.111711956209726 -1.0006820921232185 0.7747649137679818 -1.2188782476851139
Ni 3.402468828150571 0.848600774265991 4.218106064735657 -0.13548993751091504 -0.9288585824230133 1.22352937330388
Ni 3.73130037218994 7.622727885884092 3.1989447649936285 1.528490233256845 -0.3091710413795708 0.7084055125061411
Ni 7.200670009489219 6.849294610045834 0.49846400804496643 0.8034838789692291 1.1983395043018137 1.1297995504488865
Ni 6.104671431429726 7.127795261347712 2.7068502182019927 -0.2102697016259669 -0.489679195472389 0.29434040412464146
Ni 5.245849192740278 0.5021031782203959 2.8401147300578544 0.538530412647137 -2.8906074662706733 -0.27308689406250386
Ni 1.2642553918933541 0.735481407753734 6.30818179289173 -0.9625546891238779 0.5546172909066706 -0.9977255805980559
Ni 5.419075154604846 1.8181235735880437 10.44440104800225 -0.1678650114075109 -0.9725202849770219 0.2847977547415289
Ni 2.464679154304025 2.2870503811328375 2.636729510742946 -0.2937451937428038 0.7617435618076495 -2.0482395086417373
Ni 7.197993611744739 5.406515267578702 11.970149633994593 -0.43528956497791477 1.5018564327194006 -0.5834280444907759
Ni 6.562527269464931 1.364076806745495 12.45608024495696 -0.053208465702179325 0.13764117952596294 0.8903426857360021
Ni 7.530113562569134 4.3679633291609665 0.6225584322022496 -1.2575792637997374 0.3408678582622194 0.5007313395214924
Ni 0.46851210291134904 0.604691422003605 12.075632589194955 0.7632952225654854 -0.9850243309813037 2.331129504837592
Ni 4.760197182908306 7.285985896634076 5.506911240171894 -0.42190491614089276 -0.17096730448191846 0.13763860842280165
Ni 5.616416099559609 7.1551255755166 12.259365010737682 -0.34518602602159904 1.2579569588541304 -1.856008923905668
Ni 3.2884615918063567 8.356289229453902 9.95258875612633 -0.058360442216764 -1.378490017944897 0.38442440269693146
Ni 5.362277061856802 3.2678177047670234 0.9610789014551677 -0.58588370512012 -0.43378315563571745 0.2856811857877467
Ni 3.5036421435698895 5.984151322758501 11.572789519447927 0.301525609019171 0.15776340419713475 -0.9623387164583297
Ni 6.003589460643325 5.229014376893599 7.027579237681368 0.5921798225414769 0.7133291750600037 -0.4798784073318833
P 4.188352377455471 1.3737045310549896 1.2359769204347835 1.7927626143515125 0.6470703039317695 0.5673735621310746
Ni 9.060236643031889 1.713013304489985 8.36326978630145 1.1914306929971221 -0.41196708820189054 -0.13962915649026922
P 1.3995276587807401 2.1243473209803545 4.473885652045661 -1.5392438722289232 -0.39333044693730973 1.1775734753990559
Ni 2.520883506938105 1.4981341900150795 0.10394471158203268 -1.7781615766088859 -0.1354287452556764 -0.029615508873587704
P 1.4071001288495932 4.943936912021669 1.778466301206952 -0.5626995536941729 -0.27447863220370794 0.8349176719984783
P 2.4391300604770265 8.377024461126153 13.04667810354774 -0.950454306315918 0.35476184263549226 -0.9988424678113185
P 6.143355883470248 3.6751508263356105 12.356706418806116 -0.42053014728055316 -1.147571786830643 0.03888510710097174
Ni 2.8918705990688562 4.006466944390333 0.5126726656952688 -0.3298167426543804 -0.18797849432793434 0.29692539124299827
Ni 0.1364780160418959 2.9676683754637194 6.3156282073671575 1.0358807515115387 -0.23239918653515462 -0.8028750417406367
Ni 5.344099479906239 2.636023416730495 3.226017487297689 -0.867252636685758 2.1342035715083827 1.0661246379977445
Ni 0.5812688312309239 7.7483084872189405 0.8291891263247132 -0.10747005525922138 0.10044297320911087 -1.3310876174015336
Ni 2.425647592658417 3.929773990592879 10.445056902466597 -0.11836047691948004 1.4568603276246845 0.21587650628978303
Ni 7.94651720618642 7.996838964460618 11.775118794806309 -0.2969744993133788 -1.15176062810101 0.4981525230507227
Ni 3.5466746001372793 4.583975117084047 8.15631481873213 0.06844739413912083 0.8807522138340895 -0.20889236166246605
Ni 3.987786966958723 5.399682689036481 2.3733153390137063 0.45769981435231494 -0.4474470262760552 -1.1903014644886856
Ni 2.46428637238248 2.5709403657768433 7.0036615589982745 -0.18788824860697317 1.0682846217635409 0.4686300881115736
Ni 0.4826321562677216 0.9867503970902753 1.4174704850247062 -0.9300741999976692 -0.7699875469839964 -0.1674538920120213
Ni 8.921977406648104 7.099715921188902 4.537469737573137 -0.0027207413652727335 -0.7448969225639558 1.2463743962228535
Ni 0.9004196710737061 7.675378932297684 6.720688674468761 -0.661683425859254 -0.7087243292981408 0.6837429767624547
Ni 7.841836256863073 0.7574397440607492 10.526555497401837 0.5672154392866554 0.2041489334402097 1.7033077647227892
Ni 7.212471736062147 3.4914659040019993 10.450738538634061 0.9745000344112121 -1.049632296769676 0.7890610186756798
Ni 8.432772090595645 1.1384555634395028 3.7413199649746502 -1.07932776695158 1.491991881220495 1.0692721824877907
Ni 2.613726191835356 8.986338835001709 1.7977975658712626 0.04602763168302396 -0.3605491387412307 0.025842414984400656
Ni 6.817954266491872 5.554374824882108 9.325639387419741 -1.2345676333959126 1.5290682172475023 1.3764135950318424
Ni 3.2878313138392268 3.163602613071555 4.688836015334241 0.40499554198006377 -0.11415723747140985 0.3932391727750841
Ni 4.819260622552701 4.027741109396797 10.559283365929813 0.806696986589888 3.5054163390655755 -1.8298212097667068
Ni 6.641796141910656 8.435585505289502 4.531854782987704 1.0643870864813476 0.4983088461229289 0.04070776213200731
Ni 0.691880787569598 8.80435292284036 9.84485963640253 1.175768560979833 0.8513701611275467 -1.017268792837306
Ni 7.174399293062173 1.7305332050835434 1.8941095199267168 -0.2589419700206896 0.1411319662880408 -0.7590289910899637
Ni 5.794136217363714 9.045246988770144 6.688976558258824 0.441244239899453 2.709676879928456 -2.1416196614667955
Ni 1.6193393834331853 5.240450724934859 6.367915702141739 -0.3963514931518206 -0.4503847687481405 0.00029619108418013504
Ni 8.31502885876511 8.030609075250183 2.595070877454634 -0.958140619216582 1.3075594523726062 -0.7597141900824464
P 4.45914354173912 6.495781746192182 9.495334879222051 -0.3033858021563614 -0.701553008360682 0.37596033108997834
Ni 5.719799955095529 3.47488685312749 8.384928512212497 -0.88423220196289 -2.1712341418991183 0.5358963174583996
P 2.3318457891155338 0.7629980649737733 8.716444675013308 -1.1081097241802789 -0.015389337971876721 -0.771356145196749
Ni 3.585834044268971 2.412548772298061 9.179874362549134 -1.0723302525878242 1.5787745833336937 0.013475922999247759
P 7.8358349144804 7.715077309763589 6.312713400130763 -0.32910249019617516 -0.5282465142226258 0.9057155686476466
P 6.058807291241896 4.888627736790179 2.8336977695954064 -0.3046011626207012 -1.2685298492739703 -1.1798015933986261
P 4.25431233688513 4.710030710510067 5.971184038669546 -0.23244572350237389 -0.10421143911260762 0.8315703527928001
Ni 4.76143033545269 2.1453017797716076 6.3153340776491635 -1.5498607285128212 1.1879023681288896 1.009582994157274
Ni 9.057587648677284 3.126553229960255 1.6754825351632106 1.5846225574740387 1.5132911569189036 1.3669863881806716
Ni 1.5396320567494572 6.786696133107536 3.010585737793633 -0.26808609841380276 -0.7367781501115633 -0.9456756539803519
Ni 8.053015913704822 0.7867248333740695 6.337674234521774 -0.433698309231395 0.0005239908242700654 -0.7280248293989655
Ni 8.66008320961061 2.9193379301871203 12.595106776257252 -0.0027541657063694506 -0.02330190795073406 0.45690791457863894
Ni 4.05719975351266 2.8811284702377695 12.191664022604618 -0.1606533241504201 -1.2697146136106907 1.1606808134087752
Ni 7.577877671121645 8.653570337283599 8.418885879499541 0.8689691051562325 -0.545318382103248 0.3238967776255196
Ni 1.1137377057720528 9.082561271316903 3.6901962008234364 1.385040160358589 -0.32487662504028564 0.21525661331759702
Ni 5.6858197516502536 7.405994475360964 7.933116035091108 -0.9313587231370477 -2.508046599145042 2.2019153730330596
Ni 3.060154816292593 6.87845181687307 7.214079401601494 1.9137736415199622 0.25707509201527984 0.529442848523572
Ni 0.5208425296634016 5.546108135603082 13.18436734942212 -1.1704731169088487 -0.9332873076183281 1.6445143487336644
Ni 0.8364930431727889 4.373288721260051 4.086713204408274 0.13489344157749672 -0.44149209424420094 -0.9508775098962656
Ni 4.952304080396902 5.557818517543093 0.21763498205002335 0.2360079869323355 -1.6698955078109303 -0.14256484207982542
Ni 4.284985864618794 0.040525959840136225 12.338697824426449 1.1916811184450316 -0.06725208827943902 0.641169107955986
Ni 6.826257493624064 2.9544142692274042 6.269851758026929 1.6228669456672182 1.065767254658326 0.7001101052665685
Ni 2.6042994257182794 6.394316127947528 0.3844129262769519 1.02792575833052 0.2382211925335704 1.1825215634329505
Ni 2.582806033592814 7.76131596294638 5.110033425287032 -1.6396817032317117 0.21701884742434238 -0.07807566125750424
Ni 5.735483828567447 8.618265636661022 10.42699441475351 0.3789240417039926 -0.9180517216154964 -0.6912639677298482
Ni 1.9947384213338477 6.41500568730332 9.20582445931464 -1.0188960440280839 -0.8996025137713733 0.5635382475453843
Ni 7.934615000517282 3.8483493848103034 8.298830715009867 1.0509548722358415 -0.9588893244571485 -1.152458425498983
Ni 4.79511823607263 7.768322096291145 1.0294156482333372 -0.8277005854247487 0.9966020085165741 -0.7249158514563386
Ni 0.07178774700978917 5.035619520080868 11.101565394385261 1.06812264226438 -0.9104507693397869 -2.9182586523290386
Ni 3.41826231518199 0.38210921463477493 6.691276616115685 -0.7060352125017517 -2.5690640193686787 -1.0012978713303464
Ni 1.2012458641069277 7.148767989065548 11.555195629701705 0.8771282439282571 0.5361287451841799 0.8979017290301826
Ni 8.288246612393728 4.901269833985947 5.657796131717523 0.22862737819754816 2.0421159122425028 1.569852598253716
P 7.002187256622988 1.6111366353972023 8.985205248107203 -1.5863876197942615 1.698728887102855 -2.954021411750945
Ni 1.0984831520748461 4.0816983840611085 8.471734230320237 0.09050514527010865 -0.15475444216748188 0.10669306788388076
P 6.137911743348369 1.4568098780832452 4.962223194085404 1.1521480933474157 -1.1400248277213205 -2.119590449580898
Ni 7.425030696860951 3.650542582227661 4.079707984509838 0.06369522416611612 -1.121948429835584 -1.6289476046436593
P 7.505706276653603 9.224620444430053 0.5952737903498205 1.4238813015955025 -1.5197898772693696 -0.01490519924660659
P 8.845165704827858 6.943900246358391 9.9188040301955 -0.8512117811728114 -1.259557470572031 -0.3129600761083578
P 1.7322870220355575 3.012975313390753 12.204979329744988 -0.19026420503831748 0.9882569789859884 1.2965672150271605
Ni 6.289607775234305 5.826938075044354 4.725494443416655 0.6092077245580412 -0.3046700681854237 0.12800699887030856
