# total energy = -340858.84790027136 ev
CRYSTAL
PRIMVEC
9.38787710427767 0.00000000000000 0.00000000000000
0.00000000000000 9.38787710427767 0.00000000000000
0.00000000000000 0.00000000000000 13.74010708327040
PRIMCOORD
 96 1
Ni 8.058873028504921 7.132420973144768 10.509079891156441 -1.886746719309157 -0.6528169766075596 -2.223085322242455
Ni 1.5456107243422577 7.948518531304115 0.4467296497573831 -0.6031548334957418 -2.0929137116206604 -0.436497469243087
Ni 8.308534236378863 8.224287425840366 6.357341867101072 1.540011346522567 1.5206370557610134 2.943808475773685
Ni 8.933888904353102 2.85127669377551 3.5238016898344076 -0.23842868055868613 1.7938843866607814 0.30025085607180546
Ni 0.6406785000270572 5.298780786563644 7.699048836126294 1.9596356941593993 -0.7328299640970928 -1.0552293312414793
Ni 9.35290741801203 7.202445149633139 8.552090507670101 0.1116396132558787 1.4009941125846839 -0.4704625133346221
Ni 5.314214456780413 2.1942285521687803 4.5589672414501745 -0.85330054538104 -0.34561822846301127 1.3666752846981558
Ni 4.623229138875861 4.14322697453072 5.953436897044319 -0.7141048768837637 0.14208661689182628 0.0522422451341681
Ni 4.731302381902289 8.918990343140198 4.565466468877832 0.5891667467467661 -0.14928750551563966 -0.32059213873231884
Ni 5.516523211750837 0.8321142155540128 1.1355125716565493 1.4857068195427316 0.3705021361888845 -0.9129961614694597
Ni 5.788518179628243 7.491601157143304 2.4092729014312173 0.031828714474822606 0.5238360438597558 -0.5233791588279955
Ni 8.260017686695004 9.028424828369443 11.560678921917255 -0.4865871868106265 1.30321248825782 -0.8421306448071496
Ni 7.677847254120484 0.9831829976472178 3.1504007493612 0.5730526147937228 -3.8615395808249686 1.1404084363129843
Ni 3.350890133718479 6.182489836755334 3.9711246534346736 0.3033037839655164 1.062722554294731 0.9637319972614307
Ni 5.514476654507981 6.707084418089316 6.1572580390414595 -0.5888479299547665 0.3097857921454342 0.3870435854873335
Ni 2.92907403263583 5.370194368886614 9.731623774590307 -0.7127473344146047 -0.8926049994076176 0.3995337475345442
Ni 2.0774809105533656 0.6066361795039132 12.350899735194908 1.1336068400101185 0.29488239267104055 -0.44531583886566534
Ni 1.4736714208926818 1.5969530250816195 3.1092902960483935 -0.462752546284874 -1.7068373751426025 0.7959628880018357
Ni 0.07718055532428528 5.663809618095663 1.0557503500855419 0.8583584195199216 1.586508975863474 0.04639555654540396
Ni 0.40449640632418377 5.556074338650624 10.433784421586127 1.5501070401956722 0.5551173704715406 -0.8856810185942747
Ni 7.7270491188443815 9.05985544143863 0.8587288475884051 -0.13313172169138365 -0.5080456137947186 0.8374278400148416
Ni 9.179410058355028 7.060256360640933 12.422802425923168 4.113638559781896 1.3139026209818145 -0.6241360637330993
Ni 2.8797407376302813 3.298308633180691 3.4177834531403706 0.8256928109661005 2.5771596518926194 -1.335473662284371
Ni 7.935666527334069 9.258775172717904 8.851281217184344 -0.17606091695474194 0.1996399898262626 0.1391535024054313
P 1.9182719000873134 0.4663681501992685 1.1819581556166736 2.026485404794097 -2.2461519742539315 0.9029014962376192
P 0.669795001351455 4.363269429646812 13.060714318521464 -0.9169456330355112 0.7699703205928159 0.6073071651012186
P 4.025671975470876 1.5690428659852358 12.298797955185147 0.5122709647299759 0.8773786693761664 0.14330352001806287
P 2.486398068279664 6.841227796269009 8.21707847489179 -2.2047194181407574 0.24470062961032696 0.001952752850996637
P 6.1114987089091 5.077048513540607 12.327239468134492 0.03440238873926978 0.1257714246715705 -0.8606333315970274
P 7.964543637788315 6.984871706236641 1.94985835191903 0.44804712175389927 1.1499400299525036 0.46267438474877093
P 0.6417036562239375 3.690806393577835 9.029201205818913 -0.6199161121144808 -0.6379914815589528 0.029153995856136882
P 9.102035173971444 0.6414154483920307 4.790433804404944 0.6658234161695566 -0.7822229127079238 -1.080563953351526
Ni 6.441567085521868 2.6835998180202085 2.6823578018586036 -2.7270176851997485 2.6501722968049197 -0.022165737463761825
Ni 0.7909718434585195 1.097377136647693 10.486807152355173 -1.6174167211859243 0.13185568319243743 -1.1317875274131928
Ni 8.382613975843903 2.8204281290964928 12.871595531102477 0.3391282498632934 -0.30372930153870914 0.28500729964917365
Ni 0.13876127500428498 0.10825912299619195 13.286683340552303 -0.887159145801698 -0.13634328665014583 0.24792762118805686
Ni 0.4231379142009713 8.735278973023437 2.481820539327294 -2.001232029543947 -0.12745138347715468 0.44850452100629207
Ni 4.26931555402064 1.016275264991568 6.597051925078556 -0.9775393354581681 1.9704695515501096 -1.4620403291637272
Ni 2.326963748759353 3.277890000138432 7.032269220951011 0.2663716868258574 0.033537726746129336 1.9589314690035229
Ni 7.856658152307104 7.67142594607409 4.412992321558684 -1.2188003432593268 0.18812504720812764 -3.6033270327711358
Ni 1.1497614917630046 3.9402329045202573 1.8007506973856078 1.1266720605634983 -1.9100481130392588 0.11636221554252864
Ni 7.257458110381477 4.9790390749377655 2.421199260703349 -0.3246015170020281 0.5287993014023021 -0.22144423018554768
Ni 7.861821484800549 4.902828287334522 8.457792096948458 -0.5270650923200149 -1.1303772773292275 0.8398811866513407
Ni 3.509141580703929 2.070064487517327 1.5404304936697433 -2.4589457278533327 1.3740741482653884 -2.712988460800192
Ni 3.1734029262256334 0.19072223685513418 10.032518383827387 2.480754081977676 2.7991695247736503 -0.27422460721137293
Ni 3.2266509660489393 6.459037925104233 1.2544044044383331 0.8017463274528321 -0.7896310322465369 4.459853541288642
Ni 4.983761177199953 9.252475907075901 8.396496768737187 1.0046935272754567 -0.49369860104442714 0.06564694857584823
Ni 0.845676881832703 6.965448188184028 5.531066911203282 -0.008392594939069416 1.262702958179548 -1.066523158987744
Ni 0.7610648828687616 1.9656712923771358 0.7991148881945448 -2.532075100849155 2.50146123261804 -1.4058614679793144
Ni 6.663149152508732 4.417343602669069 4.733068241615047 0.2695313155007616 -1.1823181891728929 -0.3690792876994289
Ni 5.714767015867332 1.2811917734143243 10.177806111103385 -0.12585447130368002 -0.1784229894290153 0.4357006843734044
Ni 6.683398803760296 1.1032821114447415 12.781734769962016 0.5284375471875092 -3.296598539394787 1.125683471397984
Ni 2.5416175623277395 5.8314395544646604 6.325642760742225 2.1922297703141793 -0.1314551053199091 0.6239864255291124
Ni 2.521912407957303 3.3539787453372853 13.221899477150917 1.083632822084837 -0.24381848411568977 0.3898247477768964
Ni 5.418016215653173 6.3553675965131236 0.11270240530373263 -1.5562062111148747 0.0882340898477448 0.6381701732286622
Ni 4.873021777031455 6.431719202275279 10.908724642512238 0.25251858299284896 0.3268754006378693 1.588539633140258
P 2.6073045395216172 8.411838437756801 4.981956827190426 -1.4398992742903136 -0.414127586188319 -2.3799228721912113
P 4.398980914746928 4.134674618346124 0.8869319084553261 -1.2261742671258946 -0.017196052163312322 -1.398451034447856
P 5.83156159686905 8.44806625610626 13.7690991281412 0.12990987231997628 -0.526429515618545 -0.9160557742313901
P 6.383465513154724 8.993145185623327 6.582761698312154 -1.5830611265241896 0.5552191861567276 0.06134137922195887
P 0.7253449486791113 9.349471454934575 8.188527123778496 -0.8158033197665305 0.6029584012142196 -0.25301686278550617
P 4.106107307841484 2.0258663613734402 8.926824526714343 -0.018842843738115938 0.09428646668941182 -1.4910097198128838
P 7.635967933660018 1.6432352599774056 10.930681009849817 2.262078929896833 0.8510600860862956 0.29014282110352607
P 1.5819136457098042 5.48369380496979 3.087443766874766 -0.3086246819577975 0.6248598292730013 0.6524863327410182
Ni 6.97777447102747 6.960031383004541 8.02409939234316 -0.7854164799445571 1.0523370972953487 0.6221632562774446
Ni 5.985823196018656 2.2413650838953 7.406605193999395 0.6605570255642946 0.7499152017141537 0.6599463885634892
Ni 2.9096880660922606 6.050684040013582 13.046382785095112 -1.0147077169783492 -1.0246234334301643 -3.6338349715520066
Ni 7.930306049418148 2.353362459616746 8.912026415788132 0.6466517283371122 0.940334958493729 0.6121696353998425
Ni 0.7488991327264798 3.291145682830694 11.14903927978532 -0.9722855432583964 0.5596234858720104 0.7088477422498825
Ni 5.685749087254171 3.7961196006895856 9.615285444423463 -0.26087184005355074 0.18769927252461868 -0.5018865361718583
Ni 2.8429496466451725 2.6701657656599913 10.684197598428659 0.7862698290837877 -0.6628237101112843 -0.9744684098423281
Ni 4.1014603085973835 4.314724716331171 11.691567523050624 -0.36216507707809886 0.9575996591114476 -0.03227351532172506
Ni 7.7321936755833045 6.164474500291842 13.471144802062204 -2.9495170961226878 -1.1400970757201527 1.626498114661902
Ni 2.669292693074736 8.248029367432952 2.6707468752624353 0.9303606208898364 0.6197713590065004 1.056957883896812
Ni 5.824905591891137 2.933580213721018 12.180811113771304 -0.22252460773392002 1.158104568041167 -1.3573180118529722
Ni 4.770956775451944 4.711662942672677 2.814798219103186 1.0335104515071492 -0.02478620580574441 1.0608037400054635
Ni 1.3549147735434537 4.189208797354161 5.165510480969206 -1.6158437202718492 0.23694952490999835 -1.2212619174259418
Ni 3.4951630314625852 8.320776028326957 6.771866403915252 -0.11170234817301408 -2.028886815146738 1.6396313096097503
Ni 7.795956137938717 4.827959966179574 11.115142471359718 -0.6405895813034322 -1.0569036336201088 0.06421767232848939
Ni 1.5310407388334828 8.368682365988862 10.023092016269809 -2.4308944781430717 -3.5977014590542424 -0.009811586773783102
Ni 1.720197077761514 0.879790550223029 6.124680227371002 -0.39578507912538935 -0.729303439001073 -0.24424760123330838
Ni 6.538487530362455 3.999282652490743 0.5061267491865188 -0.04629476930148156 -0.6333002467308706 -0.5139324115927988
Ni 8.2834216647062 5.754017730694772 6.033748309435084 -0.9204814141029114 -0.5522716734926296 2.383647629340966
Ni 8.814202857155053 5.6429403669448845 3.9393983222317717 2.339211510514778 -0.6674714932959407 -1.9474610064700781
Ni 8.534500442046523 1.4709771001188297 6.671674283849272 -0.20161871081918825 0.2911846321044792 0.48811339364716577
Ni 3.663309301080927 8.799088374765152 13.683759568689545 0.24701642222769715 -0.17276013471628313 1.248125060365373
Ni 4.513071787097534 6.821701011566527 8.739986054682007 0.9995315234585431 0.5783064069934943 -1.2283288515750523
Ni 4.773313132644407 8.982780969127392 11.656433392402048 0.7750335940483362 -1.002038863261429 0.16450972178203283
P 5.788668385664416 6.278218021183799 4.147822340449886 -0.26297808776327614 0.3412990322623671 -0.7556734443541695
P 4.562564676016517 1.0995551241722006 2.8606082437727536 1.1270440991909363 -1.8276414285065683 4.454948133567224
P 5.996450273077891 8.193532739933959 9.968489305757767 1.3682205176980888 -0.6599605296308764 0.29143505755238835
P 7.905108986850137 2.1331697984644817 1.4094048295283645 1.4491858417985621 -0.02330190795073406 -3.2136832906567943
P 3.0872316008486718 2.5349146179635222 5.213368001669355 0.42940636672426047 -1.292297641117529 2.4241741287001024
P 8.520108826205705 3.5053301025360413 5.597610062803345 0.23549016675565249 0.2465417965841238 0.47341671086693954
P 2.893709898994364 7.545496960497606 11.5359878659336 0.3241729141050417 0.35739696626549416 0.3045741660375077
P 5.324832145962388 5.063436091512435 7.774784597140141 1.2936875794865201 -0.3968826830649423 0.32615806285587057
