# total energy = -381173.198398937 ev
CRYSTAL
PRIMVEC
9.22338401084706 0.00000000000000 0.00000000000000

0.00000000000000 9.22338401084706 0.00000000000000

0.00000000000000 0.00000000000000 13.49935481381818

PRIMCOORD
 96 1
Ni 5.212134362326073 5.546740291181965 2.067844902287418 -0.06645890295418232 -0.12540684224330015 -0.15564661496444807
Ni 4.4164237915027975 1.1872063328889135 3.3417787159920316 -1.7226110930370913 -1.5787912955042422 1.3517795985332461
Ni 3.7585751430183794 0.28512431776580843 12.935689227399953 -0.16836920473743908 -0.3261351800377351 -0.010435850621343317
Ni 4.463223242492786 4.91163650792051 4.449265495314396 0.16505968074823185 1.7993101856620433 0.9510600582207169
Ni 7.519345451455681 8.144017587285195 5.689505364515358 1.1513461662714106 -0.4535950481553221 0.9055281352271889
Ni 6.231410540667348 5.564486082215615 13.432290063126691 0.10728930670698297 -0.22011368429958222 -0.6883066848737371
Ni 0.41181948895890635 0.4311710711666507 6.89501181382312 -0.5527658395202287 -0.19942427427103074 0.04258055367468796
Ni 2.0988917355506027 5.531650834772895 12.303946445309318 0.39767304017672156 0.05440480000312566 1.0092068417647782
Ni 9.202880530239996 0.3638292990799136 4.220573530906322 -1.1980440845485818 -0.24059817740617917 1.5380951033364607
Ni 6.9459184377586825 7.75766847355468 12.200905565012738 -0.48460460916295894 -2.285921797952702 0.04325264004104809
Ni 5.504949137765403 2.6116842220879284 5.386728411895443 1.2206559084108268 0.9207094709533175 -1.1378069941343951
Ni 4.875443948660613 2.417790241261847 12.632642029625522 -2.392861948850382 1.5109658512198365 0.4017379542747146
Ni 1.3558743581656023 6.03510925658774 8.542432732112498 0.9934035561839342 0.33723308972310956 1.5136716801867738
Ni 7.2472740668867655 8.761661504420509 2.448513333742661 -0.03069151554658585 0.5113739068370032 0.9749638614215079
Ni 7.686648415883629 2.094114022580005 1.2161852834339362 0.26366508652797177 -0.1857719735949188 -1.4003263970936979
Ni 7.243188107724652 8.520285542180067 8.037934834908105 -1.5091905044869687 -0.6911608664930806 -0.8868508705326597
Ni -0.17091484164664578 2.793984409083814 6.4284330933846 2.040537769122105 0.5994197919333418 0.6859865213809928
Ni 4.37296320556176 5.394674357308899 6.903961263428084 -0.8815682819774817 -0.0714381013363286 -0.7527619271343294
Ni 0.03448531086055734 4.075592078370546 12.17532450917499 0.4581104195271723 -0.7064866982168736 -0.44137793726383984
Ni 6.972444890468026 4.037130566618821 3.366496463076791 -0.9233916457711709 -0.15695556358385873 0.9164908048862798
Ni 6.125304729829974 0.6223376973104817 12.536905147208124 1.862185227919709 -0.15522701092852623 -0.46225915158822317
Ni 1.4783885693402217 0.7970064562911686 13.195997107870992 -1.0062367033928605 1.2025172898285872 0.4994637856629785
Ni 2.503927425494307 1.984300411329157 7.838832409073343 -0.48872428775828736 -0.46027425994771054 0.26369953931033296
Ni 2.4075430615121665 6.568091730948693 6.19575847171648 -0.4552521241427708 -0.8654716335259354 1.2138627967483933
P 4.950752879944266 -0.028816618984631653 10.811228426410949 -0.955027270398581 0.8366012303484882 1.1996566804513404
Ni 1.10005457640401 1.8700226821675572 10.866319699718636 0.7866871191268645 0.6965429567406004 -0.1336621402735569
P 5.795384280103548 3.622843822409654 1.2291220019910032 1.9547385139680982 -0.2818705537924049 -2.349664330416985
Ni 8.295576235032039 6.658840607237715 9.906906973625178 1.6782125123170581 2.719512377961639 -1.5560334329824363
P 6.991149913449441 5.191086599779925 8.98444127961207 0.3403443816585816 -0.4568397803448649 -0.43244412510931984
P 7.933530738439604 4.407449438760729 5.428441166547044 0.4624501845531068 0.32629510265436706 -1.057939531083791
P 3.581440051125843 3.006694093500667 4.845904216361513 -2.8601121258952937 -0.6825587266463664 -0.3440467702108333
Ni 6.448593566379065 6.313553999578825 6.9889805735060335 2.0620805282898877 -0.5759687599992532 0.7524515949827622
Ni 0.8572923395313662 3.265991091072907 0.8591093462016516 -0.8755750405085243 -1.9393224365233441 -0.7270444677635671
Ni 6.976706093928288 9.04485629022985 10.180295457445448 0.28275424194893883 0.639697408506466 0.7257463177774339
Ni 8.023384946469653 2.0930810035593352 10.644390320542305 0.29059173571548663 -0.22799900058492992 -0.1585679023763011
Ni 3.0368268893982417 7.0060364554080214 0.8135153915152483 1.9398227731985302 -0.11992165075901284 -1.189960793319815
Ni 4.641188438955504 3.260973570115368 7.741690805255516 -1.2817216653738956 -0.6443588185378774 0.8589677709691464
Ni 4.841529565276659 5.436142692281502 9.197340043403242 0.4358492941361268 -2.164282136061318 0.0507710599052803
Ni 2.0246158232876197 8.892439867760485 3.1133966572901586 2.385589326448369 -0.9357828203466722 0.959776097937476
Ni 1.7292092769125011 1.7180213119832823 5.169672668884485 0.5579368421982069 0.5893408104307851 -0.30365242555418676
Ni 3.166664467558681 6.487276439349505 10.326790467314188 -0.36521491964801617 0.10934258969158586 0.29184669116851025
Ni 2.8075243369618788 6.048538503856448 2.9004711456850583 -0.41548744265032317 -0.5636901997422162 1.1199805074759357
Ni 3.566950114684126 2.6256023087146314 9.989860245661788 -1.2210868253006584 0.2045238002811252 0.2988179802800208
Ni -0.13583370017238064 7.42218632320804 7.688517073504948 0.5546777118309609 0.32401067749556456 -1.382828754529567
Ni 4.493752643907225 6.9259867046902235 12.21961612202462 0.14676345354220532 0.5398259915301089 -0.29139931921844653
Ni 7.897043030888088 6.659246436138692 1.4370604298061378 0.12220273348370567 0.8395515712260637 -0.0627696270280532
Ni 2.1761836944185777 4.261037439349007 7.429356582017581 0.31928550410575335 -0.3922251296882729 -0.4774983371354809
Ni 7.468008095482037 1.4933950152922735 8.325497815433424 0.588638899267754 1.186013635746609 0.5803103247974006
Ni 0.5748557158961219 0.8943684989892999 2.1309946462947402 -0.938783297735893 2.3815300687773306 -2.19764502779248
Ni 0.1695645382124845 -0.06634011257205187 9.539724052081732 -0.5776836858078309 0.08641503436113504 -1.307604960898561
Ni 9.393924485375122 5.149784285721357 3.2161940402461537 -0.9360355597874266 1.669936645461511 -0.22758659563785966
Ni 3.0348623085821465 2.2211476919700543 1.0505978684510306 1.0104502272535758 -0.876408335043097 0.19193567920346943
Ni 2.70857587219629 0.07828255032172414 10.680028554417003 0.6519093771916258 0.47989897615717353 -0.18657929998756254
Ni 4.34671345437581 4.545827870609919 11.560374742539121 0.1313808004385479 0.06956710956586083 -0.28473579115534187
Ni 5.146270176374258 7.63707272627559 9.427288232727523 0.3582333461238605 -0.24955615793041538 -0.08979526368727761
Ni 5.515150200594517 8.092993826371396 0.6074511553519003 1.1038985143124085 -1.1175585282980045 0.3652881960881128
P 2.7912266172339897 4.569402840403064 0.9825643425558093 2.212441983595996 -1.4051760118765155 -0.18575628986563492
Ni 6.971467211752035 3.1385608161659935 12.513497120667427 -0.09737281892421941 1.1252651529136428 0.5172272802939866
P 5.625360417362231 1.35554231633753 7.128226003461859 2.306822809771427 0.22483320126243858 0.2955495939413942
Ni 0.9821889508224051 7.815462198407511 1.2597869871519047 -1.0562510876377746 0.44305043987025633 0.12481754539873344
P 0.18927306538540672 7.59649905956196 3.283353189327451 -1.1705695332773969 -0.6914228619052157 -0.013088200642525848
P 3.800310956130263 -0.31528293913889954 1.6253761079206024 -0.7793833863765997 1.1171106421273083 0.4070457396408732
P 5.458721536590429 6.968875440816246 5.059598958201648 -0.3039972104881152 -0.13627026732036532 1.3457429054208632
Ni 1.6534760699596445 7.908101868439723 12.435173987455608 0.7397562589032808 -1.281354511842464 -0.5539850566393105
Ni 4.814320582142944 7.927434081540829 7.07813011498984 -0.42535790768649967 0.4284684282910234 -0.8925785170450564
Ni 6.830644583112865 3.6725209692429375 7.202540653938117 0.6700559661936653 0.5986849706498464 0.3605745926625274
Ni 7.029925020261011 6.555012972276283 3.7513624566419166 1.1532752649733236 -0.45717376664551584 -0.390741860274527
Ni 8.841877276052342 8.940650496519783 11.781737805930906 0.7250086682804611 0.8031252100782297 -0.9190495667523915
Ni 5.9517852045097825 9.235097810947137 4.655050262939117 -1.3129145460369325 0.651834300979316 -0.8188081680311252
Ni 5.435561619082375 1.2616113725294804 1.3238913514149355 -0.009417179548841845 0.43378649806982705 -0.8310427624241042
Ni 8.902059857390473 5.066377223186382 7.295456103155312 -0.6483360580180705 0.23375132968767487 -0.4668220883685573
Ni 4.933403694427481 7.612271046395401 2.9584106000068773 0.19745763746296316 0.5984494576002726 -0.4048577308506189
Ni 2.7122375556892004 8.268542496196476 8.413432637229532 -1.2733354981927296 -0.8164689783749874 -0.8459250788525754
Ni 9.180845865593744 6.591639030589497 5.340426101309152 0.32190802933026497 -0.46446824342440013 -0.6313667771535836
Ni 1.9714430138754626 3.2717833762959487 2.8492951989333926 0.803477451211326 0.5051942603888525 1.616198532508107
Ni 1.0739616227479836 5.519457520975346 1.1711189063188037 -2.2265449986562817 1.513318667722729 -0.8113306287071574
Ni 1.8716091042350143 4.394426020392998 10.277369730559249 1.3784967028131163 -0.6627864291154456 0.36035964843824386
Ni 3.596096008481596 8.014613508178073 4.770348098383628 -0.010991980235129458 0.4503397744428179 -0.26288192850504405
Ni 5.760566005076507 2.2328244962572685 10.316315469976914 0.12246601444742133 -0.32000232766711983 0.042011054324463136
Ni 9.079988160316738 2.9865502225976055 3.834208737422814 -0.3120974709977464 -1.5219819998246822 0.8013593764270587
Ni 7.472573670618033 5.404635612151073 11.337419723049408 -2.6798765087375718 -2.521091862364774 0.5457048189083893
Ni 3.89390985811024 0.9195326578651347 6.124400838186888 -1.4441853032601772 -0.38613984272614144 -1.0722132673939857
Ni 2.441309870750312 3.1013075677330875 12.45674563821938 0.5164500358083299 0.3698189940789308 -0.6418838746348235
Ni 4.488910367247835 3.3481898902890634 2.821675775206644 -0.7146630633800789 0.3490784190974698 -0.6641442286949207
Ni 4.405826123156818 0.5648714025936659 8.619108568921718 0.42550626033890593 1.1440198078133266 1.4751915218337046
Ni 9.03557756581205 4.15627824259215 9.495122533525901 -1.2825503319227782 -0.8943232676503048 -0.26879186623157575
Ni 8.88787429262449 6.373884155062766 12.727191862507564 0.8177666141404883 1.0758133260404183 1.1119782059967496
Ni 7.457216736069682 1.3579865131275077 5.853671456006432 -0.0641035153481283 -0.8043189732760149 -0.4195143044215291
P 7.368321759987398 1.6432842305146427 3.1862125078480346 -0.12593211861915085 -0.9116612447081203 2.8884860490522963
Ni 1.5584198732897938 4.857015627202593 4.949659908926861 1.0144009843712078 -1.8868590765173052 0.6082330193495976
P 1.3641385103309611 7.597264600443348 10.24138008574984 -0.40455973999422584 -0.8889764015160947 -0.025698947428000902
Ni 8.405500526892245 9.017573520023232 0.4714680363568871 -0.9643572895502552 0.1605003435123236 -0.19538275721180542
P 8.754605615573968 1.9337009260845617 12.733266383284466 1.124335699120838 -0.7976230493130779 0.12496461249955897
P 2.143726605724496 8.619317017402674 6.174591727515272 -0.3324150995091759 1.6890083173809816 0.6960379920797238
P 0.5403777837428552 1.846853541275391 8.67338910676586 -0.5956454124925742 1.7982074395161676 0.04735946312057005
Ni 8.095410353009035 4.374743318695593 1.333879354071037 -0.8116939255838472 0.45101443191233936 -1.0626749888862472
