# total energy = -340894.90759921604 ev
CRYSTAL
PRIMVEC
9.04092710621510 0.00000000000000 0.00000000000000

0.00000000000000 9.04092710621510 0.00000000000000

0.00000000000000 0.00000000000000 13.23231069086549

PRIMCOORD
 96 1
Ni 6.4248443538614755 1.8676566150681018 11.385529568166039 0.39931006155951226 0.2656252955781361 0.11769841785544892
Ni 4.61796989092527 0.22498618034328063 5.99148469651306 -1.1874516537447164 0.18368526626921913 0.30774176513221196
Ni 2.7004887272332083 1.506480622874569 4.7904138199923745 -0.09498169298422351 0.33253722690933696 0.03621810179176988
Ni 3.452024823933491 4.51751615117553 4.872123909913191 -0.5791211895853058 -0.8098424741974054 0.8690025294973293
Ni 4.916645954859424 4.5188180446616215 2.6395284688396736 0.46927106412968206 0.41170843522386513 -0.23094522769744744
Ni 7.190918261156447 6.170514036797312 2.582246059544347 -0.9427129718076023 -0.5344703836451505 -0.03066169074991493
Ni 5.110275488134572 4.547251760034939 11.437903658200261 0.30692209744439397 0.26395973495025504 0.3973837910710769
Ni 5.749197798287942 7.847759688597546 12.446178574913976 -0.7394893783951393 0.788217696838778 -0.02929360675779471
Ni 1.8009616966868733 6.393960547274749 0.6635470829871707 1.126503396196118 0.644463976657174 -0.3984009194816816
Ni 2.660780975907418 1.617394715147974 0.29796002251680437 0.2875030694878339 -0.37866101785059303 0.5212919372816635
Ni 0.5995120053254431 0.13378582936447614 4.706018574756494 -0.40593990817120407 -0.41780812036369985 0.1648316238978258
Ni 8.530385839804849 2.382727266430032 1.6633018301085762 1.0608927001748438 0.11114004791164085 -0.6691180277604283
Ni 6.529601574856906 0.8123318102226591 4.869582505337217 1.8334544356439197 -0.17264880594939944 -0.38591872785427084
Ni 0.8091213770496655 7.541778555658101 2.7692178541864547 -0.053379958283037106 -0.6602482360746241 -0.7549219109001257
Ni 7.62667286006365 3.890500741863706 3.890140912969633 -1.6001671900768573 0.08791707282795827 -0.683209729966804
Ni 7.476141425734323 3.5010718528365903 12.872245820554882 0.8717381832609373 0.2939565384226615 -1.1533634538117556
Ni 7.640894238213802 8.740741088005477 6.967803552699421 1.6186035424051735 0.3143016777379168 -0.17843481650355722
Ni 7.028470885058587 0.753450060943377 0.3520021635800811 0.36134360961806805 -0.31432893143142643 -0.2981638916357897
Ni 1.8629010874730731 6.5322776892449825 9.276934961179242 0.09494544042964939 -1.0683548128798441 -0.29867065606887916
Ni -0.07020912670097666 4.803625326598107 1.314145750343923 0.2969125357271919 -0.5490192279936029 0.9608099385186292
Ni 6.4195192478662815 2.053113150347231 7.008453368617231 -0.35129599557407887 0.006732433627827115 -0.30338631637699365
Ni 3.298211533107974 4.225539414138554 0.3721742798729097 -0.6540714178399509 -0.2742950554379921 0.6202531837389254
Ni 5.857996313646448 5.782350877548341 4.647570789972576 0.07514177544016092 -0.22866028831801266 0.5253128855155985
Ni 5.246793485634443 2.88093658896168 9.496617733752098 1.0410255289372716 -0.5785552897795068 -0.9390941441080923
P 0.31623625642051223 5.4989087755868535 12.560889856521815 0.08113604535038285 -0.7344369035728964 -1.8805950978854642
P 3.939502566131871 6.102345447317243 12.822347136329633 0.5804280813221875 0.6177155049187362 -0.1517069135904097
P 2.2652585020912355 8.53966183089325 1.2931382523975192 0.9071481873291151 -0.07101001265997449 1.2382743928235385
P 6.25188237967803 7.686605165058792 5.6928312348963725 -0.34529144125121175 0.25899493474581203 0.10012518485837595
P 4.731695711491553 0.9253840817284297 12.532744546719375 0.22313498762440928 0.5804419652792584 0.1759914971693872
P 4.295651802920773 6.185675671354085 8.220228702690225 -1.3694536187742417 -0.2287083679471287 -0.20414507678546776
P 4.653328956370435 1.063954369654292 3.7871267826972472 -0.16983576198063652 0.7702600839190928 -0.3097225430076666
P -0.05603566546385431 5.599471006460434 3.4600377975218444 2.2651105176343056 0.5000731371122032 1.011158309064194
Ni 1.3190260427313687 1.0808247394115609 2.5456447707312027 0.03386142863413523 0.37166453192810184 -0.10589216924914022
Ni 1.6389121213764304 6.4515874158882704 4.79954425215629 1.2406058691701924 0.23040581025420964 -0.26709133860070133
Ni 6.153996263192526 5.708151989768113 9.185750883869014 0.2785052368645978 0.3271605359784559 0.903032879609161
Ni 8.761010846309762 2.440833304173851 9.950803166414483 0.07345564598698962 -1.4315534734287796 1.206253874052884
Ni 2.3104631370249678 5.15771323203403 7.083308627696697 1.0324889522211702 0.756608040353297 -0.26921481270160735
Ni 0.6927809203988152 8.847333617179217 9.012658720336958 -0.03398381314461244 0.9137986027660973 0.2648508793059568
Ni 1.646099658330894 1.0357014728207095 11.241800527301539 -0.6200541803542418 0.9697026130225688 -0.18302603541866544
Ni 4.166194769397551 6.968095574641094 1.8452324038628745 -0.5866205832861445 -0.8425080827512265 -2.2191114251963717
Ni 5.590538570597529 8.079433442632924 8.021704411544452 -0.5795459358275502 -0.6429125730096541 0.340733132456568
Ni 5.246612667094708 3.0939046650614785 4.727560391487815 0.5069001873363658 -0.867514632097893 0.1596243686652735
Ni 0.7120860117936147 7.295657400297903 6.903534315028738 0.04399954550940164 1.0295247273865236 0.00600969652918965
Ni 5.2111722333066615 4.257833605335213 7.37194474221207 -0.17487126752201496 0.6233282231198233 -0.6169544583829956
Ni 8.348491429758496 7.08553721619893 9.365762972916723 -0.6290985499446973 -0.8830739199887307 -0.2828012931367904
Ni 4.6135307957747775 0.5551011637811474 10.201939323974228 0.21032626589551517 -1.7969990210303635 0.5736825350682379
Ni 8.210924684728164 7.152973490593071 4.839809828677162 -0.2837351178049694 0.3429285974459901 -0.15073812191923716
Ni 7.346069609176001 6.134006773624829 7.024477507608541 -0.3958393294020925 -0.5018657102362518 0.04134513860569009
Ni 2.325977367734225 5.083324484787081 2.7147544059255955 0.1839467474607219 0.7564668867897424 -0.9107958113840315
Ni 2.3347922715463025 5.214806685955334 11.51102486748367 0.9559227856296568 0.421207632963552 -0.20387125429879083
Ni 0.891260006909654 3.528285043066697 3.6987218863427445 0.17181036920850412 -1.0217728513552469 0.43140231410836666
Ni 3.5395409971651963 2.562442813072577 2.607294851853826 0.2143716396094824 0.18061614042559218 -0.03182948580577099
Ni 1.2407316150261447 3.281928823604844 8.014757363247837 -0.7957425444609135 -0.13544802852938606 0.24782529128223774
Ni 3.554178257956739 2.569585145392107 6.86734438839349 -0.12511656469639099 0.6805087860958732 -0.18957720627362187
Ni 4.064674200263375 6.876529066119327 6.1307014107184745 0.0035393806118261626 -0.680306697387396 -0.5762135290202076
Ni 0.9121933692547667 7.351575533710929 11.441463071154944 -0.44361968211016506 -0.3424264609985909 -0.1296152238976929
P 0.2883766399108532 5.489515252447624 7.9330346160292375 -0.35578617013494857 -0.30296696945138796 1.6436088062002596
P 8.64272839854216 1.5663677232347772 7.932280602718542 -1.1493928991997817 -0.09791814990472814 0.39730820063813516
P 1.9285201355428785 3.195786871275124 10.173502896322816 0.21909089946202268 0.012146148444230695 0.7208424527179134
P 3.7796951407141415 6.330764467637392 3.902129182154059 0.3065251191162915 0.39373950945027025 -0.9095030607145369
P 7.032340401808914 3.969997612858167 10.449317168185583 -0.017847312594066037 0.284597980025897 0.0842365386525775
P 6.392975086233195 7.926705063045817 10.176784752819003 0.16117242987868372 -0.6683970904340036 0.36620762257858863
P 2.4238906070006885 8.369448298513776 5.754414413159294 -0.626874802820501 0.7136672751257128 -0.03372438883563869
P 6.832138114614401 3.8774546842218305 1.6914995772875396 -0.48805528671572074 0.7877790666394626 -0.030357786356250943
Ni 5.202140347246902 2.969185077279312 0.5367101101047078 0.26510001920228543 -1.1108073256170996 -0.4550101833352938
Ni 1.3472698986379648 0.9457261674486092 6.950602285014438 0.9681483811615713 -0.06470283949502405 -0.8085690068016202
Ni 6.930883119163645 0.7961810982535353 9.075724610625706 -0.1646886705620583 0.19585763996569494 0.6113142293780827
Ni 2.692623120754739 1.4716640130486085 8.983865176069568 0.018035260235156034 0.12133678593898457 0.3874392782638553
Ni 6.469759679131632 1.858904997744931 2.568219061324409 -1.2577335299894146 0.4482019021642088 0.9269881048731776
Ni 4.033618616063902 6.7782451488464055 10.671064888482212 0.8326373606047338 0.43538572423614696 -0.6199323100643969
Ni 8.345715865173567 6.993771807283454 13.583893347389639 -1.2135509219349294 1.3278050899955196 0.9321560222273624
Ni 7.707037660048839 3.7515055303694664 8.242922333519656 -0.040367348073453053 0.9405136501634384 -0.5103423802486953
Ni 2.9966062088301135 8.405051468987583 12.416075000326208 1.3575828354785844 -0.6923759698471044 0.5523914868999454
Ni 0.2757139175732161 4.680686801432329 10.47846782906895 -1.3693402331248288 1.1885731689436692 -0.9079747969954686
Ni 8.69468660593499 2.5091284666317337 5.930033515784145 -0.40989220795073283 -0.525079943569186 -0.3997445779937696
Ni 3.766025259110181 2.5587812376429446 11.42025124825864 -0.7842854516639073 0.42869365692795197 0.16587574889162401
Ni 1.2072621033212096 3.346734188245842 12.382174236404005 -0.8345659450860143 -0.5732593314878901 0.7923245199182999
Ni 2.9756402991478486 8.23124868859437 7.93262415794404 0.8620893473172637 -0.040997011237651974 -0.023261027410469617
Ni 5.431535787681619 8.105778703872302 3.3895493061769773 1.1237348323120453 -0.3804728742483512 1.7749199297431366
Ni 2.9710836719465283 8.504420297498912 3.4334674172004953 0.3369870351505745 -0.3158548811576496 0.624903023806111
Ni 3.602049966351561 4.460928989165484 9.376878792646929 -0.8180720611960492 0.5103380093733211 -0.12838906480007567
Ni 7.234350874400775 6.186850991862363 11.516198989998184 0.7596357714360271 -0.8001185620414221 -1.1248864294179852
Ni 0.6316362270947504 -0.11824176359616304 0.0692987053534113 -1.023469008110747 0.8991628551307934 -0.007523562070554785
Ni 4.821833753549414 0.4888022380019385 1.447495807027638 -0.9803274397262667 -0.577311904290709 -0.09091292223148859
Ni 6.103755831927176 5.581768871420384 0.28414548608105583 -0.8504378791212645 0.0004813105117927195 1.2616428923461498
Ni 8.143669228873756 8.996988081590832 11.177769066010606 -0.19253294646783617 -0.6300560287619601 -0.10099730305068412
Ni 0.09970515099523686 4.853205770193424 5.754321291611331 -0.6434877287868337 0.44216983703751594 0.06551736497651943
Ni 7.915611845633078 8.837171615246115 2.663756344978756 -0.16928040369779876 0.24913578256354513 -0.0008464071606953166
P 8.334188683265465 1.743398114562259 3.838865295564301 0.36615131541935647 -1.0892280567844272 -0.6279441246252798
P 1.6689279989724288 3.191221203146817 1.6737151698119108 0.10332517985291237 -0.3737360697451499 -1.4989634274423218
P 4.6875759877962295 1.1479445813611662 8.06497428810302 0.4465150013800891 -0.09976214509200237 0.07069942339809114
P 8.75932019296324 1.6797319067215908 12.303336448986876 -0.7485725716433301 0.0578117688021456 0.719095902340452
P 6.395162990563986 7.74832757359731 1.413739697937223 -0.2223631424553912 0.9489494396356174 -1.1903099491291176
P 1.7242223084233697 3.33362484411506 5.739170506166942 1.2591715479875216 -0.4318430011902111 0.7090662860185917
P 6.902087766710858 4.079700220915348 5.942207123971799 -0.5075612179591323 0.06699189263951688 0.8846176103267669
P 2.539713922627897 8.39091145918031 10.206504088009837 -0.20625672381183188 0.45332611076465157 -0.4063312300723519
