# total energy = -340870.7862410528 ev
CRYSTAL
PRIMVEC
9.23691651050662 0.00000000000000 0.00000000000000
0.00000000000000 9.23691651050662 0.00000000000000
0.00000000000000 0.00000000000000 13.51916099495439
PRIMCOORD
 96 1
Ni 8.77921779644919 4.927710071818387 6.341378535109384 -0.005644856990603182 0.3728600948980998 -0.49026772098600724
Ni 6.459523312183676 5.578460057328017 10.695197154007154 0.2040211496130938 0.10817608018731048 -1.2587203193827161
Ni 1.3104597797649737 7.0364795739103005 4.228063546539361 0.16224843655168186 -0.36219361632318914 1.7102227466750677
Ni 4.225224118489431 3.2551354649830526 8.486571968981686 -1.3349769251536103 -2.0217059811275826 0.11377594287259114
Ni 2.2692147370538343 2.6833980609279 2.202109464314925 -2.5406746695927085 1.2880396371721237 -0.8231597601316017
Ni 2.9196137197466214 8.308698520471916 3.1371883579161404 -0.37578781006785605 1.0852875840794407 -0.30855500506212663
Ni 4.1363372735822015 8.673547474747155 5.09576375468118 0.13456305482127148 0.8120883328087886 -0.3665364666729171
Ni 0.6458719700471431 0.09694143586213912 1.258017187853845 -1.1094999196595858 0.5226281395945838 1.4618037876728889
Ni 4.196367992178489 8.924662279449214 11.636468476250768 0.4173172967702103 1.2789361322089587 0.7737112756924869
Ni 7.495683627502524 2.55876435020014 5.777818572995037 0.7906697579236963 -0.3509139296443118 -0.20961715564363254
Ni 7.5517147613700555 8.730890250719728 8.681369295413 1.2943905190908158 0.688766398118975 0.322134029298142
Ni 1.0177141936021559 2.3494465914510276 5.840601892628668 -0.41973079130770946 -0.5930542547266302 -0.11923465199431722
Ni 7.722329841104174 0.8419402961520771 3.6282182063881163 -0.5006480357790668 -1.65489826307115 -0.015880932896314585
Ni 5.150873968000311 3.6028407027304086 10.72577781257874 0.5672480922968037 -1.1235646252827682 -0.3240998947752612
Ni 7.054916458710761 2.9038555406536433 3.411763082466 -2.440635359579919 1.472179474480258 -0.046199638484513986
Ni 4.060123477746231 4.626882183951961 12.456189370405097 -1.6210255215831049 -0.8358229574215669 0.6604708936083916
Ni 1.0726276606055305 5.950449147851129 12.938066358582095 0.12329673787883283 0.0681756285349729 0.3614351408906098
Ni 3.447217138041955 1.3401564654530898 6.971087749132557 -0.11718805387793367 -0.23783732683159042 -0.806776690787888
Ni 6.331601259277076 9.01837079462991 6.144336638033524 1.1167913111146766 0.18907455560559047 -0.16817997154476844
Ni 0.7872023305571236 1.1396876724548997 3.578319461207472 -0.26360955069968794 0.28325586417570575 -0.6875669784942353
Ni 3.8325166248563813 2.8582528852128255 0.5692027942409008 0.6699106988650527 -0.08317133061285677 -1.8348988813999303
Ni 4.5379861021284995 7.379861934860756 1.413698945114565 -1.2181226004660117 0.9907033836439519 -0.640389292367168
Ni 6.1736499916979835 4.437137450699931 6.381449201418441 -0.11565516217317502 1.135936773694876 0.6138519081982718
Ni 2.4968400637761494 8.50664563533858 0.24731566105555178 1.4401268169200876 0.5859261283222812 -1.8455057103814991
P 7.63993654830853 6.196354331797949 12.489581746277915 -0.2763156854124467 1.6084302014165976 -0.46863780142105743
P 4.183094543552106 5.657038503719558 10.51859655255425 0.06226980457349921 0.3817334861283297 -0.44705596148522364
P 0.14556456291104813 4.448046248770743 10.16347499476366 2.812465213441292 0.6162574323159709 -0.9958214215968075
P 4.893228663521735 9.162226528037909 8.088635457069309 -0.02119900267511833 -0.6834028198142166 -0.18784659673576035
P 2.9469549917954003 0.8146719957415367 1.8885863587782816 0.5535086312235242 -1.8741447142744305 -1.5148073364531138
P 4.749862486674068 1.9696984912924504 12.352578881022952 0.2565503298600614 -0.36380724066721215 -0.960903783784016
P 5.418855381743271 1.069699558159766 4.4166148702141275 0.7702276880192606 1.2641710580846421 0.4097834502870104
P 2.1021651069855367 -0.030264756036426754 5.557834947072031 -1.7088996569882697 0.9319480199816144 -0.5294027393142561
Ni 4.74510547481423 7.242915414794813 6.706706885337099 1.1442177827567455 0.5016667068515683 1.2051236171031825
Ni 4.871281750552851 0.3642504021033603 0.5398691193607298 -1.2215041153437352 0.1282103731303663 0.0799116860249785
Ni 0.5107811464523484 2.0631206620699327 9.952373587490015 1.7337169731422657 -0.29734370972733953 1.8567000364354216
Ni 6.843132443327519 8.63049420818656 13.150303906552363 0.4711505405405821 0.2890264481108958 0.9600414357837208
Ni 8.25625131010267 5.5438585691203395 8.602363179799887 -1.8515891975714176 -0.779506027997393 0.6942742153110817
Ni 5.162891196019047 1.253126240708633 9.943910724837622 0.7302717164516133 -0.3767943969554995 0.4921693088840944
Ni 7.569283376044642 1.7872693956967147 9.332304019247285 -1.2232334393300157 -1.3568770676608117 -0.034176645881708885
Ni 8.63254480359022 2.6762671615962588 1.7125806147307623 1.129874626661196 -0.7608182217799025 0.9217638803597609
Ni 2.6085790394430663 7.159690799538226 11.497599753916802 -0.19243575876833957 -0.3455063854754953 -0.7002101211795424
Ni 0.1671124410986802 8.751553232332268 12.482037956790672 -0.4403057872455836 -0.19322380188727367 -0.4946169990936385
Ni 4.356268249082682 7.6070993111012974 9.592358311479346 -0.5734156545600964 -0.1811488730006106 0.6622074166835241
Ni 7.842991677851875 3.363770836795784 10.799456998600458 -2.2263691352000494 0.5193651525725959 1.7489384180777103
Ni 9.08406374287684 6.4586273313091045 10.827360798847808 0.43457197008559995 1.0421658131893021 -0.1931988621866092
Ni 5.907830016353472 1.811405457812748 7.639947632608009 -0.01655250504204246 0.43186896933214014 -1.0168856984662744
Ni 7.672404308866454 5.208540036041028 4.227049333137011 1.4489084197674595 -0.39878529940429386 -0.20491177974816324
Ni 1.9661607523753282 4.3293795859293045 4.588294966389876 -0.636588173453523 -0.20516169097544024 1.3136619657259183
Ni 6.36814249989362 6.175645165604246 1.9236820220044084 1.138216570867988 -0.5725435363677882 0.14876942822864056
Ni 2.5429138019448345 4.348887953012758 9.820413154806483 -0.48408936008943726 0.07286249248768097 0.01814581767109133
Ni 7.052948995553198 7.902292680065781 10.957928304563453 -0.06060115862182466 0.7408744316681241 -0.4548032095308103
Ni 2.9418100294537886 1.620219765628417 4.121937844867053 2.0047320722774056 -0.8038723726568995 1.6193386207989855
Ni 3.0323040977855062 0.4182272458007396 9.337764884124054 -1.2916564079891046 0.06220398433257029 0.6428866048677251
Ni 8.986272510721292 7.3349889958023216 7.362723760482612 -0.28909432523435374 0.4861141038289499 -2.3340736750675806
Ni 0.9622188008761213 4.577630946599228 2.5421028006996034 -1.4923883453279652 1.4635122857235634 -0.2590864660183538
Ni 4.110122905313812 3.379704517297184 5.565324238753501 0.048546798560451875 -0.29026263451084205 0.07000985353023427
P 7.953391300665052 0.8382483007338688 11.361313673361497 -0.16072222971514255 -0.22148253962265083 -0.13299956698889354
P 8.021356530305225 1.0451847824781924 7.239253901200173 0.47815782509635074 0.11086493987338326 -0.5313297811336398
P 3.595488117409183 3.857086822035352 3.2935915183346336 0.44620312656662514 0.2136051937571031 2.2260672876889145
P 7.777686680086718 0.6470764639238866 1.4544586853745802 -0.04703627545319641 -1.3410192746929486 -0.3853718542118653
P 1.9558154061947095 6.315427418953626 6.426576155673274 -0.8145555634023585 -0.47063169192263465 0.40230385408051356
P 7.084576196733947 6.587740946409721 5.911901649028844 0.0038895648623933016 -0.1505046657521924 1.3775991306995115
P 6.313469192712295 3.979309697626378 1.597356550569249 0.15710803000132298 1.117854205161552 0.6640154164265403
P 8.979963696934362 6.554173992820107 2.9162588717709066 -0.5058491203640321 -0.40161197021981154 -1.2551169183021738
Ni 6.629648835357461 4.39001994099695 12.907337909350787 -2.530404398014952 -0.9780648689443349 -0.8553646269989205
Ni 1.6796685585020452 4.2159225438431065 7.221583680447026 0.9453401250178043 -0.20786649150111297 -0.4534646932250448
Ni 0.8719454948423652 0.5673997481922787 8.025649848970183 -1.6761494591404424 -0.2686810516853244 -1.0533938206946374
Ni 6.171303814974878 7.098283780423266 8.382474694114077 1.2290814134703607 -1.9247710210717304 0.1708911998283444
Ni 2.6318653052656917 8.24298709839252 7.548436579799072 0.07758560899496315 -1.7259488991610727 -1.0733268121731387
Ni 8.908599282120557 3.304894732728583 8.144253700781238 -0.0795393902872243 -0.46944641336528187 -0.9705135389596381
Ni 4.8551540948105645 2.1376902868164835 2.466300047635988 0.2138155099956963 -0.6878819386314927 1.4029743762395064
Ni 8.546493691966429 2.512736796612618 12.916395629408568 -0.10420681112691732 -1.143540811294379 -1.1674638977688796
Ni 2.9429646439828754 2.1679596613110266 10.84793695344776 0.576836250205871 0.024292553998777517 1.218696984912243
Ni 3.9561989332121743 5.0928199494778195 1.5928544775974334 0.5227482101122158 -0.45000038882552823 -0.13480473851843233
Ni 8.589824066014003 6.974222758501933 0.7104075326901166 -0.207946452809429 2.0846928663727646 1.1214090123923461
Ni 5.854024979298021 8.72808222818499 2.9731065490334077 -2.0999405365604544 1.1348419979688005 -1.527424510996492
Ni 1.3652531668573233 6.137949310458615 8.645435843884568 1.4416337404829174 -1.852570330537764 -0.04976987233427558
Ni 7.320311535908568 7.550061353364402 3.914784295591261 1.7817215260460026 -0.41143641250940105 1.4529532792607944
Ni 1.3678672141511763 3.7054628420756557 11.95712987065204 0.04754921053387295 0.5362323606415796 -1.4845364533837142
Ni 1.7380735798413787 1.7395699602710752 13.268095833426566 0.2908059086088218 -0.8523824044421449 0.33869733297346183
Ni 1.6358948124753012 7.006080882588501 1.7050497569262457 -0.8185981089028483 -1.5120698829172927 0.3735398945739438
Ni 6.4432386288654335 2.1372930994184776 0.5865100041861023 -0.2884888304398709 -0.17579377933628434 -0.9845887861057818
Ni 5.14552579350158 6.6497760758285045 12.479902381757672 0.8249703309777792 1.2572437348371894 0.19137620715557363
Ni 9.067437293657989 9.238763615942023 5.372040842892725 0.1927448053683261 -0.5924371899679216 1.5611769248565888
Ni 3.8576502739255463 5.195469799571764 7.601675393889459 -0.05543349837795614 1.487423545123522 0.3926480761583044
Ni 8.515854840822577 4.682562315002649 0.472560634464701 -0.15392783250112846 0.6740630304705295 1.2158209489160288
Ni 5.530446566750466 4.777942712021463 3.7946933002667405 -1.959365471217148 0.4045723383997161 -0.2166000147193689
Ni 3.78460474035739 5.84579488693469 5.396524213059108 -0.4228225428591557 -0.9847145130503686 -2.296490574607484
P 3.1427683790123115 6.316304925995732 -0.009703380502446606 -0.2811881830133996 0.9521635756975407 0.09343337466049716
P 1.9417475827723139 0.25789654860010447 11.544457706273642 1.2717997782744934 -0.05496067250659567 -0.15848639840608836
P 1.987248632134572 2.3204426744803635 8.288975856931865 0.924179431779789 1.6038451531490765 0.5088953633895236
P 8.971576576995075 3.289626110195937 4.097590257369291 2.1042813300276535 -0.17096910425413137 0.693453004961367
P 1.1227656419166014 3.7489410067829527 0.5140630227898251 0.7796109290063735 -0.840322130843501 0.2648868747502148
P 0.7864042609946187 7.969694457815759 9.134828910800112 -0.7286766040503515 1.8094706711348125 1.647716143500414
P 4.515568106431747 6.968412738191568 3.6278533481969246 1.1694917268321858 -0.6796011866799392 -0.732828678545512
P 6.1947655822059255 3.9042967009006584 8.674244861922723 1.8649211387936335 0.4814604071070224 0.02621651049436775
