# total energy = -340890.98840373504 ev
CRYSTAL
PRIMVEC
9.06404908681508 0.00000000000000 0.00000000000000
0.00000000000000 9.06404908681508 0.00000000000000
0.00000000000000 0.00000000000000 13.26615204667724
PRIMCOORD
 96 1
Ni 6.832525347662056 1.8030024702757887 11.250691725805437 -0.5544892499692385 0.8139462119531337 -0.27759403790423803
Ni 4.91740965709026 0.09345034370214551 6.040635655336 -0.617809093073807 1.5373145164166944 -1.2119437253488095
Ni 2.8204510183756466 1.8062020795218467 4.890991580295471 0.9777069713842839 -0.7684518270657604 -1.6452990494184891
Ni 3.5301116594829 4.364239819476464 4.605795815075669 -0.3416191346059471 0.655993060342696 -0.25439445985932313
Ni 3.867248956670223 2.788083299911984 2.5462118754126006 -0.5802897559721103 0.8681116422519437 -0.8347333239018141
Ni 5.112141682705865 4.984673963648322 2.35293734885299 0.026562580979876835 -0.3424632277737973 0.39377936154927023
Ni 5.446659469773895 4.702618891357016 11.45647645259567 -1.1537210942614904 -1.0327812866506083 -0.06015790043681898
Ni 5.852284720114798 7.923211410515876 12.45109266162805 0.21140895743673271 0.9857959190400053 -0.5221889951746361
Ni 1.7764085509331995 6.365772151838391 0.3867112995937388 1.5075270007416166 0.7796047583587863 -1.5314061213520593
Ni 2.703923606286919 1.7981803962845626 0.10374166477289391 0.24777026967458618 -0.9041261126733396 1.6651178839166294
Ni 7.9156429297213755 8.983070643211498 6.728141041825294 -0.26599142066830317 0.45884138415592585 0.07723696740629278
Ni 8.709572033039962 2.638390533060293 1.1687121146182398 -0.0692979150648742 -0.3424100059383587 1.2491226483919518
Ni 6.945526844745921 0.7382975970619146 4.519817873250154 -0.3291909361449234 -0.27769276826563144 0.7749379490107363
Ni 1.0337185157958184 7.5027392481493544 2.3070895769311472 -0.7751912026721229 0.07617253069752043 0.2053918047083753
Ni 7.85748799226328 3.9985145121983 3.646095228640286 -1.1802422804804706 -0.010843884693039388 0.12359909961060005
Ni 7.735540278958851 4.047351607432748 12.286141474932693 0.3850774628998981 -1.296338386845806 0.8660105367485408
Ni 8.249218055708413 7.168366485863016 8.921194913698143 -0.6093591625342408 -0.13756404643112435 0.1077356502157822
Ni 7.246407946510492 0.9213515021318516 13.638797584218498 -2.489777625632525 -0.5886268150828959 -0.96711376924947
Ni 1.896951336664997 6.93523008524586 9.172641599408674 0.14662718507465716 -1.4237347487153094 -0.9925779749588456
Ni 9.114898169768626 5.077643912761117 1.2464517424388208 -0.25032286089311084 -0.6310261059847132 0.5478758584177791
Ni 6.63712258243113 2.023177281029311 6.761571973219729 -0.356312989172696 -0.3418160811081017 1.2457964122321963
Ni 3.549109905884422 4.203978371659041 0.11750904857979874 -0.029346571482917205 0.7997483231861968 0.5189116099749451
Ni 6.020903220977167 5.631538874283367 4.771184795330756 -0.15715636674075514 0.19188220025771469 -1.573766074375509
Ni 5.405309278894245 2.9238627517701934 8.841664229823678 0.8155405530234471 0.654645545175866 1.055948468795691
P 0.1786451517065302 5.679134194824586 12.240266510864283 1.7419591585464 -0.9798800677762027 0.5742432926677142
P 4.314378486721323 6.3407009927035585 12.427279592474385 -1.5802933339710654 -1.1711223204570733 0.3706877698371293
P 2.3896639684113525 8.780933289680796 1.1095320332345657 1.0500932955664948 -0.6495827859409781 -0.5692869771037035
P 6.392801145526054 7.645978412215795 5.644495932122574 0.15915771344150006 0.426428257932543 0.4677533419335751
P 5.057494532154922 0.9326453070060391 12.322092211909007 0.37948274242094 1.114862212412764 0.5047481739903694
P 3.95531525535209 6.288211085780267 7.931434315637755 0.12284242395023362 -0.5925806575243214 1.9942044332732043
P 4.801534856519142 1.2464426783899651 3.6216594593302367 0.4403507815509062 -1.5256666477651208 0.07222125935925627
P 0.2260845706074312 5.794011950021578 3.551654184398214 0.8340962045384473 -0.3989655337359 -0.13582803757662415
Ni 0.5949750437460013 8.982200494521352 4.255091449561152 1.3765694038834164 1.9608924493846358 0.395834444306086
Ni 1.9391898043325042 6.859735622326832 4.608873059662176 -0.40180583139817255 -0.5156625069100281 0.6946133438180554
Ni 5.916530698403916 5.596905143605783 9.18639901276184 0.1641176285499367 0.761812724482688 -1.1133303491492696
Ni 8.998787703927261 2.4130310863613174 9.88807241401746 -0.8539384360753551 0.014644746496368329 0.8576948177939939
Ni 2.3605683715845935 5.303846316003671 6.670141099602631 0.17432207988676432 0.5812618900773925 0.4215591027656998
Ni 0.5038251556434296 -0.010326670861285586 8.992845313497472 0.4760122395082576 1.225006986290671 -0.29635486345150897
Ni 1.519660303046975 1.011194354389433 11.34659298831816 -0.11709600838475961 1.4133719174237465 0.646913209528615
Ni 4.11730793650095 7.269820384704735 1.5149152734710223 0.3670437453266388 -0.6797703652679519 -1.4876359182446446
Ni 6.03655683335094 8.061102785757459 8.012622814047926 -1.4272257925877032 -0.4042692053370005 -0.09371542467729022
Ni 5.2137043501338525 2.791337293451176 5.102851939033671 -0.09900932608637787 -0.24313945577079418 -0.974769743132831
Ni 0.7681654508511784 7.820225687417546 6.7594627690510105 1.251663412535935 -0.8404221467564753 -0.019800579665694932
Ni 4.944982493709264 4.596361046621784 6.744604073761881 0.10356866332228616 0.6196096366176554 1.0301962995322516
Ni 0.948289855330957 7.498823579043697 11.336231874071224 1.4593558403530285 -0.7920913208615713 0.46462945159261276
Ni 4.828446017571681 0.3192557416048215 10.056525949190654 -0.27681962163205875 -0.03699997426311692 0.5979951436716734
Ni 8.299478206613205 7.356971214452177 4.709430524072066 -1.3149742567794385 -0.8408764606850745 0.36723606384310303
Ni 7.000309956029701 6.039294176105358 6.961863886403414 0.6802071956950543 0.0672996536879228 0.3665344097903881
Ni 2.6798404284773554 5.511938749632562 2.53180547616137 -1.9309555526158872 -1.6180566687627682 -0.9125243640393638
Ni 2.426862824915097 5.414418647994212 11.26964918398711 -0.43298251411129296 -0.4663526049313066 0.914977967786179
Ni 1.0739447646173628 3.5606303119800025 3.7588184594242815 0.7707552783879563 -0.02672558892030236 -0.11276832754368321
Ni 1.75547059807656 1.269646643460527 2.435108390159117 -0.9449775994720628 1.089895258054781 0.4723970113531735
Ni 1.4619313758850967 3.5242290917755583 8.102368680982751 -0.6889828850051553 0.5342850071072218 0.4729374572376758
Ni 3.632018760767403 2.7916726632588365 7.201371406961234 -0.548663644426397 0.4728783218649662 -0.9274313630581834
Ni 4.1618305444800905 6.898729160504003 5.91353321744734 -0.02822942715933848 0.6753668368836175 -0.35854444960637605
Ni 0.351905351987896 0.2050967654820851 0.3982552722163433 2.5209681923027163 -0.08722416052599172 0.3066773284234396
P 0.4949940528433325 5.867303849068674 7.796000204040947 -0.24081774961615296 -0.5788404251200935 0.721083365084126
P 8.726467420106964 1.7859983146225176 7.833861642516043 -1.2435677800119938 -0.7165973042883141 0.09310273079395578
P 1.8325150133499095 3.331971551497556 10.334371677193378 1.9512852653121748 0.7673544802365236 0.5795479927100794
P 4.016153151271469 6.495107064960206 3.76224104427219 0.4824801066207884 -1.4077638272083497 -0.20696300585023714
P 7.14142813266391 4.00240298915739 10.115798483872656 -0.3225582613197541 -1.16966013408925 -0.4199930438301605
P 6.39795858932494 7.792661914847398 10.200144896904149 0.6472389682991498 -0.25499609799906403 -0.5033572071801138
P 2.487510375808507 8.918534615358999 5.638273462583144 -0.3911378101613651 -1.7521934346798984 0.18907069895084858
P 6.946125071970396 4.149621270671479 1.396885948486907 0.5527038759340417 -0.7521361206248723 0.581552681844934
Ni 5.714619946094606 2.9208081673058266 -0.03268677298338285 -0.8186752419976868 -0.09280165461376921 0.594727014443363
Ni 1.591646979058851 1.3624715677916301 7.054939884887819 -0.13711693159137675 -0.5336954531523389 -0.9933606187611409
Ni 6.98910679164407 0.9447548762772385 9.044928244627142 0.8752569950474732 -0.17749687807032014 -0.4335407006076082
Ni 2.87152693367745 1.6371666324121172 9.244265713466325 -0.4519698538470732 0.7786555070716396 -0.08675981929506348
Ni 6.555564270827648 2.076908962645831 2.4944344027293677 -0.04756952224884711 0.5755170171738152 -0.4947869490125995
Ni 4.1122048769951975 6.924316970423611 10.235154785609243 0.5611620340037239 0.5470345934634063 -0.0037147298474258608
Ni 8.277996410825224 7.33621454257265 -0.06201531586573321 -0.6384249695519456 -0.2832499506384347 0.6720974221037264
Ni 7.9700816071486384 3.9501759396509146 8.016218522228979 -0.27486558322948146 -0.06303213666082047 -0.37201163085487543
Ni 3.3848330844239296 8.453095706619408 12.242137330548097 -0.4816159588482802 -0.1760308350477549 0.40313791994603476
Ni 0.28736569851585364 4.976371294896512 9.91001466348731 0.638001765971598 -0.2109531008462367 -0.18990347926478907
Ni 8.750287740499713 2.482361996058476 5.706806735981003 0.44376906320383575 0.6664718483868329 -0.5804607343323358
Ni 3.7381315807209443 2.405018467172889 11.40166071073601 0.5338067819192226 1.3875187038060686 -0.7247163338510229
Ni 1.1109532760951377 3.4535204466523344 12.7531493705292 0.164794085791671 0.814800589533629 -1.4613692712386315
Ni 3.1221569485860847 8.683458508286725 7.865991882899687 0.5195513004414729 -1.412381014265387 -0.4316895063314824
Ni 5.579393401216593 7.954708980289392 3.497076827023459 0.798451201641328 0.6708779478743285 0.11774572615361657
Ni 3.180166861262489 8.506220096962597 3.3754128184482126 -0.08953918181241353 1.668980709306145 0.4628561617422738
Ni 3.775040387661307 4.5236220545548855 9.500872562190398 -1.0735666960980865 -0.4975100043707174 -0.7474993931838094
Ni 7.530067355449255 5.960962665894501 11.01496572643021 -1.1710624137534154 2.530757924699629 0.2115557674272421
Ni 7.989714336970059 8.85216764963765 2.3153152012676848 0.8313389535082844 0.6577488666915381 1.555091123673825
Ni 4.708999981751421 0.550479627913428 1.237485585310774 0.09288007326018843 0.20471406191506034 0.25212057622348194
Ni 6.198631090939501 5.812520737784894 0.22627129001385837 0.010352546878917655 0.049144322935134724 0.4736910475742487
Ni 8.30644846018323 -0.2749107889832525 11.065893897735666 -2.2609473873955515 0.9028120218476064 -0.11898062700198217
Ni -0.013973137715928955 5.253767446075994 5.854233490618771 0.018752340906838673 -1.1553827982346294 -1.3112849808533094
Ni 7.389257356476138 6.219179289695346 2.5535084347414294 -0.42999694912040787 0.03919723902475185 0.015931840738908045
P 8.610211929483908 1.7684956362821838 3.5555145628058518 0.1949212441943546 0.0010125004249143853 -0.9792012965416232
P 1.7903853142686708 3.4394892990237294 1.6784733158572593 1.2721851866383702 -0.0015179793064231922 -1.4327490363987776
P 4.697751497121511 1.1231625499037496 7.916058969563852 1.7346708524151027 -0.32196716470297454 0.836366745740179
P 8.765288741355878 1.6157936052104043 12.205629154567156 -1.0897589895872328 1.373829122134118 0.5713898823793192
P 6.486260553277055 7.799568720075432 1.3858885380103005 -1.2526687138719974 0.05016865043459102 -1.1759565086209234
P 1.8392042814054075 3.3867999830256132 5.827197245692025 -0.0976481840727931 0.6528974521365078 0.7519890535240469
P 6.91402021092355 4.007678265591401 5.8927185356551375 0.9326162496932325 0.19172613429582464 -0.054726702118918655
P 2.4511907320437647 8.78033506245632 10.086308600920674 1.2725747087673052 -1.7854216006054089 -0.3123854345518104
