# total energy = -340893.09568609134 ev
CRYSTAL
PRIMVEC
9.06887485988114 0.00000000000000 0.00000000000000
0.00000000000000 9.06887485988114 0.00000000000000
0.00000000000000 0.00000000000000 13.27321505335857
PRIMCOORD
 96 1
Ni 6.03166338608631 2.0946561853737093 11.301758022330384 1.406642826230029 0.6906052510999268 0.47948605698947094
Ni 4.733889242729762 0.22189451165885174 6.049015771419138 -0.16571274095119848 1.0274914990065789 -0.04060414667460749
Ni 2.506673312185177 1.4164131654763668 4.992879080491573 1.5762543880150015 0.9416536773051524 -0.24657085004984633
Ni 3.2529601008460878 4.308577145238914 4.745121044357601 1.3276030012870426 0.5599425597743259 -0.20897746517710464
Ni 4.855956299581372 4.585468035268139 2.603461786996061 0.6861981231711666 1.2059566545274394 0.5840497372351748
Ni 7.391441427488509 6.29791648579704 2.5737031807291313 0.019000966582535018 -0.5748048215981391 0.12188777334644814
Ni 5.13722745621233 4.5153021497658425 11.501426535257293 -0.9430230468488533 -0.7156665649439288 0.2503154046939431
Ni 5.776755448940317 7.922142920794554 12.43587434141874 -0.525229838883489 0.21045533527421176 0.1388922783242447
Ni 1.6120378670622573 6.763630421198283 0.23622605474522618 1.7813456307638222 0.12488876495630105 1.3826402926678447
Ni 2.6460437824448757 1.661200238176119 0.35348932853485293 0.7823239570621623 -0.20499045550489858 0.866324982665166
Ni 0.7308325188555002 8.952448735196826 4.79327677035181 -0.8748456185416675 0.43241095787853917 -0.005090527149029943
Ni 8.675167883544674 2.413472484305237 1.5811456514263489 0.2928501927323602 0.32791875430071915 0.5548052385477605
Ni 6.926389519958748 0.6859887459936991 4.695134312510618 -0.4293112359072928 0.4844074055504884 0.5957785956363288
Ni 0.8677453240032534 7.655454515086136 2.7768496072000683 -0.3623566242636147 -0.16116394523825148 -1.8144084747560623
Ni 7.836369501500161 3.9105351547282132 3.8841810041182003 0.48547878423779617 -0.6366118276026068 -0.15228721157391192
Ni 7.487471744353419 3.7824554337835408 13.006437167688054 0.3644782985923078 0.0009255971380629221 -0.47036198320101574
Ni 8.131924136180249 8.747038717537913 6.723520601061337 -1.7338038764291173 2.0341889440859418 0.5941865685588605
Ni 7.133604243733076 0.8307833103620864 0.3792639780354444 -1.4759435695083807 0.18446919562309522 -0.8226190571367833
Ni 1.7100905430414262 6.4528854209738835 9.369682278880585 1.2048503088371378 0.556763390715396 -1.5088367206919757
Ni 0.14277764657910078 4.9773250530616915 1.4010142158081624 0.020835705798428632 -0.7560071735445045 0.24062363132747594
Ni 6.553840136937637 2.0368965208055143 7.02470337953653 -0.1762277815499094 -0.2587979882436576 -0.45551669065806716
Ni 3.439470583105391 4.338450019330237 0.4017683912284066 -0.13796590985523335 -0.1398754681731204 0.015633335661882755
Ni 6.067358477896707 5.605009095102591 4.700722553255935 -0.611938750335959 0.3894226272424713 -0.6875278977261836
Ni 5.3404700127577565 2.8485971044939635 9.025335283184672 0.6526789083677984 0.2577482068229045 0.3718817901452305
P 0.01087992927970853 5.626302813489484 12.549744949088888 -0.0016815014674809751 -1.6444775819584583 -0.926036796703502
P 3.9170375380686746 6.110970697540049 12.528216346840741 0.006119482634176558 0.703710421023317 1.1366965346790359
P 2.492027079137974 8.752090080886083 1.352063149480678 -0.941784803566378 -1.3666356897094722 -0.2387014746040986
P 6.464847267035345 7.769676995104415 5.734333972578149 -0.5239291177941945 -0.1526260829705694 0.09387329041139317
P 4.762066237205093 1.0903145599585213 12.587255629664641 -0.9055983263434919 -1.1222901294457188 0.8428212431162712
P 3.954201787621267 6.006778393218493 8.308913206627627 0.2703687238003924 0.3463669337035777 -0.323127760669979
P 4.680228709639794 1.0532409991554468 3.9130635570647834 0.33315352033709716 -0.12363175262074838 0.32323291878927557
P 0.3130639115495827 5.550867911640176 3.5230166867116153 0.2559420068521011 0.794713846086083 0.602175243191292
Ni 1.6169078529113892 1.1026028855182486 2.7013249234887367 -0.7982485987122189 0.9560881075629277 -0.4443817570871701
Ni 1.8672813525814675 6.672089197434527 4.660836734330299 0.992073524518601 -0.9127305665128991 1.4734048622469271
Ni 5.937492188586524 5.49017900046254 9.321738764560251 -0.17970288458270342 0.31172954613536635 -0.9441934130078706
Ni 8.679656976645829 2.3476324521549627 10.177914924787457 0.18121417902090725 0.45352562836996735 -0.07788051452756264
Ni 2.4970149603614797 5.202033636618095 6.8385066803505605 0.002286996261963803 0.9960448504615232 1.4268686663586008
Ni 0.5068313075453387 -0.14707720019376264 8.953938751351412 0.0031323749813946056 -0.3902404951580763 1.2799411764347053
Ni 1.4033902610455413 1.1714991285272889 11.56866861547512 0.7432308477154426 0.0065539990684338745 -1.686121739861806
Ni 4.014809078924336 7.061542963365847 1.5458115008390352 0.21647120245098847 0.03216964275400911 -0.7057151101581717
Ni 5.7180163458773245 7.693081277261273 7.9621103595947575 -0.8640441570507893 1.3667238785479041 1.1532888918200783
Ni 5.324200451094176 2.9535693320613774 4.80984197733882 -0.2797375666098021 -0.20581038030303264 -0.021873917254955876
Ni 0.7161590791834417 7.413778066494862 6.9046731919991 2.3711808643325227 -1.0217556249640662 0.33681065747371025
Ni 4.993766923349357 4.341506230189003 6.907022937499118 0.44235727045797363 1.5441472230678117 0.28368883794806626
Ni 7.965954655686838 7.056092569519797 8.762857556116387 0.5962277673586054 0.5787118699620291 0.8418897324409371
Ni 4.503294959329621 0.1766897975739679 10.407381947031084 0.5431627692128258 -0.24869818080549427 0.32433077983914466
Ni 8.356514824362279 7.051558132043883 4.927176895240566 -0.5476169483294375 -0.51471068451972 -0.8634060092461582
Ni 6.862326987299032 5.98806930419287 7.011616086093546 1.166146721619353 -1.2484086530440628 -1.302038265444061
Ni 2.4520242717254592 5.3713495319687325 2.594369332969358 -0.896366780442895 0.0820349030155684 -0.4836072782466961
Ni 2.1337793119158968 5.206450178719636 11.500948605547332 -0.013866473569447087 0.06001160466694181 -0.12630338591564053
Ni 1.3468911700956505 3.378346365930067 3.781273759377318 -1.4608990164704323 -0.27450202924247563 0.1653648706934765
Ni 3.825940689177558 2.6049527100381416 2.621194158189371 -1.7705446834935765 -0.3256512984227811 0.37729164830689216
Ni 1.0739633784203746 3.298930227976906 8.167474125991417 0.1554622668677839 0.21038951503328285 0.6915285342451445
Ni 3.6987315802282614 2.5529155055645503 7.087937017025649 0.1114490945116274 -1.5565659084471388 0.36981693719640185
Ni 4.3577667229776305 6.972450335839084 5.944980358634248 -1.0170919009398098 -1.1157569563128913 0.017982552620349677
Ni 0.677030511316283 7.372641649713368 11.414912188879336 -0.44514871716018173 0.15170562803882906 -0.5674393823720034
P 0.18944063575623865 5.595668153902207 7.753813719038677 0.2741490167784311 -0.5653835282842392 2.6677768972605604
P 8.49509630250117 1.4600707294944688 7.995957214689971 0.03794871132963142 1.1560721109921703 0.20836502840408627
P 1.8245850893082596 3.2217541021368468 10.576257095059063 -1.9696863935271818 0.17193506771182648 -2.0158086418065415
P 4.035812593312771 6.4189496909041415 3.7333438483694095 0.04014006255399538 -1.0994013977730033 0.18122652031608147
P 6.98646174763966 3.894936689811068 10.379243041830552 0.139570792448508 0.11512397226005333 -0.23591182767410337
P 6.613984915618163 7.736829530028893 10.302125863677679 -0.9127326233954282 0.14485286678305376 0.2387472402403695
P 2.4662170610250707 8.403527872112557 6.028787645839086 1.0017781534008747 0.4554472708727124 0.07759743606950506
P 6.915416181267036 4.083877630557462 1.9340137620270015 -0.41251704716808957 0.1720510244644005 -1.2465721140559565
Ni 5.388027193005144 2.7925605261666155 0.609192606014121 -0.960849790617629 0.5900530060064613 -1.9277612140483058
Ni 1.5707926237813417 1.0511098135417671 7.17719923251401 -0.3450587564151154 -0.14246328350495466 -0.2889333741764572
Ni 6.751786470511195 0.8810792908449268 9.433592454441111 0.9471069871102398 -1.4468757056081467 -1.058019492392107
Ni 2.808086440084146 1.4829333632480282 9.286830851095672 -0.3525026142876704 0.5719804647754665 0.18614401222235685
Ni 6.174869990450632 2.0126282114344214 2.4974348492717495 2.16302615216703 -0.06625630002507299 2.1894390949429194
Ni 4.159194637032396 6.739597902575938 10.496060126972548 -0.1510667089032495 0.5145065389287139 -0.38987874094328334
Ni 8.314426175710844 7.253231773222644 0.4119726893242039 -0.9158081769969583 0.5673547930779971 -0.09317960677847822
Ni 7.77788432693582 3.9545282671195334 8.15400140536298 -0.4993899950022496 -0.43305527633075747 -0.12486073993184302
Ni 3.0741944377956463 8.437953321429697 12.356991453312746 0.5597733811863134 -0.282244649302372 0.5778047847667275
Ni 9.058073921760773 5.096589827553188 10.030409673695969 -0.7397043226194229 -1.328709089867028 0.7260139696165239
Ni 8.756461278612864 2.2960486914289624 5.840227597840669 0.28597814820287526 0.48083485770788154 -0.014425688507026769
Ni 3.5046032430094223 2.6829813101236732 11.582991089686544 1.5728731302475945 -0.10909884911189599 0.4158412264453161
Ni 1.0388668323567987 3.370501789096736 12.776358903272671 0.02425758699578403 1.0906156811605734 0.34100772627419335
Ni 3.247972219622582 8.280671823140139 8.291471946320272 0.04674496946502272 -0.3287299373481048 -0.6165099146464093
Ni 5.715132443642643 7.952342274384143 3.5664330186559985 -0.6771311278728919 -0.08764170767938455 -0.08442114385955785
Ni 3.1199559808025725 8.51479389889654 3.6631153876299454 0.8435295820372054 -0.5146551486914362 0.03145410474422325
Ni 3.4850507486132805 4.087750040161892 9.340666413472213 -0.933895116405656 1.045175546549903 0.021227284809892475
Ni 7.025394427807859 5.855554903396754 11.569372360171382 1.5515134336248955 0.7667019342541892 0.15979431858423448
Ni 0.48214945747644244 0.22718620019324362 0.24078951262098622 0.5891484919143208 -0.6982020896105782 1.2603871655621777
Ni 4.567502593988567 0.41712834473431837 1.7634128070956914 0.3223811123119416 -0.4587902192030164 -1.3936968075923224
Ni 5.747961770968263 5.518328788313015 0.5680734200950358 0.5925261501373021 0.7008382416818446 -0.6409207393906059
Ni 8.156419167425138 9.067850168958843 11.290316729691156 -0.6394485257204536 0.2246977041258388 0.23106144156033753
Ni 0.31146144134559456 4.854677588213165 5.844567961392614 -0.5626152215104826 -0.9291545163968773 -1.5667415634285597
Ni 7.797554716706336 9.02179842195346 2.4996512823099764 1.2634223528440758 -0.16671135741904192 0.6060840913273949
P 8.694539000441779 1.551920295006587 3.73245509862413 0.4282244306010174 0.6441734419999486 -0.301953440585209
P 1.9127164160901278 3.367817402110995 1.6773364873779073 -0.19715090485582173 -0.5682791046644794 -0.6457896374471329
P 4.9575639745416575 0.851875699725049 8.236308700650785 -1.2157173334586289 0.053707773936101044 -0.256485538060397
P 8.60268943492966 1.8880037318463956 12.429357447878356 -1.165497260960812 -0.5111561343992422 0.3265943790623408
P 6.445439874638433 7.9253170270276945 1.3056812954270467 -1.592836974964031 -1.0534637547006243 0.04198765728569543
P 1.9451013685431071 3.2280569702283675 6.16015211329131 -0.8721994391680721 -0.8347150690693689 -1.09907486767152
P 6.93245659730152 3.9994101292561317 5.888171112161006 0.48638535521246556 -0.468816750201083 1.0999747537779703
P 2.1975969849519137 8.487659825040671 10.301979854790954 1.0374306124971615 0.27621515527884044 -0.4014682455530957
