# total energy = -340861.74949026975 ev
CRYSTAL
PRIMVEC
9.40215564119544 0.00000000000000 0.00000000000000

0.00000000000000 9.40215564119544 0.00000000000000

0.00000000000000 0.00000000000000 13.76100516534815

PRIMCOORD
 96 1
Ni 7.222256360720167 0.46227295981719724 11.346292809451723 -0.828367015364154 0.7698206823888291 -0.5201184857988526
Ni 8.538247862422207 7.589184882053223 11.979491315333652 -0.12071586452553403 1.7498796989450571 -1.9892067229482966
Ni 1.036314983596851 5.896279769855629 1.386022516879027 -0.4301301322641624 1.523181933670054 1.718254358730292
Ni 5.920546733253379 2.713791158585724 4.499394942704064 -0.9628259405073935 -2.269302444228466 -0.5313768323214914
Ni 1.0888166200218954 5.001147553550767 12.940161256692377 0.8117975410412471 -2.5088030176950924 0.0923681666207764
Ni 8.280647605478553 5.29375203549629 9.645666647140905 1.218654561710082 -0.5279099568188134 0.09916873448237759
Ni 3.5630972688849156 0.9030234454330032 0.13188215505136328 1.1715491235818467 2.301585729742204 0.6948195462915905
Ni 4.206514977601796 7.086667875962723 8.85260611159492 0.732738432824551 0.5688025812681172 -0.7833984210732637
Ni 1.490185237025606 9.35218306365424 8.147656936291352 0.05834527270811241 -0.2783694826176819 -0.6244260841696923
Ni 9.328856315808512 7.116792382249587 8.285308253969937 1.3449173241957741 0.19791426538440754 -0.45081285742449456
Ni 4.050881097275192 9.348967526466314 7.703080713594359 -0.7068975605020472 -0.17354894916616562 0.1829473596619301
Ni 7.63720169029511 8.504277874527563 7.403943613993369 -1.627785723125074 -0.6459765566469585 -2.660688108734579
Ni 5.720506472404661 3.1141255384822077 1.602895456755639 0.5582577158727353 -0.723528998411141 0.1293208325857257
Ni 3.9265093840533996 1.4420556029174754 2.35713637258964 0.8820063979561649 1.7811666819837968 0.4184020451939568
Ni 1.4646207761660615 5.349262361687813 10.499385189025746 -0.9039955006327465 0.6322378669046272 1.4003662491926978
Ni 2.8070699435020683 3.36281255199267 10.649971992269085 0.3067958562791749 -0.2539383461585111 -0.2510893067454902
Ni 4.141837549778035 3.85071860840471 12.746612244014836 -2.1225392477965768 -1.639468815889957 0.8341836220459311
Ni 0.47476842450360196 2.5417975276538947 7.389645756093734 -0.8857972324571648 -1.1724670074104258 -1.3634675763941357
Ni 4.580927614728966 2.315985958524186 7.607303775956286 0.26913613694487193 0.42688617140556806 0.7393813920623653
Ni 5.998819677959413 2.5484448516067073 12.843806086489808 0.5033381810167202 -1.2087517007740731 -0.4528298878545233
Ni 9.084014783905829 0.4444060436820769 6.194764359863513 1.0649928383861464 0.11875102748967935 -1.1107168227858224
Ni 3.2358364416917706 6.38231479731914 0.1383790445158521 1.0005121422042575 -0.5767244072183552 0.3936932295933671
Ni 7.934413228445554 3.4169125548561565 0.13968218327095797 -1.6426814092899837 2.8340141432566615 1.1043530853513237
Ni 2.4118503362085977 4.196473475506175 1.3952009010978896 1.6139619298681043 -0.9067185559908642 -0.23843099455153133
P 7.740606596706757 1.5159565453065955 3.5144505162231714 0.4810688280955587 0.4286291222386038 -0.2709647055131785
P 9.032810644942579 0.9469098867548477 12.160338956118895 1.2974853559660557 -1.0028816708776986 -1.8613205659265684
P 0.891514266860672 7.783123143969303 10.09161934540606 0.7705326208541892 -0.8168093924335417 0.7464539826384305
P 0.25636857457050233 4.715641699023027 7.6633801119101275 0.17055901329990625 0.6896768257483864 0.9711007789216759
P 8.624945138474379 4.706963509477841 1.919660657741535 -1.0677480325337805 0.6743985594330772 -0.740796527242337
P 3.481919058123126 7.427148133817332 6.550885103426048 -0.07546470599721841 0.6142771686611485 0.757288097139457
P 1.0821975025356434 3.4435770679115696 5.202430779359261 2.1219651204606618 1.5019538775292132 -0.18408841524490877
P 2.8006858799038223 0.0502244343580412 3.606181706340883 -0.49056108385671 -0.12418685379327 -0.0718762173150117
Ni 6.2594756354471475 0.898935388212801 8.725261436797625 0.2755767503638932 -1.1541787506241994 1.1396985547301535
Ni 7.3507180115932655 8.449557329399742 2.3156465407099054 0.9474479153894264 -0.6254167302177358 -0.3162122644970683
Ni 5.683913283119869 8.971104298263215 12.84972380317425 -1.4894472604217703 0.477982475860751 0.6838995569449771
Ni 5.963947083134827 7.746699193483876 10.841704508500115 0.657710557254435 -1.3713567493342254 -1.9221600658114442
Ni 2.460215024204734 3.6577487685072154 7.763573241996059 0.6830238392082429 2.0176971170785056 -0.11309974274117296
Ni 2.4137495716236868 4.999342339690879 3.7496811647530603 -0.19519095291597352 -0.7880073806001848 -0.7863845002847811
Ni 4.164214679916217 7.731392484296919 4.007823926070232 -0.49943987440357857 -0.8812337814561984 1.2750668790615396
Ni 3.788730197059739 5.778875053874337 11.75064567061756 0.03640476388127924 0.08705960992366941 -1.768334820326451
Ni 1.6353169096360975 8.444865653795139 5.33404121211609 0.7494387762983673 -0.3243747457032026 0.6089033059437449
Ni -0.04540206879170788 3.2415623544036 11.842693713376304 -0.2644788406785187 -0.49713873707422773 -0.841033812198545
Ni 8.109744624587071 5.216137241676673 11.804988249093467 -0.40834543228890324 -1.2819556357615727 1.0744845799266658
Ni 8.552539138812978 2.67709454559021 5.258066154219203 -2.189877210921603 0.366152343860621 -0.16758938914862104
Ni 6.819900517386831 3.771270394258645 8.60515548153537 -0.5406852542066107 -1.3977164702746767 -0.27595264564607314
Ni 1.9966417462790873 6.031492168392262 8.421679938282217 0.2837153203106275 0.5895115316806944 -1.7834297669863608
Ni 5.191287344636668 2.244868054169058 10.255017525761286 -0.3515309944030204 0.9246730835867559 0.6727507394170091
Ni 4.424983463270194 5.591208029690261 1.8809501030335847 0.7575102404525922 -1.4383190742873875 1.6967159704378845
Ni 1.073020998747885 1.430575571027257 4.445409646137924 -0.19686576951523513 -0.9458669440555517 -2.109796603418928
Ni 7.686751049886798 5.810691948154845 7.594781045018872 -2.1117758386324854 -0.6565144800638049 -3.484016533233561
Ni 7.100385620866761 9.209082256636119 4.616417931171232 1.5315704148440656 -0.24358091418358693 1.300223066612193
Ni 5.936013279084181 4.784145804143527 13.728873295310247 0.5832285268854601 1.2495911033879383 -0.3825053312973477
Ni 6.852046487110547 6.64707949676922 4.9303888115365115 0.7039773015314585 0.04203085181880503 -0.018862898342773965
Ni 8.749768155161144 6.307896736376406 -0.01042699047195097 -1.60461596987683 0.10164496393701206 2.001166209303018
Ni 0.03581281037661068 2.0292390194677745 0.04167975542124315 3.2778976205511743 -1.1125757303714323 1.2591946879159732
Ni 1.8830072946614145 1.9179174981080815 1.9078806970902207 -1.0771258742042547 -0.1319893805568243 -0.923985570601428
P 4.183056599578786 3.5900720530724963 3.0327188553412765 -1.3066107153060917 -0.12017876107514142 -0.002002118031693326
P 0.1876068503887474 7.995085338017692 2.120721992679752 0.07090819697478755 -0.08370303474661069 -0.6996822737005305
P 6.510588405081832 6.512628672829726 12.410114739238601 -0.0033992554895360813 -0.31009149631131105 1.5509354496342387
P 4.987984535822424 0.12135550173089771 10.667007757856215 -1.630241640864734 1.7963590734535193 -0.31504961164753487
P 3.604880448016881 5.038474110966136 9.388982160144922 -0.15131893412337166 -0.4688671438230441 0.8134831562737861
P 6.489085675407034 7.322671381676376 8.61398974686219 -1.478063444064861 -1.2604434727214098 1.4423014559739034
P 3.4083001803996127 8.459815081072328 13.131645556017672 -0.6635145655307219 -2.2109324889300055 -0.7431349455675267
P 2.1288642593602836 2.743690013140101 13.530934416220305 0.41743762439815846 0.11402893942366167 -1.0048004851669663
Ni 6.664858972858002 1.6193520495627227 6.602488833998908 0.5210767359470638 -0.6223308922035604 -0.7297492682892399
Ni 2.3934973286330807 1.141948200866796 6.176957617523723 0.9767446074710145 -0.43734516195536294 1.403133784635506
Ni 1.5655435135203641 7.115805155919961 12.75196583136806 -1.272099054682467 2.185072333333792 -1.819580762985621
Ni 0.14132003876258453 3.1455945530084657 2.9509783956793765 -0.1291141158915583 -0.00126138321092686 0.5382056823178667
Ni 2.9054823053324657 1.0602716758624335 11.622916447659488 1.433757423058634 0.41597106715496107 0.21939377541442218
Ni 5.433665511793047 8.273595988838368 5.93587788804469 -0.3368564231099811 0.13125893014870296 1.3948450622641526
Ni 2.67244047860769 5.586779614440226 5.937391635083449 -0.508608428276724 -0.36118908631807467 0.4772042029338298
Ni 3.2011894985996703 7.931733614122285 10.95889297490444 -0.5364632457054632 1.0175855527467765 -0.3013518024454681
Ni 7.847095410129045 9.458662474921006 0.12821061332070785 -0.05198102105298145 -0.06488255960599794 -0.5086971313357884
Ni 5.675432538840609 7.101335238574304 0.6068254596476418 0.6729687689650862 0.4600387468981368 0.35238305799067055
Ni 1.1906795729282227 0.5312923030602069 10.327372753782877 -1.5338059890428037 0.8194825683903306 0.8898608610035772
Ni 0.5395276510803889 3.0557475548570108 9.630487807269022 0.16203554920992738 0.3740471732276655 -0.2238016746741307
Ni 5.455873403131863 0.15027371146451324 3.0854508445765667 0.483121082638897 -0.5138537358360634 0.25634515582779077
Ni 8.347995245470063 8.814445582984904 9.55733433624376 0.07351966645570564 -0.23362123186771375 2.0925781826581122
Ni 8.996142238413626 5.351810345833799 5.251364297764373 -0.04188841270366979 -1.459256852881319 1.289870005512643
Ni 1.491031431022428 9.098061604253074 0.6056172826632904 -0.38061917001822837 -0.6342919212201785 0.2856973837376628
Ni 9.221982014009894 0.8846779595819024 1.9089544232506328 -1.296709911252612 -1.3094787808825061 2.5603502936447646
Ni 4.930697202237576 4.942750765614528 4.4859912297944025 -0.3262017716096124 1.2330635380465602 0.24558663175970602
Ni 3.5108400885033975 3.04417350141159 5.608985625347938 0.13693412615660933 1.5863976470965904 -1.6815852854440332
Ni 5.647479930478923 5.439494848215598 9.95905929494169 0.835943285049515 -0.3977265191224763 0.4200190119720895
Ni 2.8601357092583277 7.359565439937816 2.2087101846848545 -1.7151574649725234 1.0334158349108138 0.2908362476261249
Ni 7.104099472297256 4.414199190888473 3.703761037192187 2.240254892043206 1.2859794122089854 -1.4286368140026169
Ni 5.047368550088287 5.651569868130229 6.784726113370045 0.46578953333898493 -0.07967283054129505 0.5608912968408405
Ni 0.6329907182449297 6.815678949558242 3.9609814470528235 0.5736066875249798 0.5936270965109647 -1.6276692521518679
P 8.393426460943882 0.9373695195484557 8.139689549703498 0.5943205230335635 2.4478100229514874 0.0600663691642772
P 4.630871864852504 0.8953418843729636 5.648246206153822 0.09256459890229865 0.7945909473549734 0.2883723594666646
P 7.0173551854674825 3.36433570118695 10.883895741181659 0.4121964306038772 0.6217945600841162 -0.16169359248947637
P 2.698757111908854 1.906503281306505 8.81282277094211 -0.42732840114930914 -2.051021185151932 1.0468336509786162
P 5.8901213579898695 0.965281698641405 0.8105617078313684 -0.350776375625183 0.0005589578272635535 0.5685950932430014
P 5.859282287883467 6.874179161205202 3.019976113964689 0.45495747572048745 0.17997593573843196 -0.6584626049291112
P 8.998389353582965 7.614429669625079 5.867582510776739 -0.4419746903075743 -0.5582965395304708 -0.510009936609941
P 6.364591734163479 3.788213078506126 6.347649049915999 -0.1066313614080099 1.097479498159942 0.37288657726066105
