# total energy = -381165.3229761388 ev
CRYSTAL
PRIMVEC
9.35253688842579 0.00000000000000 0.00000000000000

0.00000000000000 9.35253688842579 0.00000000000000

0.00000000000000 0.00000000000000 13.68838310513284

PRIMCOORD
 96 1
Ni 7.201771237644374 1.0169013143173844 12.64450708681952 0.45234240669514353 -1.2813072035442965 0.9586095884332007
Ni 8.97077549497161 7.823808452904645 9.05372875439835 -0.17645198174557353 -0.014298161790226986 -2.3408960973060524
Ni 1.8224820621213753 7.558963318913661 1.0943337713359436 -1.590127803562984 -0.24831225822098527 0.13310652488040303
Ni 7.895233775607136 1.4881101703759956 5.756731369233747 -0.13713235821034447 0.02362638116968834 1.3713688335190835
Ni 6.108225885151409 4.003306567524922 8.728685082747702 1.4338787791278467 1.736166463124023 1.5975590630300487
Ni 1.249985233708701 1.8263446597743973 9.575434761807957 -0.539854016554567 -0.7036728829171623 2.0876570912074106
Ni 1.8693850336223565 2.397840766761228 13.387429579814341 -0.08307028625861823 0.8846489777853345 -0.4809451580335008
Ni 7.3664039410006605 0.54343195014077 8.433754708731922 0.6506752476742085 0.3817584258289941 -2.1632400679500483
Ni 3.514412064585284 5.948026284186243 6.110972725177299 -0.9769932331467109 -0.0918860847780353 -0.04853162905180029
Ni 5.738651045304396 5.571876611046071 5.519224635241669 1.9998901708040717 3.215637329059372 1.0634630320051814
Ni 5.58737376434161 1.8725929537070698 9.300927522162405 0.84810177478892 0.9965714123889546 1.2032246003082567
Ni 2.9808872565603637 0.912306284989693 11.85271571911145 -1.5707144320333788 0.3614865629538355 -0.5246312860675416
Ni 6.58022970682868 9.055415952017249 5.570282003540405 -0.4157034153158711 -1.2071391048713147 0.7775679304344157
Ni 2.763150849877544 3.386048498513306 11.139537098552234 -0.33070762989976593 -0.5821790025750231 -0.625157048798446
Ni 4.9756056343670965 9.135903882772471 9.223588590510747 0.07645072405957155 -1.8304243905683444 0.1023252778334883
Ni 5.645967406705248 2.6355354867407765 1.4299981836518985 -0.8954864347204706 0.4831035991374002 -0.3427308796128871
Ni 6.737660956933569 8.784472964104303 3.290400105783389 -0.2130207820085428 -0.3062438404304468 -0.8646306256818787
Ni 1.0473999364638849 5.776229537725321 13.087407684824457 0.4245855482968494 -0.3847059384930923 0.36786958366204386
Ni 9.054574223715138 4.534343600790269 3.5379542699416686 1.6176905436726012 1.1577842085872705 -0.10679025558337739
Ni 1.7825747880646081 0.4092875811406258 7.423456285317766 -0.9264738842409206 -0.3589352572868915 0.9885724533438781
Ni 2.4645524109718955 5.791801511314381 10.907738217702141 -0.8189706617509187 0.4054346864000114 0.7665692653310668
Ni 3.709225403840605 6.638991694852741 9.295384273666167 -0.06311826861672355 0.7321781894457069 -2.24829524584918
Ni 4.5766264191663275 4.849365094123778 1.0707803429355307 -0.3846020659253763 0.2920302679342261 0.011626271385018688
Ni 6.125518725491451 8.472977377102971 0.4553684646665449 0.45866114982431977 1.3691381444163517 1.2035375035629854
P 1.434866178999109 2.696149277029482 7.712295352187268 0.3867335104460824 0.8867043176524664 -0.7153086673838778
Ni 7.226751863143701 4.696525939533742 10.904371304493694 0.762694612867009 0.10052062052458172 0.1211488382978946
P 7.418918434515716 8.838221992462456 10.136439193135807 -1.3614721432306618 -1.3874366856152234 2.774477678453925
Ni 7.649692277344572 6.809600669154017 4.340148464210165 0.463452400565376 0.345979725567488 0.0910882714670883
P 5.294218501789615 3.9926072655514186 4.440511470685574 -0.8652620886182905 -2.708758996099877 -1.865890187575122
P 9.05184328300162 9.001302174728181 7.068202049650673 0.08374880038288157 0.6300729980428246 -0.23366442640082338
P 8.271953953485406 2.5873792753233187 11.180205669095576 0.9132422160419948 0.41586565192534836 0.9844126655392336
Ni 3.522389778381961 3.7653032138345996 8.708549071253861 -0.07784117664919497 2.14807930104921 -0.542911058213336
Ni 2.6062526943639925 8.921936548375774 9.716986339866681 0.02293912529467662 -0.6561429556569991 -0.12420562284634738
Ni 5.268227802327754 1.0876439018414965 7.089186336222308 1.2351492169309952 1.4328243697214034 -0.5273348010416338
Ni 3.2973958032276034 2.5900447482800044 1.8844519702301492 0.3420004292047658 0.5260613336458488 -0.47777678760784814
Ni 5.665794784488314 6.855138170298241 2.138659528989784 0.4764159027045794 -0.02600722269703908 -0.0986830530952107
Ni 6.6762896111729635 5.046722323358814 3.0000421869554104 -0.4328110215304352 -0.9934246392298568 -0.306530261322614
Ni 5.093297956075641 0.4988325084265668 11.505824521752666 1.5222915606453007 -0.5787386094349065 -0.4005863571687746
Ni 6.144205093798322 1.6390414074812465 3.861643694279586 0.5134377313445674 1.3829943335731536 1.0001064221254068
Ni 3.9079855135791597 8.770275813408691 7.092759005237937 -2.0175888736354155 -0.929128291144632 -0.7125149066888246
Ni 4.105950657699054 3.122970993956756 12.936082705924552 0.8822020589067388 -0.02775891528082316 1.507468122479223
Ni 7.858141615094098 7.23708641618629 6.96822156192589 0.6741090532171164 0.45628005118665294 -1.3732475385990348
Ni 2.136297078221858 8.185545867005334 12.659330857473368 -0.24924042646220948 0.4070470251924538 -0.7613067313805469
Ni 0.7825445146825417 6.588235478235428 5.209661282320518 -0.8514537219802883 -0.978518925762618 1.1244033191339795
Ni -0.2585078551297547 6.527023125598554 11.280473279696748 -0.9358594392208787 -1.1975594316026794 -1.622315701149438
Ni 4.498177341409552 0.8522134309946272 0.09133126179375506 2.7178858981018097 0.2467523699330331 -0.9395420302787882
Ni 7.8525768557634725 3.0652190798952286 1.9008095569011794 0.7423291618367795 -0.18913086276482266 0.2513132498308382
Ni 8.704303019596544 3.172642316318014 9.110220881767718 -1.355802346539394 0.19401981542600777 -1.2511869871201484
Ni 9.104759935594354 7.954669146272886 13.014640273106934 -0.27921460422679656 0.10541420117145715 0.22242819136537176
Ni 3.1259918633076667 2.102328664963321 6.33862469125899 0.16689699106728678 -0.31017351450215613 0.9428633813425373
Ni 1.8372964802385348 7.12780202496217 7.441100781037357 0.05238931223499364 1.5554438790275533 0.617523186402272
Ni 0.8751673617932032 2.416330731797607 1.7828843570290513 -0.20143179161936275 -0.11355405666977218 0.700263085904665
Ni 0.8091057188824992 0.6933849119082339 5.386570125336262 -0.011367875517309453 -0.7912616258714243 -0.9186168500903469
Ni 0.1706407729260223 0.9317324389487533 12.386795132562094 0.8290794680501463 1.1386377175658067 -0.8233271389474014
Ni 0.6172664862946375 8.620681989050128 10.784227682918669 0.6881413629404665 1.415054447332492 1.8393846850854254
Ni 4.032439719314665 7.594633893849801 11.385011258550628 0.20312074928601145 1.1224333398918025 -1.191997878354502
P 7.960028149796329 6.166473483657512 13.338001423407027 -0.5275841980482785 -0.9951282521845249 -0.6649317575932226
Ni 8.728226808449886 0.8311795759785342 3.1487793189531583 0.3462352932217198 0.09139808939802324 0.49241459212568095
P 3.1954438007685413 5.110862019979697 12.827479179371473 -0.41737746058418435 0.23530864687246572 1.684806620594808
Ni 3.7507039040613135 7.927013695280184 2.112555663833974 -0.6460251504967067 -0.7225419519075235 0.5316725091850392
P 4.865273759033682 3.6752289329719976 10.493227244820078 -1.2783895156768692 0.6978472773743207 -0.3007599344977401
P 0.4436516067011552 8.278631664682157 3.9166843079546463 -0.15501463780740402 0.36798836862809525 -0.8896096642247195
P 6.911337563269206 0.9428946914884186 1.5969138412142436 0.8255514002922298 -0.6247263890189305 0.058210289792144904
Ni 6.727288993744219 4.239140132703136 13.520467543724044 0.737725087405865 0.5934620316880101 1.095705951199287
Ni 7.456178940689178 3.49482785275616 4.6721055309821535 -1.641473762135128 -0.37538543242311484 0.5273679682724144
Ni 7.879390578454063 5.720965398423367 8.791035639099764 0.44310289037474654 -0.6267192510792432 0.10362779869499573
Ni 2.578129616536784 8.114176659522983 5.011276209303237 0.19341689173468626 -0.26006862742596504 1.1301998712110988
Ni 5.2175089958572025 3.65532673489541 6.721488550489004 -1.1914016395313998 -1.2400690228301159 -1.5885213783078127
Ni 2.2055152022654796 0.2708419805166927 3.321253189070445 -0.5090938525535749 0.7787706924932652 -1.3573033565649528
Ni 8.387139795360996 5.115267064760746 6.169490611993747 -0.7949696708506309 -0.5055282466895036 0.1704047471102291
Ni 0.5964028474463048 4.303176951420428 10.823322221537065 -0.9073415342868437 -0.5199513640933691 0.08512099814005984
Ni 4.8810047257464735 7.713841326502146 4.536247777260378 0.18608487684964725 -0.7041883891010001 -0.41185550232469065
Ni 4.649417212225577 0.5490696592575779 2.6114012658119066 -0.627270495597023 0.3791341008322696 -0.9094027876912467
Ni 5.91958522011157 7.030152189380566 10.141531649363579 1.1889158969950686 -0.5525120716382097 -1.7152358836189427
Ni 6.650252149027653 7.5002013308896 12.207573407222881 0.7636731747301945 0.336092291250447 -0.1624919200210556
Ni 1.877446920249245 6.333294680599288 3.0882908526561006 -1.7031645542767058 1.3306255901634503 -0.36946263918077665
Ni 2.0647688776157755 4.598642290534884 1.4034697133303566 -0.22745341249410506 0.32369391758609417 -0.6962174550803816
Ni 3.3936521108423783 1.5744808467093079 8.841216674710635 0.20540928820987206 -1.3597924415353937 -0.4107920940571828
Ni 8.155430698863128 7.595672025422405 1.8102199512669512 -0.07967668719603697 1.0745061771932205 0.28262594390119067
Ni 2.7357853275222355 2.5225942536708166 4.172204962865575 -0.32745415595947475 0.6371018798651479 -0.8184883227978614
Ni 9.377882064556099 0.09202241425515535 0.8765066450472292 0.44691146548755933 1.857841863349349 1.5375785687113583
Ni 4.201926389213126 7.232073456520382 13.497169439575273 -0.06089940658853383 -0.8398871001886116 1.8996945377190764
Ni 5.293255190510531 5.41649356647632 12.086964964574355 -1.1179989582695327 0.07161679300603795 -0.5027532550475277
Ni 1.0936108202497967 4.951345154192911 7.183472064356475 0.28893363128677335 -1.373203572734977 0.27829466351568843
Ni 8.800026232619983 5.551235562570963 1.4969483175481646 0.9479996741278384 -1.882991366031783 -0.7752575371336843
Ni 6.097685576301636 2.7630666770473327 11.793226103732897 0.6558099977976125 -0.9204217645095696 0.3351823778416679
Ni 2.6412498866584433 0.6128483479622222 0.889721779390377 -3.2589352205160584 -1.817929086314811 1.0778522108473179
Ni 3.648340389987886 5.201553568263848 3.5836049367798415 2.118820661294409 -1.1336842302152734 0.0470604438229125
P 1.7794136306633457 4.6074710851703635 4.571359070502449 -0.43871967370538634 -0.15143026289025535 0.28364821451811795
Ni 9.115870749182223 3.5386631922227796 13.43617406578961 -0.1434701275029142 -0.13881283123656094 -0.34159136669180523
P 1.0510941884564846 6.098602124897269 9.24036984709384 -0.47373809876210027 -0.5926469919858826 -0.137019486781564
Ni 0.2622058481370305 2.9822059642336716 5.241651634069092 2.0862987774073036 0.6469800582108084 0.4904176163003103
P 7.355685933953776 3.255496438855839 7.117151356179454 1.432829769038042 -0.5465196015002007 -0.6221221186268641
P 4.930142953516395 5.621426350430358 7.864304001519221 -0.47822184556506675 -0.8321167122145734 -0.703794238986375
P 4.145914046975962 0.43526425179745043 4.745816613651711 -0.19527837042345725 0.7225360383702525 0.9030254234099933
Ni 5.6940581503658745 7.504830836551212 7.485396265309131 0.4544702516714238 -0.08170014538396897 0.18555600092937075
