# total energy = -340864.34341666126 ev
CRYSTAL
PRIMVEC
9.34404925838852 0.00000000000000 0.00000000000000

0.00000000000000 9.34404925838852 0.00000000000000

0.00000000000000 0.00000000000000 13.67596060062499

PRIMCOORD
 96 1
Ni 6.896777318635404 7.37928533209671 0.004763596290765973 -1.7977011893037103 -0.1454370214212979 1.028145844761126
Ni 2.181003871761429 6.450356023249694 4.216900265614225 -0.9782669576528119 0.4812364640216744 1.1052516859061934
Ni 5.636068854244593 8.594544341096611 9.302306545814504 0.259270814115018 1.1602046451033052 -0.7600450910593038
Ni 2.0919270505769014 0.6883237791320145 2.4935380235381372 -0.815826459694982 0.7113795075328007 0.5465517402897168
Ni 4.351234054775794 8.601870075682646 11.303632760779605 -1.2663073877013546 -0.21199722584003491 0.24210175853489915
Ni 7.255691593105023 7.083789119662062 10.223573734303676 -1.189626292798532 -0.3604676347710179 1.001035104587263
Ni 1.1247992685312764 4.330266008333113 7.456229839778039 -0.7947094752107088 -2.2611751871356414 -1.1617802171205411
Ni 1.0631752639459457 2.5951881973488997 3.599362331324693 -0.9899148263043855 2.3738427274354024 -1.3375104902087416
Ni 2.482386835202711 6.894600155167871 2.1097629717220845 -0.18790598921878604 1.3508362607833704 -2.5842450979844913
Ni 9.127052361917448 0.8886583255321013 11.620053102625613 -2.2535858048241577 -0.052995835470740986 1.1149177482410477
Ni 1.4786023480792616 1.0611382612166658 4.997660986029158 -1.6197325138032943 0.8505144979954706 0.875434401165602
Ni 1.1745376425127345 5.985153188938052 13.12867601202887 -1.0756616309539022 -0.9948325753209768 -0.026768012122463578
Ni 5.069109323961117 1.513605156445698 11.194019588226217 0.4930607103501122 1.0684419732770116 -1.201537442413821
Ni 9.001384243999613 3.7723888938884453 5.490487633040663 0.7232284364515866 -1.0906303364485928 -0.27392584502403144
Ni 8.770147058029458 0.822104400579944 2.2707431860354332 -0.3135588860346213 -0.04082654709805872 0.09084941598340483
Ni 2.7272009246849955 9.109354732700675 0.5772249027531418 1.911089666929896 0.2929728343531535 -0.9736819093852909
Ni 2.131181401337019 0.17128296297988194 6.893805910984436 0.9073929563500694 -0.6568471808128752 2.280669291304511
Ni 1.2635957755988279 9.26923141480151 10.430491163377056 2.5822879742581204 -0.6971014003472318 -0.843404883533883
Ni 5.845562437687067 2.179368663148475 1.5238443655775564 0.8324887508420113 0.2076410057538682 -0.18291907752715594
Ni 3.9196697976449246 3.08738598984811 13.640170200565864 0.10408956882276268 -0.2522776706266365 -0.40417304607876847
Ni 8.418128691881897 7.272230560218904 12.229386027297803 2.74361209922332 0.443707613838281 -0.42982597076018236
Ni 2.3012244089858207 6.977182862146666 11.010420233973562 -0.37352318240339544 -0.18903727460975187 -0.026719418272715272
Ni 6.763493800605812 9.008429657109142 11.679612072334013 0.5546046925011803 -0.4667871213655638 -0.84717000700327
Ni 3.305990021277043 7.748496748803332 8.810176964874575 -0.3697986823639567 2.5439029467220187 0.9108582891908507
P 4.241020994262682 7.423211707465268 3.3577214809564615 -1.5931239100768304 1.256482431191133 0.6917745888176795
P 0.5865932464979868 1.9648947014734035 7.030537383175057 0.3252604907422656 0.7493336181790707 -0.8870532163514528
P 3.8789110549608896 1.1054477426031157 12.89264252559569 -0.7220629553885758 -0.505855033901303 -0.11714768755830146
P 1.3599516111233056 8.05594400018637 12.849316972591776 0.28876779513287043 0.9645827752975001 -1.61896375395807
P 6.173538565199592 3.057998955061019 6.472325751768425 0.44286557755295985 -1.1156201736247109 0.07813248263736866
P 2.15185043820476 4.276173307416588 4.861585466093562 -1.293454637540108 -0.8051224430139166 -2.0203324978188237
P 3.7993277877807135 5.974753262159664 7.9814270764915864 0.220007240628705 0.1348553892507097 1.0228036066126063
P 1.733293097583789 2.7078120225599673 1.0732042319704242 -0.07486718162253558 -0.13671841060137743 -0.08664720497659917
Ni 6.746169933357716 8.443535161702597 2.2056319822823625 0.606809913749826 1.054728737455977 -0.4570518963556709
Ni 4.917829167139812 3.6904602703548317 4.39507072727187 1.0244395995541324 -0.1415644258397691 -0.004475262162534228
Ni 5.183788839999898 5.0173526353488125 6.837870563562343 1.0325069499432993 -0.6490652228746111 -0.8360039630841216
Ni 6.8505055869134095 1.3902637067828678 8.063537908984928 -0.5674995461859775 -1.1899636215332925 0.42027483673663746
Ni 6.100944646833644 3.675855521428847 12.56317508782815 -0.6975320601267472 0.6649492410947193 0.4442238913530672
Ni 5.252803987515781 6.0612698138587655 4.732675897502391 0.45496570325060354 -0.18845466263340446 0.14149680582662727
Ni 4.269165270503928 7.5916288505503315 6.291721165289783 -1.5105521607211856 -0.0734913843209315 1.7211316802780874
Ni 7.195114122031983 1.725752449865766 12.69414969129625 0.1926735858107585 -0.18226550310355707 1.328869526704292
Ni 3.75529862787077 4.6873301610577895 11.773484259576644 0.24575452479613802 0.5767213218945616 0.7809617866073131
Ni 6.711624983402905 4.653869120812138 8.962185023129875 0.007517905643599956 0.24613993316001478 0.19530202457254106
Ni 5.198262772236847 5.310297922347251 0.3060269559020722 -0.5024889456425474 1.1847910761934175 -1.212436605824828
Ni 0.7615437487954945 1.0229491320672728 13.575606558096903 0.4523403498126145 1.037057802538775 1.0528361484189546
Ni 4.922379719108433 3.016025485978789 8.312536263706532 -0.6034924193408187 -1.05364270348065 0.7639624238358391
Ni 7.937900626429511 5.609840108092808 1.0937359113146772 0.54019185950996 -0.3810359458406728 0.4420451385341936
Ni 0.9898992299871644 4.510456653431448 2.1234389221559113 0.11330440255281132 1.2314203460161823 -0.27805503670105663
Ni 5.313568339573159 9.078453961940449 0.07204542267691816 -0.9214178098742518 0.7734688206643775 0.13835620331511655
Ni 8.114605941169948 8.047870741662985 6.07337129199955 -0.7251649913526672 1.226018972494953 0.23474326128729894
Ni 2.1291070224108717 2.5805180400783962 8.514489199430983 1.8353994751854328 -1.3929771558174784 -0.12763701712539952
Ni 9.091068428383238 3.3913759430209027 0.10760887399636755 0.46967189911252655 -1.2968042707386314 0.7660331903219387
Ni 1.3672773457093406 6.289843945802112 8.396273895168534 0.3014320208641002 1.9161832794027194 1.0138991050341248
Ni 7.742376396566275 6.98490104679981 3.741852541047678 -0.5296878746548427 -0.5629024137335984 -0.14122401178121485
Ni 8.265372175284325 4.662250732959681 3.4123028756470295 -0.4809346165105394 -0.9442530626012124 -0.5879824966306777
Ni 9.183836149008433 7.679855363256124 9.61837181379027 1.5754604313587965 1.1444478964896807 -1.4177834162278808
Ni 3.4052985763540553 3.1472346250822336 6.182669570094328 -0.142562013866348 -0.2900949985847262 0.3798115865152685
P 7.470698165585457 -0.207791097675158 4.162784204574658 4.480459390464452 1.4745037517380606 -1.2092265835279625
P 1.6307515014777363 4.1831906736594044 10.810942536886664 -0.36148167785782903 -0.2290487820056829 0.42340258373234185
P 3.894739874334286 1.7643433731314848 4.202034817715089 -1.632836398175104 -1.1181180003459001 0.2001935483368875
P 7.469558191580997 0.23128857824084886 0.42942914188481207 0.6311004108660744 -0.7003559027287874 0.5000854784073775
P 6.097664885558518 8.860700238990253 6.9758335814397485 0.15751349296985775 -0.21323983999788435 1.4403150216714937
P 8.721230960379085 5.183620647113994 8.40343984651296 0.44006693176190015 2.025661880451537 1.4507606424848498
P 7.949776912984167 2.343403447150822 3.540965761338873 0.5051505516351107 1.6675717447737601 1.0705574769581174
P 6.176341779964657 4.394113896632062 1.88397336644537 0.7725118560677469 -2.095386598641185 1.0387740138989336
Ni 3.564521175009709 7.204766524873022 13.245659770604536 -0.5375456801363645 -1.226742480924539 0.07649289015141665
Ni 4.375650055379504 0.8025491743788554 6.188112478763162 0.404104140514046 0.5087824919607431 0.9285832172744395
Ni 3.6024112945841615 2.6188566740152597 2.249982577485367 -0.27940435164009947 0.2801769681400658 0.5447481114220748
Ni 2.38034981775437 2.1426278616276986 11.455778176558391 0.35216708532512253 -0.24156542641545492 0.3961398913616468
Ni 5.74111465554077 6.380359750566038 2.46097588082715 1.050623714148668 -0.4636179796089628 -1.2049819493189957
Ni 3.610680778141101 5.051206125661572 3.025902146001033 0.07149492271619301 -0.6060699502600079 -0.20638347919768327
Ni 0.4926472412665427 2.1867784941774615 10.011514274946247 -0.8584671771836441 1.5486957616704426 -1.2659577176714198
Ni 9.175389128516374 0.10917306783527343 7.813212699274528 0.0058142926889319215 -0.13773399635008537 0.19964127537784326
Ni 2.872426137613761 5.012232096377962 0.6775342055012817 0.33604138340785356 -0.45767050377627627 0.05231295047110345
Ni 3.2484400221502727 4.626098606539568 9.526072230030842 0.2075741570716748 -0.3476486286294787 -0.9324432144504781
Ni 4.6785560988431385 0.16391331136252785 2.452578383795939 -1.095123596333256 0.22962985132013358 0.5722607150200466
Ni 5.738479633661609 8.547973599799676 4.839033603308619 -2.2636786702837854 -1.3581806169635835 -0.58835093571369
Ni 8.01390512275962 1.4631753228221909 5.873455359004378 0.4241191501833922 -0.10063143507083315 -0.6079003186005273
Ni 5.236489277583107 6.204215078778613 9.980907841736354 -2.348181318113556 -0.5450381318586678 0.015554659905147403
Ni 9.245282616658644 5.720146609098089 10.727656223001839 0.7328505329223831 -2.730926019115219 -0.4243122400308047
Ni 5.99400200354644 1.510624404745513 4.464626895237411 1.1860426892123315 1.0257688598885173 -0.6098150191247369
Ni 2.9693519601404685 8.968577287199144 4.446369557472547 1.931266398988087 -1.8360623055804122 -0.10241860887824297
Ni 7.672744541802077 3.114577173069234 10.982685227088016 1.0158240899709794 0.7244417400333976 -1.3501037534927198
Ni 9.168857638113773 6.115764308891617 5.357530222328741 1.9274182288865904 -1.1180452381264359 0.4675918766550463
Ni 2.5598209710630044 5.696076338315403 6.318963740781599 0.17226648290931623 0.953011782630449 0.657274755268597
Ni 0.4560727638218268 8.274538687566086 4.075764008622767 -0.17022091323419716 0.5064474160696633 -0.09678480763123332
Ni 8.225884223293786 3.2706601711880157 7.821692423938847 0.39648930428126555 -1.6546514371676666 -0.8020432898679606
Ni 0.6744712261679882 8.434013575550594 1.2175529730826464 -1.184220034181296 -0.08686549163499234 -0.0609405442391144
Ni 6.785414940068616 6.831490446757057 7.869038721320784 0.04764614112305343 0.5319512167677226 0.5984756828525176
P 7.1157831441806625 5.9658296951575425 6.0044850923628585 0.07020294337764685 -0.42528565968766757 -1.8271120383656598
P 5.342712429080612 6.786498849777774 12.10009335268874 0.4521814556372471 0.13627823774016531 0.09343877397713585
P 8.343049256424258 4.940161444768158 12.709261822094712 -0.7499313996640697 1.1831111173878335 -1.6072888887233028
P 3.602616863666933 0.8608046492215006 9.041464608710504 0.12226315440799587 -0.23130903879476936 0.24377683224447688
P 0.25132689178645035 6.775407463357336 2.289602280569864 -0.7821491220471949 -2.3860590669959363 2.0626245737188156
P 8.19486197989374 0.29994491426680425 9.748074692159953 -1.084852553424551 0.06870321890366878 0.23516672197796273
P 5.528677696594978 3.671099400377454 10.450594885267178 -0.8420211158124788 0.19362309420822138 0.32746726858559727
P 1.2891797823546485 7.609494672653009 6.336359557208667 -0.5526138873233967 -0.063722992080258 -0.6655488223519312
