# total energy = -381161.92511267675 ev
CRYSTAL
PRIMVEC
9.35751115779314 0.00000000000000 0.00000000000000

0.00000000000000 9.35751115779314 0.00000000000000

0.00000000000000 0.00000000000000 13.69566345116188

PRIMCOORD
 96 1
Ni 7.789388627408234 7.214042066285682 13.908905095210415 -0.8658634696477153 -0.15141946425697794 -1.3203990273394357
Ni 4.539805797758264 6.991679533441002 8.255020244075231 -0.21750967101783186 -0.34373720939021446 -0.4734241670661072
Ni 5.747495519235659 2.3844435117346348 2.488255738279216 -0.7653112245542496 -0.4406235755963186 1.898601047544582
Ni 7.379744870292483 1.4236236442953822 12.496388816419667 0.8352855968608582 0.7242867025127719 0.33976922588140196
Ni 4.538860689151719 5.0913562085200015 3.0350684412439892 0.3280287975160222 1.3384859667481335 -0.39586066955833116
Ni 0.5694962452729323 7.372221431483952 0.5079977475197646 2.1642733943105696 -0.4388384586714378 0.4337291624693304
Ni 0.5492175832804354 9.558603866326338 9.672261130147605 0.961861005490963 -0.6315081878274543 -0.047795265106408004
Ni 2.755337815982068 5.176584418306197 4.752696658013398 0.39321937528074213 0.01452596153031692 -0.02937845316211715
Ni 2.580071635778354 5.6093412274829815 8.964400049125489 0.1954632327407537 0.1891501460385323 0.940803156379399
Ni 5.93511361390114 1.0940614659400902 6.161226637136939 0.05938862637096224 0.40690869984237665 -0.522110576528217
Ni 1.0217934088277951 1.449066716584432 11.918596201933246 0.015384452875870279 -1.1821294702008545 0.0535499082019981
Ni 1.7694304616700898 8.834192155676549 2.4336780556290205 -0.43505765147276687 0.8176645413449853 -0.5818861539249527
Ni 5.906423485310398 7.5379990955784 1.4355104904626423 -0.6943500628543396 0.3216396061602267 0.0990599768186552
Ni 6.481994626695892 0.38619289890920877 0.8641249637277169 3.099482344431643 1.2085565540441314 0.08516470689380172
Ni 8.304042372470919 6.3276050534347545 11.111620364866402 -0.49194125203368827 -0.4450016500593562 0.9914196929846861
Ni 8.588707213259879 2.2232416704976146 4.536072150886866 -1.7465238950989472 1.052505504552413 0.4707502197783699
Ni 2.3054848342888827 3.3480612749496967 12.935047407756329 -1.1252245294836944 -0.10051804942142042 0.09672567225852374
Ni 3.288875018153728 1.2051257634754822 5.983430185970754 0.7669194495816342 0.3074769415065995 -3.5209095496051686
Ni 6.356182891894026 5.4618481397963325 7.39220720338353 0.8889982558929657 0.5940652124896479 0.327390649711391
Ni 8.122487944904849 4.296997103474976 3.170874933497835 -1.0880808305538614 -1.2407557644844953 1.7613666165387343
Ni -0.28976936301539374 0.2166254428776279 0.5748328337710732 -0.21680390320005888 1.1455028201167563 -3.002783668756312
Ni 7.460790272681399 8.654986463360407 4.974648396127115 0.09837632048806928 -0.41728670064259105 0.1445618179051962
Ni 1.3497086652548516 2.713360021833971 9.7044182165475 -0.8478073834769527 0.2104090554173086 0.7012066807648569
Ni 2.9462591120149773 1.533892553399524 3.49963891616859 -0.3307603375145723 -0.38252358612979287 -0.2683249538974863
P 6.818443933114714 8.70341158255711 12.37994862884012 0.08017265299584903 -0.9372324083090051 -0.09539486926224215
Ni 3.032076844991393 7.707005100952628 0.348574769115458 0.11157662122842718 -0.29905760709465273 0.25892885739456695
P 4.69662832386793 1.8121007116289225 0.6720788948779104 -0.6589853102018006 -0.19739387410456327 -0.8080678987954858
Ni 6.643159037889088 8.584711556081714 7.519165233277491 -1.1416104270408856 -0.7658179889873391 -0.3524635335196188
P 2.925513510225782 0.48910493289983403 9.399566417373414 -0.011064485344277718 0.9211195619075426 0.7235351690587282
P 1.4781498606353205 5.09192701668831 10.63168298545005 -1.1707741930890354 -0.9654276397962985 0.7224573626135171
P 8.092618769933667 7.310415071620336 6.595858691509283 -0.602175243191292 -1.6223025885233158 -0.5291194037458823
Ni 3.334446096508885 5.321560335545714 12.118264899207716 0.052580345199877185 1.1726037900986062 -0.8827713011466474
Ni 6.173608495633766 6.902324661323261 3.7751960915441867 -0.5060414388804961 0.605294505546564 0.012518701292301022
Ni 6.679194812580199 5.542509884236055 1.812497470093452 0.42987739282340803 -1.2351543591373177 -0.06137377512179107
Ni 4.38347921972926 7.3992552806355025 5.7713796301994575 -0.19148342215739925 0.6425060815998547 -0.8992641565953481
Ni 1.5186023804976088 3.7792366647749374 7.607653599880717 0.6050412518851773 0.15117623789792028 -0.17432207988676432
Ni 8.801899385367792 7.124649764124119 9.026989632656113 0.08819989417569972 -0.7382992147417801 1.2461098297075572
Ni 3.646088641383659 2.417784323270451 7.768454003897729 0.16159589056934753 -0.03879948936570092 0.2198815136841181
Ni 5.314383124642549 6.979299546446367 12.875306250560675 0.18996184330655028 -1.1598909705176281 -1.735027207313257
Ni 2.347284835728818 8.479065257389781 6.278392967566663 -0.38102668986929217 -0.4724008680079154 -0.7065959701012283
Ni 1.7886601466844323 1.446951919108402 0.8851653271120229 0.34474199650564497 0.43337666422591814 -0.21306243387975565
Ni 4.430004764201916 3.2929455354195376 4.394404113770254 -1.6436499438508403 -0.8446115022474745 0.7376397267809103
Ni 1.4237640069597206 7.477287564496622 10.831392855772723 0.6847058548963563 -1.3997180740857378 -0.1434153630055788
Ni 6.6558197502124 3.837917615979288 11.416156815921278 -0.7702271737986284 -0.5311456901472917 -1.6947447056441265
Ni 8.04836710062329 2.095399355818322 2.1415637003680823 1.2466993836624398 0.10623772551401704 -1.1360987531940367
Ni 4.94188868602166 9.0437068259788 9.7067735020551 -1.1916651776054317 -0.83765641108588 0.2537527125102662
Ni 7.131901835114929 8.594686662760688 9.714142541932857 1.3925210421166663 0.8627462641749722 1.9153607835014237
Ni 5.778113295083313 1.5045473990418705 10.87176770829408 -0.7185099479299948 0.2328074777171668 0.8208987320115668
Ni 4.806148632095602 4.330253697412189 9.16330236625267 2.0804978544548103 2.1006894989113367 -0.6315215575638929
Ni 8.876824975591559 5.43368203181912 7.493267385955986 0.12212637171981548 0.24312325782087804 -0.6114546116106888
Ni 4.825378317109944 9.282697655792088 2.2119321827563327 -2.4650137884242835 1.10937213583247 2.208668118375861
Ni 8.435215961050506 4.3007401078573295 9.774142902181987 -0.1017866317211989 0.9283307349440011 -0.3992990058159188
Ni 6.3181539673693115 6.290025289435923 9.58571819007211 0.7551677083623446 -0.21214249316864753 1.1361812856055142
Ni 9.100272979707121 4.773958794407359 1.2822896703198958 1.0841580984606878 0.38042736572239644 -1.905389788331641
Ni 8.991566774932613 8.51528818230001 11.72309066128305 -0.8835837697456137 1.2536896989373443 0.8456977933331176
Ni 7.790455383657205 5.615620117334379 5.03229347086865 -1.3930015812975107 1.3664006908805306 1.1288243310198107
P 6.62016763347048 0.6500223058037954 3.578580750094622 -0.06779304838457356 0.1090083462806187 -1.0294108275164786
Ni 3.6594324520067496 2.801938220542372 9.924576119810975 -0.6869758818774556 -1.8680743397106343 3.1535662707602397
P 0.6896710154749731 1.421958007345235 3.193061591974237 1.8098756198827155 0.9901953336592818 -1.9819549264818899
Ni 8.284241879288267 1.6235000783130729 10.177041765400737 -0.35078486026561523 0.9445880773431281 0.2433253465293551
P 0.578528114847552 5.559737061905838 3.1105040158148514 1.8793211162690473 -1.2270908654028934 1.564252478458119
P -0.2794863942259724 2.5154112350731928 13.475162940129975 0.13367448156873107 -1.106930873380829 3.6256228680548586
P 0.282756844305054 2.0331438354288234 6.3944504329481155 1.4963923242810357 0.9495855305577194 -2.254182814978208
Ni 2.2288281045382776 7.952564903456946 8.571087955881042 0.191214998987361 0.048089656418375246 0.2340117824379131
Ni 9.234525189391194 3.395157627590663 11.722830522478477 0.7667988648433697 1.203927282802236 -3.3289389033987056
Ni 6.142073683712436 3.6095475611009302 0.6183508742225092 0.06482933777055933 -0.02109358744550561 -0.36116337528646186
Ni 1.8112772506648047 6.0099737015482155 6.701041793408902 -0.7903098034811163 1.4464476169317928 0.35549743524993616
Ni 1.1239399984222291 7.442065893258674 4.759037307437106 -1.3159574466283144 -1.7614131535059536 -0.7421581834765542
Ni 0.39262431618918814 0.22129671234680534 4.885420786158376 0.7275959693916632 -0.13469623796502608 1.721243009044971
Ni 5.4901171803940585 3.3461523427146966 6.879180729476073 1.3591902891750205 -0.1722158321770389 -0.558267228954432
Ni 6.46489845417949 2.1616692484078954 8.872447531966396 -0.40204442977153987 0.6490351409676242 -1.5545959292049614
Ni 4.620214889402178 3.3675342552488923 12.617705202958325 -0.07154917299289613 -1.2675440883219333 -0.7030285644649441
Ni 3.6668903882385893 4.760193895791254 7.140014797113681 0.7458819121850445 0.07328980983308668 -1.3342487887383343
Ni 2.5149246445034867 6.702682165079469 3.016196213148161 0.1397152884461723 -2.5920373403354007 -2.186118258099803
Ni 2.0516810646324304 3.057501202258531 5.415744619067785 0.6400501638601944 -1.0156356281092573 -0.405591780803166
Ni 1.5497067469149686 3.444359420196703 2.2631944992748587 -0.9639703385244819 0.05454981022142218 1.3699778667088276
Ni 2.39163943765971 5.364024720263516 0.7929049478424808 -1.281018211548968 1.3510211231006668 -0.1997592890129463
Ni 8.23464707122208 0.9966497768893339 7.41199740330413 -1.580296162184543 -1.469421966339779 0.9456252603583908
Ni 1.7013264969331632 1.099816335177959 7.651904333439998 -0.6554616133192582 -0.5932455448018299 0.6464545247246415
Ni 4.77830067949089 9.126062279901538 13.260017855485566 -1.1390560360501478 1.8660555095083926 -0.7707496219610016
Ni 0.771015858214476 5.4731894430748635 12.574522161399111 0.0335814354998712 0.4153259773717944 0.8220318171747455
Ni 4.139089106094427 9.186315292946478 7.424350253516993 1.6669423387198776 0.366460362019343 1.7424533245739993
Ni 7.861123306396044 4.452584438138466 13.111762130656013 0.031636653068674546 1.7761211491400895 0.8057621334804446
Ni 3.6501965886932917 3.699548101474626 1.4190758939708226 1.9478371588625742 -2.4192700065302657 -0.4867195986234327
Ni 8.711618119665419 9.152937051366838 2.6150359754650156 -1.7878446082246047 0.060615813909844 2.279311748835352
Ni 8.517459124841775 6.942262518082976 2.66350507496321 -1.174012497520675 -0.1491005863158142 0.10892735653103822
Ni 0.2343654121477935 8.43770505896477 7.503799264536833 0.7160198345182894 0.790551230067961 -1.9287114937767171
Ni 0.33291497453078545 4.530523146890027 5.370562813168393 0.6205930835768473 0.16388237261067906 -0.43249040496622293
P 4.248281901438642 6.621374752383789 10.437190863236374 0.5921240296028769 -0.32765213090289375 0.13147850235867678
Ni 8.721415433636231 3.159404496568112 7.827454981976771 -2.030639021951154 0.5979146681427251 1.121946887173687
P 3.4428060733780264 8.34119169096578 3.714099966762122 1.3996360558948928 1.947265088409188 1.9801561827102543
Ni 5.2999912727924 5.377218810711313 5.379341094196108 -0.03982510241673786 -0.9411880505226436 -0.7596571115922659
P 6.455438010603092 3.369667767746834 4.757325818683275 1.478561466747202 0.5841281558815941 0.34397452221200114
P 1.6153309712485857 9.100123259531827 13.070716344599122 0.3403523520783816 -1.1836489921691744 0.053973883113294145
P 4.6541265091063035 5.793936846109713 0.8314709934960628 -0.8178226641894044 -1.0245954084057063 0.38182630295245207
Ni 3.386090199474411 0.9491042637224854 11.53545946610223 -0.20693446660514683 0.07711124046170591 -0.04596669653810148
