# total energy = -340865.4970377019 ev
CRYSTAL
PRIMVEC
9.32735573119397 0.00000000000000 0.00000000000000
0.00000000000000 9.32735573119397 0.00000000000000
0.00000000000000 0.00000000000000 13.65152793616863
PRIMCOORD
 96 1
Ni 1.523604914020464 3.727938908501304 6.0236548731540545 1.6906569087279981 0.3371958087272709 0.038050269904502214
Ni 7.521728948898833 5.202099509464844 11.640753625695265 0.15618448974578908 -1.034983950728882 -0.746172961062902
Ni 7.317693040934256 1.0584403532844 5.1139718537289935 0.65878810658933 0.8471782345333861 1.4680171155724524
Ni 5.800524002410731 6.8772179909813795 2.2722968397285244 0.38664095073227606 0.8582074957643542 -1.690749468441804
Ni 0.4232763386067785 7.075060534699626 8.407266242383418 1.1513934745695782 2.0998153238365 2.0489938703092583
Ni 4.988689608928637 5.27981503792934 3.568646326274148 0.5716714181754801 -1.740899349823318 -0.07399609187149192
Ni 0.35920020251789847 7.589799991473712 11.815165851662334 -0.611366936992889 -3.110178390692908 -0.05435620615337736
Ni 1.8558173452878617 1.7178284436911555 3.8279570774016447 1.8880037316447096 0.06696746715948468 0.8904290748022212
Ni 0.9952195357217076 7.7516109597648875 2.6164650756509618 -1.179021777809808 0.03524802456901672 -0.9930582570293736
Ni 7.777774192763317 1.917200673759399 11.633750646966131 -0.5072557709035715 -0.3342945759200759 -0.09713499188180046
Ni 6.689243789691775 3.161656483616944 9.577078954774572 -1.0743953626469689 0.08007675084793307 0.6823496959593539
Ni 3.0099656963608115 6.1675274707847745 6.558289579833898 0.35639500736354107 0.6118657310061785 -1.7617391693868047
Ni 6.7401338428965625 0.07213870243606087 0.6430363029666321 1.727499017257012 1.0764661291330686 -0.39982839595682756
Ni 4.7484075963537595 4.838052812877076 7.74058042880448 0.9082784442788164 0.7478032975774734 0.30164105155111276
Ni 6.912783198618817 5.79327664695983 6.628649555520297 -0.3688067507643326 -0.2535187421225892 0.2898098632441396
Ni 4.947938391470478 7.465177190727896 4.622666445648403 -0.6842111746481248 -0.4387345861037218 0.14405222525862932
Ni 2.0358726215094927 5.617968994836666 1.9305714382881862 0.07788874205767875 -0.1462911418914771 -0.06093565914310796
Ni 0.15438359487347572 8.745860450484157 4.812900665246572 0.46699229539783443 -0.4201406251516184 -0.4595862327417505
Ni 7.098873274038303 6.709614734742958 4.363028304332584 -0.2180765992648954 -0.5831490797977763 0.22021292888160784
Ni 3.230706898550053 6.432387065873328 8.993108132365 -0.7236410985089731 0.4112191542922724 1.1265854143869631
Ni 6.131104146414414 3.403337599560722 6.614383364835414 1.6978575402414953 -0.3400224795427886 -1.78800298817934
Ni 0.334826889096082 3.4533322266094135 13.174134541322024 -0.9362114232436586 0.9037221923667016 -1.0305300287225865
Ni 8.945092770215512 9.169369040250174 7.00323429868262 -0.3843853219288799 0.12267504513443388 0.918504749992515
Ni 3.1774756790413066 5.809767412001264 11.723017172844266 0.9678953846105007 0.7387103341372697 0.8061868797226889
P 8.360547382689111 7.286325143403519 6.0934552074928945 1.4282601473894887 0.4487811717064465 -0.011570992667051042
P 1.5450205229204261 9.221415685573252 9.175383319265284 -0.379780733277333 -1.6476570081277044 -0.20625929491499317
P 4.286647520482019 1.6585997344077241 10.051032682874064 -0.11978358251925178 -0.12265061965440166 1.3064623626536853
P 5.055119036884007 5.349835497864886 10.835300076310935 1.0701568990855894 0.15868385912887512 0.03886865204073951
P 5.573393561503512 1.0104511077311318 6.527328355015721 -0.06202914931760285 0.7216184116519894 -0.14267282841259943
P 1.7017201002372206 6.650441989594283 4.174159609622463 1.3539699213163456 -2.585998590340488 1.1054563457178317
P 1.0286767609500018 6.305423098823554 13.490863561973596 -0.3888965795356722 -0.8212900539127146 0.6103012147325361
P 3.993106306331016 6.351285707256094 0.7566975951849056 0.5379673410548154 -2.1811020358321342 -0.587667279383104
Ni 0.28188201941017 0.5691692415021901 2.7550555916962947 -1.7227879849345877 0.39394262660001184 -1.1913476463650126
Ni 5.62700720259976 2.1490973934766697 13.742038060643148 0.14774767183234555 -2.172072578640014 1.1267445656726467
Ni 4.811320611175294 2.391384787546971 8.164487296662843 -0.23902723337463347 -0.9290128486126904 -0.6451710300265275
Ni 7.561640704335653 8.18556618801869 11.530790630048784 -0.5315066730311363 -0.43384691899411737 -0.3588365269254981
Ni 4.984212478148157 0.48433694056788956 4.363915335868467 0.2909738016452537 0.5367360397508756 0.4160883094591157
Ni 5.231247496316926 3.162449308859321 11.759439564479049 -0.4436448789211456 0.9018650845533048 -1.5566538401752545
Ni 1.9709542251925352 1.604006720953248 10.551538594708541 1.0660122807895964 0.6891165823695422 -0.4830766025542067
Ni 6.437265272952893 8.237594178630182 6.4716020678324355 0.9408502075672507 0.9176943382760776 -0.08155924893073051
Ni 0.5781272340054668 5.784863372034844 6.729083724488991 -0.3895465544148452 -0.8975561727653056 -1.2780652995682313
Ni 2.4681489257206155 8.020471990488495 13.511408928578101 0.003141373842459106 0.00900091794702966 -0.07749459194305364
Ni 8.786145300152684 0.39000659322991693 9.349344101211988 1.0109359086407428 -0.8614432290928327 1.7635872783391369
Ni 7.598875508659976 7.754633023041711 8.93930701141732 -0.4637218521766788 -1.2885952525652775 -0.427927725296205
Ni 3.709694600570849 3.8641556124974032 9.79876688357677 -0.3463407084513326 -0.382082127717 0.8486846438755836
Ni 4.15120498701671 8.660627073250772 6.747104175880422 0.6531393929439848 0.41486909234003383 -0.5327366887834954
Ni 2.9035778761896585 4.383204307647701 4.041289560884771 -0.32010517179357134 -0.21892789152159714 0.2888865800989219
Ni 6.199604247355754 0.038733710400205575 9.703274347707032 -0.46111218246797364 1.7197625678447026 0.47315214435164316
Ni 4.698011893005983 0.32890868184563515 1.9793217960741363 2.4103217961980423 -2.060407511462839 1.230307572567978
Ni 4.837129404653601 8.218827538775338 0.08924040928191464 -0.033906165829141605 0.2707513039507918 -1.0299818695286003
Ni 3.6545139637014343 1.9836301017147686 1.2832249642097628 -2.9843025792329896 2.4795315224244847 -1.7652687798066178
Ni 9.164481505814816 2.402008645794818 6.677508110633442 -0.38776143748996444 -1.9580408388684534 0.5736658228976894
Ni 3.8020447502740384 1.0502695896100245 12.711784043828606 0.7783785992611691 -1.4685097389381547 -1.2359873965615746
Ni 6.4588114648339525 3.016979867916896 4.004416657965203 -0.6784948409896379 0.620204589889177 -0.8513053693278823
Ni 1.9825014916638561 8.385386131164982 6.841449446987663 -1.7288627303737583 -0.2825356981802295 0.45436252244896586
Ni 5.29975692461406 7.280672765793163 8.337301746582627 0.2778071823563087 0.23059401500561577 0.05897724986515649
P 8.871173475558631 5.7525161021458775 9.88788323902664 -0.7134343331793004 -0.06350110587743901 -0.4783887101602341
P 4.108728208736908 2.2506443159914284 3.2737451836485745 0.7872584182493023 1.0983706425156439 2.3579455965891714
P 1.5204056309835796 1.0471449254194811 5.903562369116738 -0.4872430752270705 0.10736849668435057 0.27040369080338594
P 8.705622237594595 2.472038433086157 9.478146490088497 -0.03590725541957041 0.7974402438783105 0.08166749237382064
P 6.028251394088681 0.1702587544325939 12.127239589037785 -1.1497682802613294 0.39320420577209053 0.04281992337900368
P 1.356738518889663 3.517821564559909 2.7659769925939277 -0.008850765522410563 3.9568748004938694 2.1740024486728755
P 7.633498653362353 7.789442714859942 1.606812389575682 1.86226750322087 -0.8410536096928871 -0.23247606251967706
P 7.489363024298281 5.093594379528756 2.8963631664840315 -3.376885092260681 -0.24603606059229882 1.433912203468943
Ni 9.00605636767638 2.8769109659784253 4.090721748379165 -0.3416253052535342 0.09707662784003926 -0.47975216616666405
Ni 2.6309392663700213 1.154306916121425 7.884166676612366 0.3150681235902961 1.1947304467943167 -0.3794236070482304
Ni 5.910558818696817 6.1484437008329795 13.052990844286873 -2.1835178443624783 -0.26706382779687554 -0.6567985869631269
Ni 1.0131467135552124 5.295736834267422 11.483378747819081 -0.853414445251085 -0.7582607454653716 -0.27047593880221804
Ni 6.573043591226738 5.548610777162399 9.230999543650217 0.1251571881263393 0.13473017652675506 1.1704782591151714
Ni 2.3151616360093015 8.0069846340123 10.816214440887979 0.5800840677192074 0.24615381711708575 0.12956637293762846
Ni 1.1520496960195996 3.6533946810063145 9.188420164456694 -0.00364016785574857 0.37671777808129314 -0.12409480830009595
Ni 5.029907194176429 7.792912491214814 10.96638207094317 -0.17487923794181495 -1.6642264824506114 1.1565637059166083
Ni 7.937374577731631 2.6886009798802846 1.5838092647198083 -0.3253193690046591 -0.2481600489138371 -0.6406476882348773
Ni 3.624591806318561 2.097927519598102 5.6711722322780345 -0.16402455461549817 0.01683918304452584 -0.13994231685531383
Ni 7.276606038667561 8.837585667349238 3.494244807322786 0.2868680070069962 -1.4140401471353645 -0.544600787210933
Ni 9.198656937439146 5.616560564111974 4.370236484889157 0.1945378927130069 -0.36432068996852096 -1.1180550083184486
Ni 3.84612583375018 8.869130784640037 9.295379751537938 -0.25020279037547877 1.3542211180952033 -0.7392083568196107
Ni 2.9964596851730305 4.103262378242405 0.2447992509852663 -0.30805775371073396 0.512189203649447 -0.7772216028385905
Ni 5.321405717408839 4.293185996892678 1.0710705257632498 0.10561500432835359 0.7949251907659407 0.45922962073328005
Ni 8.16188403166111 4.380107625524536 7.99926344888713 1.5705187710828048 -0.9825725270067014 0.7865043136920971
Ni 7.364049999223807 1.4819862524735867 7.95424030247593 -1.453448473729658 -0.01598326280213376 -1.1372549782856671
Ni 0.20380645501207695 8.637028863095326 0.4145804448012757 -1.4804090614789018 -0.2520431860183272 1.2868271049212612
Ni 8.051420157008563 6.329385075854915 -0.018032576953961866 1.722444228441924 0.5560625079936294 0.8521589755774291
Ni 0.7286297161336142 0.30869630184292723 12.07952736595156 0.6532106125015524 2.9337050687910957 -0.5327307752462245
Ni 2.7939068267794878 8.292905398480693 4.431627275245328 0.11201576564837482 2.5553865218815863 1.637462841203522
Ni 1.2030143680707288 2.2970292563483583 1.296794401416934 0.019668424963204836 -3.024787426720913 -2.3131942605154094
Ni 3.4163865703146623 7.662040362087913 2.32318969114005 0.48912820806492535 -0.7115769682555874 0.05244819049738709
Ni 9.00245600834041 4.767454056882384 1.7009664498891732 2.888583493862109 0.30554424326026086 -1.267459756138243
P 6.986142851928137 3.5167769007111302 13.190420104536017 1.5790491771513193 2.6312034690119006 -0.7602782901160325
P 2.3778414669360193 0.12493340169371098 1.7406655416139198 -1.178974983732273 -0.002819214616349983 -0.24165670057768057
P 6.750282005998984 1.26350227038617 2.6096533077155772 -0.8753348994732603 1.1214614628968365 0.4558262514786859
P 2.229890949352746 2.372403618508895 12.736561231756244 -0.8973533127258804 0.730899065622967 -0.13821145020713616
P 8.81394082041483 1.3976483013962975 -0.11008704947852394 0.03962301370826079 -0.6527529561388435 0.42255720501291094
P 4.996841717891427 5.472471571826864 5.654844695962972 -0.24268822716598848 -0.19957185559248855 0.17543331067307205
P 8.505830276515683 4.167807680327656 5.767784050842893 -1.030315341608619 0.03376372671400637 1.1729961404410185
P 2.7119193693619503 4.606818335421084 7.987877545671022 -2.1026288820258947 -0.9764592150201118 -0.7576367387281275
