# total energy = -340867.3200027302 ev
CRYSTAL
PRIMVEC
9.32864483271501 0.00000000000000 0.00000000000000
0.00000000000000 9.32864483271501 0.00000000000000
0.00000000000000 0.00000000000000 13.65341466655118
PRIMCOORD
 96 1
Ni 8.403597785910987 3.6518193060972926 7.242645133451879 0.9988175281106539 0.9213224219469682 -1.8567969670246023
Ni 8.210979926669381 0.4280336754102098 4.745162604873063 -0.38532917389938803 -0.4484471854057954 -1.2383978057752802
Ni 2.8478393767637695 2.7813634534319363 4.481473531837478 0.8200219858335683 -1.6941649218812567 1.5123509044928212
Ni 1.2737611562585547 4.420648901566889 5.553321767107606 0.5149816787929196 -0.4013335197474443 0.624767269559195
Ni 2.824368506275011 9.112630767774487 4.963890408236684 -0.3344136179964434 0.35433555373135106 0.013741260845492464
Ni 4.751461305888172 7.484847538762205 11.165421459801687 -0.35780422900624187 1.4049744373886708 0.032738627883601684
Ni 8.76081025520969 7.683995449411652 2.1084556488211073 -0.5606694106380214 -0.6591771144976325 -1.6777396864456977
Ni 5.417964995796881 2.4033201201422187 4.737379716459403 -1.057761867855346 0.09104276294113353 -0.3189273494353862
Ni 3.7429508378161636 3.111270979200989 6.945560444652101 -0.754046707384024 -0.34869892427086396 -0.7961819459911771
Ni 7.6622970214478805 1.1789821243961605 6.963896829005322 0.005676224449170869 0.9953956469132987 0.12150005098972622
Ni 6.041976708330275 4.90796798084441 5.865343482070579 -0.5457616402882536 -0.27370575859342544 0.019234422749579778
Ni 6.699123767436034 1.6677751295628807 13.14120698703415 -1.4789679581570012 0.4088568247076829 -0.8195684432359175
Ni 5.75088567385841 0.2563586238980401 3.419170365996641 -0.3762544652916294 1.2568516416050934 1.361675003270087
Ni 0.8470493498261896 0.32206679975720814 11.161652687274874 0.11582434076118762 -1.0918140723440488 -0.010753896082394382
Ni 2.1978473882720317 5.508947269197859 9.392825945040125 0.1352487680343864 -0.6850899777086524 1.174318458796868
Ni 1.2159422153645467 5.993215881603431 3.720582613150844 -0.05033268681628106 1.4294713940887704 0.08739359622432046
Ni 0.1647121509824363 0.862065669470766 8.552007197121503 1.286476920670694 0.1415507989930143 2.226555283068927
Ni 3.525481468645284 0.6173296042141981 12.893411126260766 1.0674248448664068 -2.211378318218172 0.13631269052252654
Ni 8.343474669734498 5.400725660080178 1.384224438738099 1.6476377248539948 -0.3374917427011349 1.8622106818410058
Ni 4.023948278540479 7.207656185144175 3.993241178227345 0.7256810117571373 -0.12349317016035506 -0.9147383409715472
Ni 9.329297873486688 2.1493757495361066 12.656291899539202 -0.8822079724440096 -1.184594129691263 -1.9429016692341703
Ni 0.16627749759134475 9.134012021812735 0.15269965498546725 -0.38749224298897783 -0.8839486092842003 -0.16769480437823378
Ni 1.8808413783559013 5.279509248660891 12.71504277205556 0.8537746568039812 0.10665758666025502 -1.3199974210256429
Ni 5.391257085538807 6.553680865293653 7.830724771681379 1.2226703677376942 3.0276629484964954 -1.5105472756251792
P 1.598901744499883 1.274740663969731 0.42955237879477653 0.92006643805268 1.1370243503320998 -0.12344560475187126
P 3.6240852449037004 0.6336351425795799 3.1029162448568988 0.0830502316539602 -0.14192206628950396 -0.29071000646090583
P 5.462761148454678 5.758787036061898 10.093027498806759 -0.9435704347118911 0.6971847040896573 -0.20003234016867485
P 7.51617312823011 0.14603340536254727 9.6643100337277 0.31145829475185066 1.2370325499966375 -0.10952513801603718
P 2.5286411353035776 5.051209322797861 7.30151821121601 0.4213927523911646 0.21291690944082683 -0.5736244281367927
P 4.541995914014333 3.3901601461850586 2.874958680260538 -0.9964688253728194 1.405642924210605 0.6263906640952309
P 7.318377871086573 2.9306404286152077 5.3576954198959585 1.9850315085246844 0.10356172134375068 0.0024908847426537745
P 7.609692793035277 3.1472422338133312 10.988555017420282 -0.25129473788807694 0.49574905581555273 2.4485474153381444
Ni 4.411851989456038 4.749548933690161 8.447244649521005 -1.1695403206819341 -0.2722286598272667 0.4158808214339999
Ni 2.6887953104033397 1.0388845357633416 8.01976975993841 -0.6752354535120758 -0.8729005790001547 -0.12073797601272108
Ni 2.4374443030706283 6.6752331079282 5.760007222810679 1.0605240039815154 0.07734032575337647 0.9942723319421327
Ni 0.37893328601015797 5.8712811645292815 7.537462961548649 -0.4926809584131902 -1.7522104039607629 0.9432680729801238
Ni 5.35435296643963 8.841353775002988 9.004208592792136 0.2163745289721241 0.030766334648579273 -0.46488219103336714
Ni 4.590458224105389 8.464383235873129 1.44257884384755 0.9925018703052713 -0.14222597068316795 -0.7115587134231423
Ni 1.3925707773018081 5.9011887999771995 1.2256356102472452 1.0699787216365122 -0.4984338017365673 1.9168175705526083
Ni 6.114740138303373 5.599369823906736 3.4943051374952723 -0.49639414559871925 -0.3930409407213489 -0.6077704778908823
Ni 6.649999123559325 5.727461446593993 11.821850213252583 0.5117127782336606 0.5974670390823452 0.5359994186951672
Ni 6.953534570285563 5.1031045742004695 8.825840238586927 2.8046837697236597 -0.08104965628416363 -1.093270345174601
Ni 3.253243625452346 0.4085825179952218 10.631490873574988 -0.9700360851025874 -0.38671217028984367 -1.4488845085080597
Ni 8.309602360217534 5.119224472532972 5.11327186424248 0.12654095584774336 -0.20736744037750737 -0.4557529750385893
Ni 7.329590902218324 7.432420554602101 4.438206344073603 0.8734183991768376 -0.5185352004721329 -0.8071687840199839
Ni 6.132361948459678 2.9504637989604428 7.237374449101264 -0.9462163569751704 -0.3418109389017791 0.1263409240217953
Ni 8.762125594136126 4.722374591188668 12.534694879409287 -0.5861192181696938 0.055360736158491755 -0.03511407009431372
Ni 0.9927637155342395 3.4881109173026905 0.4309600713054099 0.9396348471029108 0.9443669624712574 1.285222993658935
Ni 8.495326350901433 8.309602360217534 7.744804220985967 -1.5299385356675974 -0.578001731268882 0.6434944136550531
Ni 7.555437394480978 3.351213053859714 3.008365764793779 0.3273533687155523 0.8231538465943307 2.1733429607120054
Ni 7.331465959836861 7.419724268936282 9.923765767722031 -1.4879336519907211 -0.9679447497911976 -1.2654308986336724
Ni 5.543136752640346 3.6316414472470604 12.207013168305823 -0.17843430228292495 -0.252906562459887 -0.16999594170758464
Ni 0.738042268810594 3.7083695512892056 10.812166201656138 -0.03604660921091212 0.5022542039239221 0.6602814033054049
Ni 2.9411071681574916 2.7298786624035354 12.470427979182281 -0.7561449846739493 1.114948858589299 -0.6741368211312583
Ni 4.11863402395419 4.051971527724991 0.5268072330052299 0.1912247691793739 0.7552533260976154 1.2885397167369936
Ni 3.5120575486797345 2.9364708316579238 9.83993390061264 -0.16496454993126428 0.896758873674991 0.20143796226694985
P 5.919062483544949 8.875449971996792 12.79132403400851 -0.7717037583441548 -0.03243832303436349 0.03300910793616896
P 6.795283438738943 4.83465416082408 0.3271275895982858 -3.0287667230836353 -1.6689357150008224 -2.457600783789664
P 7.370608953704441 6.399273135432791 6.736608128246021 1.232349285588355 0.25126928396678017 0.37222528952757833
P 6.6207724791867975 7.967586253409369 2.5096750674217434 -0.449652004347174 -2.026955659562296 -0.6890826438078133
P 0.04703316169722638 6.854641606036228 13.629480386681706 -0.34017700284278185 0.5186879239999133 -0.7503905986886754
P 0.06048786619084168 5.5081450057391805 9.942566718589696 -1.6975034993361862 -0.036026297495937956 -0.0492394537521023
P 0.45668847385230793 8.458422231802256 3.6361359883446296 1.254045539614866 1.0593829483985369 2.6220256591673747
P 3.453949419794808 4.558880761226038 11.311608787804563 0.12926863919155157 0.6396958658445693 0.9877962372994858
Ni 5.912103314473164 2.231868956106889 1.7939086696922726 -0.35632173092344444 0.020269548882313478 -0.14174028929600105
Ni 5.305601468357654 1.2670911751776874 10.709302033286347 2.0139067967981386 -0.49513044839494724 1.7341877421310972
Ni 6.685615889666669 7.104686603087373 0.43910864259791005 0.6141509274959294 0.768876830418321 0.013573367809060493
Ni 7.952940280966065 0.17733380748930833 12.012656449660755 -0.6036446286479669 -0.8448675841223384 -1.4450031711757823
Ni 2.6358365934857404 7.7974597569453445 13.503882310767755 -1.0122248026554954 -0.3018084303669125 -0.7239231485257662
Ni 0.5782481794027498 0.5446837151664411 6.349343429503944 0.3136388473429373 -0.04708384086168021 -1.6378006841589148
Ni 3.2505289897956566 7.481022794366183 8.477036609772554 -0.3986773130715198 0.5869021190823054 0.1532056096231232
Ni 0.47149303325837283 7.435984096941809 9.359005875934423 2.2142368707128894 1.6795697976759008 1.3307135218915662
Ni 3.686092747343596 1.7906333824789964 1.142280436890627 -0.5406078640014561 -0.22635683699581663 1.0949130229843465
Ni 2.202894185145807 3.2841774118357807 2.443496727861211 -0.18946356351389304 0.4263917482676528 -1.1009810835552976
Ni 0.23786178685308387 7.432345925443154 5.9454205696204605 -0.6113432828438051 0.49038316351794903 -3.6349271761749202
Ni 4.505278367812523 6.33391664948516 13.307395862499249 0.6690141551927123 -0.5641524840906155 -1.148085493242268
Ni 2.405754896452857 8.27837938584318 2.2796148262720575 -1.6505554127214221 -0.18915323136232584 0.9249469060734328
Ni 8.05047126306462 2.502707502569576 9.067928834429859 -0.1594528760844157 -0.6744618085708449 0.6343816527205074
Ni 1.4112280670385 3.2255841934177 8.407854446564414 -0.7910176281814183 0.6351848653480932 -1.1942949019187947
Ni 5.84562739114133 3.2264797433250614 9.533032678817902 0.48928761646092506 0.36200309757893784 1.5446071934233658
Ni 6.800563451734428 8.545383859264977 6.290687709165245 -2.26337682277265 -0.5785583751033003 0.43174684193197904
Ni 0.1464084168862548 2.3938328883111106 4.345704434423571 0.4909287516087739 1.4604488163068914 0.9991507430803566
Ni 4.787628462042748 0.6962238195947731 6.676383329840467 0.3519009761479294 0.5394817208168129 -0.4557578601345958
Ni 0.21032922438864776 1.220391978966748 2.2974054849004797 0.28042945047050416 -0.726206288132988 -0.49448433017051613
Ni 8.695854900991396 7.198924573547402 11.590847778971193 1.6162358135039456 -0.4747295161410921 1.7086659437109089
Ni 7.2340655787664625 0.42607559285234403 1.4477804962261398 1.116831934544625 -0.7727314282777208 -0.4553413414224674
Ni 3.891798695335491 4.92150384454838 4.780701943228001 -0.004435924284166554 -0.4292081346705253 -0.27496611336308774
Ni 8.096759998901355 2.748825140131146 0.903556683251708 0.1783258017295187 0.9795383681660678 -0.22245313106603626
P 3.5634863678389253 6.1981848666507275 1.5052617401759136 -0.5740723143074888 0.7531383366371417 1.0952601219111202
P 1.7271612827947709 2.0105188706707775 10.144241759133978 -1.7506980810812947 -3.0920454285376233 0.46140683089025697
P 4.691608720412863 7.994471407919941 5.945912189205023 -0.7518730967714728 -0.6641784243669658 0.2850412382109026
P 0.3100822896948442 4.2379380631754655 2.954640233268001 -0.5091455317271167 -0.5084719026988598 -0.34307926409124145
P 4.674947760677998 1.6280257737788588 8.644646237851099 1.4198683237813676 -0.8694627569631994 -0.9415374634422624
P 1.7237656560626928 2.2478302674766293 6.345083037392571 0.22316532664171243 1.2536621881335184 -0.9038654028127853
P 1.5273137237801966 8.349808819600105 7.457412927068886 0.206740862537102 -0.750895563349552 0.7695910828765262
P 2.261207544217837 7.8187570531797785 10.992842462601775 0.2632670797586047 0.07469723170357458 0.15926775665680312
