# total energy = -381166.2947493515 ev
CRYSTAL
PRIMVEC
9.26668613038452 0.00000000000000 0.00000000000000
0.00000000000000 9.26668613038452 0.00000000000000
0.00000000000000 0.00000000000000 13.56273184281123
PRIMCOORD
 96 1
Ni 8.297724383804256 1.5285862146824911 4.776062090930466 0.11799846559437098 -1.148771720676015 -0.005416800140197123
Ni 3.332782208984192 1.2728442101794002 11.473596576133275 2.010591616381976 -0.7873496924115279 -0.7633093636328725
Ni 7.927297871448051 1.6645470339472697 0.15635957549757257 0.6106061475674646 -1.0362260506660992 0.7738233757903189
Ni 6.836312377058678 2.93591784102804 7.352031261637652 0.2637879852590812 1.3842276917596226 -0.91999470427448
Ni 7.039855138451185 5.759680979523254 1.4127081576526248 -2.0149475793578264 1.1759781058874779 -3.51330988288104
Ni 1.1208983572974092 1.1588825038463684 12.634037736590898 -0.7617613024194623 0.5216441784147596 0.37350672734316315
Ni 3.5889968144811832 7.007736804238282 4.111352499684301 -1.123092570742356 -0.49139900637697304 0.8658547278969669
Ni 5.316714847946445 5.756039171864376 11.304970688172453 -0.15589215531635087 -1.227366230551467 -0.8331865482399844
Ni 8.96311878315727 8.083080132398173 0.13134693622825072 -0.768742875943618 -0.24725244949790318 0.587985067733839
Ni 2.9986533062967524 3.7707999301542805 8.770693265144805 1.3813303156071695 2.606044967468402 -0.27763517555481865
Ni 7.483729405271173 6.208244189537626 10.474456914899635 -0.9596627122880633 0.9327977695764194 -0.5653755578644393
Ni 1.0037674442993996 5.093610112080933 6.8409058733856645 0.8094413821042445 0.6225628057087085 0.643286411409305
Ni 2.247097259075425 8.589198730120666 10.526103863515388 -1.1690808645470123 -0.5626864410680503 -0.7339275680366456
Ni 6.174976786241515 9.089961183245622 12.744980356574661 0.21228184695998925 0.2513093931760962 -0.061950473560867504
Ni 3.1837182954963765 1.538844436255972 8.71097688622536 0.02605787342931641 -2.483691567339445 0.3874721883843198
Ni 4.194732288368913 3.6989831124537607 1.7314858680558474 0.5286625187141217 -1.003396148620272 -0.8092788883844514
Ni 4.490246909848859 2.8493299255966 7.2081715190944315 1.2162500660336475 -1.2770756819614524 0.6478745450006197
Ni 9.153095116018994 5.467539431803693 1.0779500469752672 0.5401136979738569 -0.661175890095216 0.31206224688443673
Ni 8.800349440846349 0.970555641120217 2.2819298056631 -0.7228813375248131 0.1299425253301246 -0.21607833788794398
Ni 2.2261452816791825 6.351989025172525 8.634876079515427 -1.6783657500654707 -2.862440002697522 0.6707815315057802
Ni 3.5657466989185247 5.163999860113598 13.258356622893675 0.6448077331498379 -0.3229048460258955 -0.6532504646005524
Ni 3.7389132630952493 6.147130394346022 1.9683729462395514 0.29148416562276896 0.7408178673985758 -0.7439512708212348
Ni 5.1515269005490945 4.851063868662428 3.4625111818097962 0.742821785202482 -0.8308391310537305 -0.23006385353375863
Ni 1.1098710007730712 9.2262092697812 3.6009999530576327 -0.18818006881577914 -1.137372734810454 0.717466594267145
P 2.560061050585059 6.702797962938795 6.0909418428457505 -0.6433715149239436 -0.21441689102512104 -0.025816961063103924
Ni 3.870157339107181 8.663888220529206 2.3121605159062493 -1.4857289310299187 -0.5366501649052887 1.73491742120827
P 8.588865129419089 1.1954395807274718 7.0008785298150356 -1.1163223418980581 -0.5240633293792135 -1.4172429703433786
Ni 4.250647472627614 2.9096467857788815 5.063673155788894 0.4968384322249895 0.570631921167372 -1.9658569924787626
P 6.345669145214879 2.861487817831836 3.309957434316043 -1.1455059054405496 -0.8406054664118748 3.3124738158641467
P 7.403637436834323 6.1165225299763675 12.58003056301149 -0.03268154939342113 -0.3436557054200017 1.3380753615732763
P 0.37510989553889507 2.847606321971787 1.0883945289404615 0.25840640923219366 0.3265714962442053 -0.7126689157681855
Ni 4.375469735134195 7.688578769411523 11.37188913557149 -0.6336092933308571 1.730892102098961 1.000236777055684
Ni 7.153594444316499 9.043182951535657 3.679026377150555 -0.036107030135202334 1.2293832609814956 0.8455615248655695
Ni 6.4937785900287395 4.357622097599847 5.444948177626649 -0.9818245930970833 -2.868700124674621 -0.13413368059333672
Ni 0.9117223773913354 0.8490703122980171 8.402885518295975 0.08607513452321305 -1.0669977846313172 0.9128946028945891
Ni 7.149202035079074 3.567368368995633 1.6583698609564093 1.2318507486853818 -0.6271702225737328 -1.8453470733164477
Ni 5.274190025181583 2.346751201985282 9.468835206700637 -0.19122168385558033 0.6875880615401577 -0.08541076146633678
Ni 2.03698441719909 2.6548221832051264 6.891264752625886 0.5754838499430348 -0.07815330857297507 -2.2552379957156
Ni 1.5391409702129288 6.5429198267082045 13.5245394026875 0.9766584755151115 0.49156844207530176 0.017789205662620974
Ni 6.160270555313678 0.3407091765260381 10.424614190078245 -0.20341334082576581 -0.6410179270901025 -0.3895187865007033
Ni 7.160488858815749 7.886487385621846 8.797248807658917 0.6583271077925114 -0.17001831030508785 -0.23143296596714336
Ni 5.855730181518854 6.996876248064732 2.7878334162667984 -0.39744318355410263 1.0922457605648286 0.6854208786855098
Ni 2.140011433869333 4.691815867090371 1.4615880737825222 -1.905399301413338 -1.5097736306839482 0.5329166660047855
Ni 0.3819394432350607 7.185295777652432 9.857610684312174 -0.5904666965051122 0.7398259357989516 -0.31815961803142623
Ni 3.913349363275197 4.995281305291227 6.682696667331574 -0.5009339424506019 0.8813237700668435 -0.10536123644633466
Ni 2.5405083427982076 8.234062249920054 7.728559886826864 1.308794610331288 2.903846333558451 -0.997873933250462
Ni 8.345169816917375 8.716226463932115 11.606484562269088 0.14093347712398954 -2.5467573854516785 -0.8638760069040412
Ni 4.890882819070058 1.38604604824773 2.6067299353983957 0.22400736292703355 1.0189058142200969 0.8544873666002897
Ni 8.997201654835013 3.584252271169871 10.424342676173906 0.13637851076345545 0.02169265448208522 0.9198170410460351
Ni 0.6625940067970006 5.376364506725574 4.515887830439484 -0.111248291354731 1.364125778803425 -1.4783475509641828
Ni 8.451755241071103 7.567379781191509 2.759988877708537 1.0963605540641506 -0.19083267594727782 -0.9000933373648627
Ni 0.1550270260284971 3.0245629607858686 8.070950966890017 -1.4840194045379795 0.4462121254276896 -0.3372243479723611
Ni 7.460785090351627 8.54113242903517 6.002078029294665 0.00974268120906064 0.1295339770377963 1.1638602395780213
Ni 8.166758308376972 1.6292502263832334 11.46859163894101 -2.0503043615905656 2.2262470077998886 -0.2072293721377463
Ni 8.809254726241214 3.568220904121884 5.664854980100103 -0.45190634759898946 0.08329628622649525 1.3681963493283726
Ni 9.137110082401783 3.2147709608014656 3.241750917541474 -0.17427348603701598 0.36681543136591666 -0.6639894482846114
P 1.4587895345637405 3.457011403576859 4.682139593407419 0.7582203791457393 -2.638813934369307 0.4633045621336021
Ni 0.30453388711451673 7.50140097576858 5.301292302178836 0.6036040052180186 0.4279701484983662 -0.6842381712313184
P 1.0771225319016342 4.566159602829848 9.189822699925347 0.5309369165705953 1.7911317636163087 0.16072505792862
Ni 0.2825366275200013 7.844490763967813 7.599211774802225 -1.1833098636622008 -0.3231485866055854 -0.13014461403860167
P 1.168844191462892 6.794927356690869 2.33661437400043 1.058797765319028 0.13833563448982625 -0.21612127531073747
P 4.14622118634798 9.044702688065062 9.683288564371932 1.0353631884451717 0.16212425226899174 -0.5286895152973153
P 5.914805305756378 2.116594517955886 11.783450467769324 -0.847361811299102 -0.27406031371936673 0.4392094688576113
Ni 6.714233053653949 3.810489146955742 10.698310399006465 1.1589391481273204 -0.3720314283492173 0.785228532303467
Ni 3.0299191053834047 4.713944713628286 4.3208426202510255 -0.05455212421426734 0.7263597829917168 -0.5319522452089871
Ni 5.976493635489586 0.4812940721821145 7.858437126630946 -0.9430454154463564 0.3873513465357393 -0.02984716526841957
Ni 2.28741661053542 5.962343405731045 11.375606003388222 1.8772565204305345 0.1440851353790938 -1.0907036128886893
Ni 3.3094672266184486 1.7849583538441158 0.0922443006603946 -0.4192975604250327 -0.14300347227914084 1.5990109649852269
Ni 8.524637727679437 3.8264649138867997 12.911748273961424 -1.3352008682389584 0.5539531749601105 -0.17880891201352433
Ni 1.4481328454855988 9.152372314498912 1.3552204167534356 0.5885067445652639 -0.6935931300836571 -0.6436612782502206
Ni 2.05466525438265 2.7636779454668052 10.505081459304368 -2.606766161905143 -0.3263267272232509 0.09495598195261067
Ni 5.504967577183358 6.640488765233208 -0.05863588331378213 -0.890892387591885 1.4253545437069195 0.35414863453152556
Ni 5.154927774367945 8.519364983257296 4.542484146372679 -0.012166717269520982 0.7282261467764941 0.06930794236720322
Ni 4.060476539356637 3.671044053696719 11.188697870312387 0.4361449709996747 0.2277416331584852 0.6986450906852678
Ni 7.578675871614339 1.6463843290836542 8.907730873340782 2.156859875455318 -0.9002499175473851 2.551529610029341
Ni 1.5125177808898846 3.7555006313125308 12.585536827924736 1.1607790295495364 0.29019938537307444 0.7811471631452418
Ni 6.449233629682107 8.87509453137182 1.5495418987531953 0.16744926402633098 0.5428886896158327 -1.063160156052782
Ni 3.0431426665264554 1.0773078656247321 4.4307816581242125 0.6467581720079894 -0.8941510037384988 0.7107578147884018
Ni 1.1765448076576186 0.46587152641450474 5.852142120639673 -0.09326676717564583 0.06721095062885844 1.3116809307401476
Ni 4.277131661658335 6.854160014593027 9.065208011188636 1.8495441421169307 0.2642471842836869 0.5111548488476616
Ni 5.668626521365149 1.9853689753162642 0.4185827002974048 -0.4252578917735257 -0.5163338219454399 -0.08180427506200105
Ni 6.0080281684747305 1.3185382396092409 5.5645041823913965 -0.35690228601726276 0.06355021394781958 -0.35791787176597073
Ni 1.9669746032987763 1.980958032706529 2.4945251927603342 0.2923213168120837 0.7195957247950059 -0.49218730660622334
Ni 5.896299733505031 6.295981174052275 7.401074271443877 1.3832283039608309 -2.4829330919068653 0.4136141368870102
Ni 7.926843803826461 5.365550283982799 3.264752685915181 -0.1372251750344669 -0.8943824030230145 3.1661140255182634
Ni 4.913493533288029 8.07306284466472 6.7670846714698385 -1.3887921712018534 0.606156339326227 -0.3056848826031832
Ni 2.6185987070255994 8.618759458954814 12.903176589268137 -0.12544515168040332 -0.48056489187594653 0.13570770994867595
Ni 5.897578536194407 4.142727645667581 13.02412908363643 0.12119383260321709 0.41875557187863366 0.5811353918018572
P 4.417938957782129 8.775783455849695 0.4044760239637916 1.196474683178933 0.3725415352164165 -1.7836025451187993
Ni 8.19213976175526 5.1188432984807415 8.599816499116956 -0.28225699059754616 0.19791272272251076 -1.0554054518080274
P 0.5066764522290171 0.7786425708521173 10.560852083259054 1.593036492569347 -0.6577113285853834 -1.029515214304827
Ni 0.10443277295994224 5.823398713524386 11.616385089756987 -0.4509838357847201 -0.8663308962024371 1.8419496175991243
P 6.095468619032422 6.2234137547732065 4.79658224075189 0.39653147037311065 2.825875316199611 0.9827861856794042
P 5.659359835210243 4.793786481538955 9.216879570160442 -0.8358514966666573 0.9810306364408781 -1.3983415054531851
P 3.714680878800171 0.676221595456405 6.685260759390635 -0.10752199154307934 0.9021108820155237 -1.2469960889672522
Ni 7.977931044598456 5.8732998184685545 6.273916267648828 0.5664461652207986 1.0616550322621652 -0.2085408918603183
