# total energy = -381172.4692286811 ev
CRYSTAL
PRIMVEC
9.17958863753673 0.00000000000000 0.00000000000000
0.00000000000000 9.17958863753673 0.00000000000000
0.00000000000000 0.00000000000000 13.43525585807459
PRIMCOORD
 96 1
Ni 1.0040725532025938 1.9947520870039883 1.3583174573848988 -0.7612236847484374 0.07336385760413171 0.3794801713177787
Ni 1.3717609645220177 5.898417930360412 5.6745011497219515 0.9453311261567398 1.5072858312650879 -1.761044200202309
Ni 6.406425529182738 1.8620152394773657 8.119730519447376 0.1012677831032514 0.233375691515811 -1.3596201776235874
Ni 6.286631901228214 5.172936703961793 5.468028340823105 -0.6795410228659652 0.4765956228155534 -0.9686248065773577
Ni 6.452479523929699 1.6943500582827762 3.261287430281353 0.022107887642632894 -1.7326643635080354 -0.25066687449609093
Ni 8.881912658024154 8.113590292800726 2.4657586011091412 -0.2861930924271587 1.1464898666203738 0.9765211786062988
Ni 3.789352429646256 7.289547826298833 11.251368197763878 -1.2564014414415523 -0.4894483104085054 -0.0085453184668498
Ni 7.621353226761993 3.519169605769971 4.079440272898525 1.0164838350421657 1.110217257441585 0.14371798184766216
Ni 1.4401856160755062 8.496755490076573 3.9855147249114986 0.5297614082052554 0.12724698077583246 -0.30638936486937557
Ni 4.729525868351421 6.030548925056 7.456700786463546 0.3602907428735215 0.14879848169436308 0.18449619220628868
Ni 0.6145504909950599 3.8744563932298877 5.889746891205942 -2.2499129839582603 -1.9205230444286538 -0.20979276198954835
Ni 6.430861593367791 5.100987090482286 2.5309336783870817 1.8136854805471088 1.042110020250702 -0.21460586710747556
Ni 2.278961321877554 3.964572412052077 1.5842721066368395 -0.0629442049327045 0.8937105737669706 1.687719937586861
Ni 2.879618505906394 5.924763348922059 9.019933276604466 0.4034490234285504 0.07475970951039383 -0.02723698133908212
Ni 5.191800758018999 3.5457261548636443 7.131729589526221 -1.9200905848769256 0.31251450393050695 -3.02940667066048
Ni 5.331422296807376 7.442645000783549 5.468524956552787 2.438907321145219 -0.44385545227005496 0.5796652350142338
Ni 4.20273683176703 8.588477936859839 7.603226293649211 1.1831342573162849 -0.04220105884808216 -2.0779671176131567
Ni 8.946738910944834 8.765451220640319 11.12029377368726 1.909782260972382 -2.506859006594844 -0.058140355786157935
Ni 0.9194275690364121 2.721757125068543 10.675493148400848 0.7500226738262954 -0.3433134915892346 1.2421768132017381
Ni 0.1893253378629032 1.0745167141928638 5.852867895013811 0.6617965543983505 -0.4287345374682165 -2.3305785174301286
Ni 4.008634436127305 8.242912333461518 0.10907921243356508 0.11456398599152529 -0.31476756163074177 -0.14964977395106482
Ni 6.45247034434135 0.04094647178957488 6.866342182603456 -0.5933684435329394 -2.2130464499492146 -0.4541277807303405
Ni 7.904323217208442 2.781865069577832 9.99545363820631 -0.5751863733072738 -2.239621629334582 -0.41922017021987806
Ni 2.527728166135609 1.4208258642474532 3.1335451967754246 0.22301825954088686 0.3884931734496664 -0.028215286091951404
P 1.0246164719276685 8.235853230021133 6.064432621569851 -1.1969356819757515 -0.986418640225669 0.14234475564921936
Ni 4.904911083347525 2.666027844201729 4.620088651972244 0.39977260301822765 -0.8743985037019198 0.7284230932786487
P 1.458856898777384 7.3998681190771824 9.664798440163281 -0.8235773072849946 1.363983853908922 -0.1098185008867399
Ni 6.201408602996044 4.581275516514979 11.163219364724881 -1.7271190082097738 1.0124528595059015 2.004689134854612
P 3.1101822264683703 8.270184890446414 2.1128015931722017 -0.5214981397551987 -0.01617121044322376 0.9042986336954619
P 7.539774225104378 3.925852908395971 6.631332787404057 1.0747494035522782 -1.361081335550146 -0.20172206916627197
P 4.833438808462165 6.000605107861544 12.810193567538438 -0.7420509684747284 -0.8718256007684211 -2.2016178963972983
Ni 6.413126628677511 2.9312077924278057 1.289508181079587 0.008897045379313708 -0.25129988009439946 -0.014064962733498358
Ni 7.492361651281764 8.84835208302019 4.6025418688431206 -0.24029658700536033 0.25329479903724117 -0.8335362182699193
Ni 8.574625938041189 1.9997641422425452 7.717318479280168 0.42925107209331875 2.950533196092028 0.8847358810721859
Ni 6.072958623228407 7.974033011130793 11.743192182326906 0.28359370713109866 0.4993210894375272 0.17662938786370228
Ni 8.64506091944311 9.012483122700413 7.713314342842332 0.513283208044574 -2.858632970246606 -0.21293722115580102
Ni 7.0507224762227505 1.9109975229076601 5.711555476051547 -0.06871735997105585 0.5591681435021467 -0.4458056340178903
Ni 1.3068979932479432 5.565575236413815 10.787206902690578 -0.8937861641999124 -0.2589304000564637 0.7962040574783643
Ni 8.110120408404802 6.457096856869249 12.065437041524575 -0.16200058220693392 0.5883385944185158 -0.16766240847840155
Ni 2.5094516057327385 5.895884363976087 12.94846937867485 -0.08936948900376866 0.14853365806875063 -0.7379374605269872
Ni 3.5378959660019427 1.3921855485985553 8.794328369668621 -0.4404888497906672 1.1424092687930971 -0.25250135660166834
Ni 3.1920825137181996 1.3762222444596344 0.047355660374850665 -1.5402702566109086 0.8752369404428152 0.1293671124426288
Ni 7.701894934936169 1.1791181234297838 11.819047710648915 -0.49246190042384863 1.1517269466495972 -0.307805785600928
Ni 8.100472661049997 4.865585726860384 10.284930120874538 2.4177417428111974 1.7425980776819794 -0.8798219887103363
Ni 8.643794136250946 4.02658971093796 1.5658523446557246 0.6761168276757645 -0.13253342598575238 0.6237419136184742
Ni 8.1706047160364 7.044140711376514 6.050137248633944 -0.4851859355877256 -0.07999653242930094 -1.0264651146245936
Ni 0.01670226100101589 5.632448537536321 3.552321689092405 -0.027398446617610876 0.12337464230461977 -0.3162330904326747
Ni 8.409329090640643 3.3928768292643503 12.628750742190824 -0.2844817661630068 -1.0744177312444723 -0.7748937260363622
Ni 8.288231961140559 6.434570147060788 1.1931986939983237 0.3299213865530447 -1.3711328062488772 -0.6623490844677109
Ni 7.277531745149984 0.1754825186326026 9.679966791951179 -0.9046663014475259 0.7034173152629305 -0.5408372064034428
Ni 1.5670658862354632 6.7013014457178475 1.4266227742898503 -1.3705455662868395 0.7359924209854743 -0.4105054160546995
Ni 8.081553529462695 7.144179865203977 9.528672488618206 1.3006046183213278 0.11676922117296018 1.2165061479085113
Ni 7.983350293305033 8.603128559864851 0.09756892660274681 0.9800729005132992 -1.4588822431507196 -0.13311115286609332
Ni 0.887956268340681 0.7467347273030723 9.377835328785014 -0.906286096439136 0.9941224366278297 0.8265585014005055
Ni 0.5141606768926636 6.401936710480073 7.67607183495158 0.7837997702767404 0.2752602475647388 2.1774217587670694
Ni 8.843413464488425 1.4534225824747724 3.336914386853472 0.42862886512828763 0.07499367989807083 0.18123397651524917
P 3.913267692769484 5.24238946941037 5.7037766928846 -0.5613628371606203 -0.08181944457065264 -1.7928595449406928
Ni 1.7356765650300001 2.1656852016508235 7.313172414873833 0.09062058780205037 0.11343578592435304 0.892146057493328
P 0.32104049720628147 5.158157566719893 13.029134093332903 0.5070454546649783 1.330906868849295 0.9566961734605717
Ni 4.549587577534211 0.8264686317025359 1.818139561045623 0.22146171368704437 0.07456327722887159 1.3417970333992375
P 6.348373812463626 7.526684132118697 8.312540429047562 0.20343930896769477 3.0732051559026683 -2.328637334543357
P 4.6493054457694605 1.5362591877362 6.519645653920539 0.31653288106128064 -1.4655537416336244 0.23378475402877155
P 4.274493673891208 3.031100072841686 1.8192815018362394 0.00983215559907339 -0.8532352393607433 1.8284356422730899
Ni 4.750547125670644 8.720709907027267 9.684871446006053 1.2427329428155243 0.76927869384243 1.995925272619053
Ni 5.569292969695161 6.339910232005842 9.661050414240384 -1.306191882601118 -0.9687204516149575 2.7906440038011424
Ni 6.7463273265697214 4.927300099330749 0.14781982914287387 -0.38034226220775785 -0.7355867009066234 -1.4098873013092557
Ni 2.508965087550241 4.375248835609894 7.190064955525318 1.5467664058582136 0.10787089024206584 0.2098773512835547
Ni 0.7785401650147074 1.0248184228713468 12.79198860792469 -1.1851451170987266 1.4742463843116158 -0.009349816646016154
Ni 3.1345173151815846 7.5753267707800775 5.752828741186347 -0.9681437531758811 -0.62483334691044 -0.5403376410592049
Ni 3.974614881705889 5.898096644768197 1.4155118005522138 0.23928871456613632 -0.22179467154643095 -0.2893493786679533
Ni 6.051313153901451 4.11880785549207 8.960912195355698 0.05871808266649888 -0.1951097060560769 2.1128431035547353
Ni 2.01855475959296 8.874743399523581 7.843744359816849 -0.36206711804765385 -1.410134127212739 -0.39627718827045944
Ni 6.125429150231324 0.7849640409413415 0.04912640296737387 -1.870646728423501 -1.7256542507387893 0.9006114146518618
Ni 2.275987135252476 0.4795159925046812 11.25350428797269 1.6908633683118492 -0.16590763057082394 -1.6268711817306045
Ni 7.363443512508328 5.62183693340487 7.979708750606982 0.862038182364354 -0.16099939463592916 -1.4291957718298804
Ni 3.611938525625023 2.5080930266570856 11.20232900088582 -1.7582147011733138 0.4862550002821884 -0.3869798221289335
Ni 1.8022102213835935 3.6308760163890215 12.74554356271406 -0.49009828528767846 -1.6105960987196648 -0.6785722311947927
Ni 0.8292702420666526 3.9301214169782583 8.799232105764661 -0.7454499668539484 0.6812096688176397 -0.41990279810919945
Ni 5.956185079840705 2.719324534156056 12.315574398323138 -0.3447684788682063 0.04903427971983168 -0.11462106448170581
Ni 6.280958915628528 8.286552096472692 2.2767655643444717 1.8800831912460525 2.612253667382275 2.0742876118790408
Ni 4.075911639137168 3.873070275389188 13.38031852275965 0.8184088757101775 0.37749425123600144 -1.100166815184118
Ni 2.574452270832048 6.217739090668925 3.300800050370814 -0.5841811206067166 -0.8891684629222429 2.457517737157555
Ni 4.60674887418347 0.11672489156945193 4.334844877491746 0.27539240226722894 1.1266594621580082 -0.40832666323582584
Ni 3.649308629793825 4.756174213328584 11.133514216827498 0.5759936996999176 1.2945363006400608 -0.5638701769635063
Ni 4.655602643376878 7.138029541010144 3.2637328726175285 0.14077895382399624 -0.11009977957258457 0.43172138801068227
Ni 4.53546937065344 4.5763277183948645 3.4229803712960796 -1.3686820307155396 0.3479756729515943 0.3868049871139661
Ni 2.7618719261536975 3.5087232342288024 4.6282704190677135 -1.5520852469679658 0.5998478806096958 0.5508429114659029
Ni 2.742934435389699 0.9849239319065679 5.620853799492691 0.19258745385485543 -0.4136591311923328 -0.383403674741901
P 4.5242978116327 0.8165262195617279 11.952513417490447 1.3929437314763817 -2.0546394986308094 -0.9811694760115875
Ni 6.027189195720265 6.976771712483161 0.7090057012298241 0.8505324957175996 0.443887591059571 -1.2091926449662336
P 3.7877460016851803 3.625781344855323 9.154595083807875 0.03862851100547541 0.2878838498660203 -0.04983903500931417
Ni 5.595243665957801 2.0721451963744553 10.0148143079932 -1.072723631371501 -0.7959292065504228 2.8533611803247054
P 0.9070782688304948 3.4379394284696194 3.4038491912179167 -0.8545326180159283 -0.35726172623921054 -0.11900556670264666
P 7.157132264364424 6.682933089431488 3.878113541228132 0.22785733280074305 0.9220819258208119 0.3509712652448085
P 8.051719867328428 1.4611058979228901 0.6443786453763192 1.6169374675566606 1.597876080049835 1.0987892181103012
Ni 1.660000038680797 8.163701665597948 12.796100145546209 -0.3928869316419879 -1.5055328531297234 0.6682844761155393
