# total energy = -381163.8003268274 ev
CRYSTAL
PRIMVEC
9.32261160416778 0.00000000000000 0.00000000000000

0.00000000000000 9.32261160416778 0.00000000000000

0.00000000000000 0.00000000000000 13.64458442672647

PRIMCOORD
 96 1
Ni 2.190263719872044 6.837483113061378 1.7842751666439414 0.0838920108289652 -0.47780121308788037 -0.07047650875400766
Ni 8.716455505024511 7.5827420164894335 2.7825674650877468 1.054578327921042 -0.6887172900485945 0.021192060696582856
Ni 1.3345598354090717 4.040811468703966 2.917976535783783 0.04576769315341795 -1.267265894959882 -1.1368292036021583
Ni 6.9597678109794145 0.02531461986175486 0.2936855756775917 0.2660379576355225 -0.851034889275315 0.18148645884568745
Ni 0.09719754978222588 7.602636469897766 0.6444963869244877 -0.4943040958389099 -0.6551929330389039 -1.606965443945613
Ni 3.691157593571397 1.2103733247003596 5.128998915170509 0.48244539672811104 -0.3589841082469559 1.0912653989294303
Ni 3.8858789845460135 7.167130663444986 3.6566527430770583 2.016024357361773 0.9691670522340728 -0.5672154392866554
Ni 2.407816186946475 5.771451785606194 4.313789659231329 -0.2551033130008897 -0.9705377073293544 1.3172594532691895
Ni 8.342143321895204 4.2511762021430535 3.45122060349849 0.0668013738952656 -1.8447791166281196 1.4561021093024213
Ni 3.9739496974553443 6.497888335973603 12.913562423719746 0.4490657928264008 1.0624502744699509 1.2665318450073348
Ni 3.031405684829948 2.5909122811075074 8.12043763129996 0.9779142022990835 -0.8994698448482509 0.7330369379015763
Ni 5.180715171420453 6.823135613625847 8.349053241701322 1.8973802877636035 -0.13839682674506487 0.06441101928621809
Ni 0.25657039390193487 0.4502513814087117 1.3026513322784727 0.5277904005218136 0.43874307074415403 0.7546737994450615
Ni 8.765389893937508 2.90496310208524 10.888323847452638 -2.2715022800932623 0.300733709245495 -0.26141254304836914
Ni 7.34770965244189 1.1195058282753303 3.778867521407203 -0.1010032165879551 1.9445464039264446 -0.9335930117842051
Ni 9.035326116260963 5.047849309201359 10.925723368885723 -0.35804282737960913 1.9284718669620848 0.8711905382875835
Ni 4.967003620374248 8.685028980919784 6.409202330690818 -0.6446557809530059 0.6359279141617048 0.48509800385960977
Ni 3.9599844251002922 6.34166000878671 6.320389537888655 -0.9526513139672368 -0.11954884080062636 -0.412339898160277
Ni 7.128497760481478 2.085608080714623 12.842432760826169 -0.3398656422499502 0.7330510789689633 -0.3846167212133957
Ni 0.14242526827575078 2.522596182430723 8.203424724038925 -0.45678835828163905 -0.5099142915723411 0.07658082187953263
Ni 8.967858375250607 0.6072674692858591 12.697172486326673 1.4430522180969987 -1.028661865165596 0.8176205754809275
Ni 0.10217862122368408 3.077850936413974 0.7948337557661482 0.2549683300849222 -0.6514524921598652 2.8243449955980133
Ni 6.101183239495273 3.8687440242065034 11.64071361658455 -0.7569116876366447 0.35342923986699776 0.6636639466243925
Ni 7.121198155505505 8.085557079553347 7.691834286563924 -0.7335521869750979 1.6322620137288728 1.2025625412442258
P 1.0276501350080878 1.7725827470259796 10.090361423193594 0.8478968578669654 -0.4910940735420446 0.24151426146254534
Ni 6.0681905166217565 6.969398068885136 0.4695091004366365 0.043088089438725795 -0.1758104915068327 1.365267862827668
P 9.275625755929738 1.7218024809926222 2.991043437392566 0.7777803035555378 0.8569427701193177 -0.3839412924129259
Ni 2.55985866147154 0.2304251293360177 8.556164383650481 -1.2124330062804023 0.059192708310072256 -0.9123068487119191
P 0.8459850617459216 6.893828978290974 8.775446195198786 -0.0722279442274756 0.4086138554589414 1.2783854019118113
P 7.427445950474441 0.9910682066227574 8.442887193175334 -1.7274805053142508 0.7339674201356456 -0.3160160893258622
P 1.5493994224732761 2.9458986901433404 6.6049063249406155 -0.1183432505282994 1.060655130242741 -1.0528304919919995
Ni 3.3892261678283555 3.5688076373713264 5.419669558218179 -0.9183129456966831 -0.02845259891373809 -0.2980106538873771
Ni 5.397130279865168 6.416641774842574 10.719090476917748 -1.1372279817024737 1.6905838893982175 2.207431931975915
Ni 1.051460085338397 2.5987712427866185 12.45556861327841 1.4989492863749345 0.02447844475733849 -1.2319399659650783
Ni 8.944076392755456 5.139919422538139 8.19744799766588 0.6238612128051578 -0.26520029222557556 0.4354754557364758
Ni 8.063984556035596 0.8205604350658825 10.731493279548697 -0.41201671049290334 0.20773665079146805 -0.6392464370119765
Ni 7.657891589556241 8.438445900952408 4.566296326684955 -0.8998447116891664 -0.21559805581741578 1.139454042819515
Ni 3.0240594667953813 7.123295743142279 8.334890329977828 -1.9859810169221475 0.939651302163143 -0.05154856150125316
Ni 5.1775734512711535 8.463393209912432 12.375638404922105 -0.18081231559679828 -0.8193010485071437 0.6664595070916587
Ni 1.3660889082427075 6.629262580317659 6.640014348413173 0.8371208502973843 2.9258390357794575 0.5649927206037237
Ni 0.6303772914760721 -0.191058536830224 4.3251147679475626 0.3853841955070395 1.1313638096122127 -1.4449319516182146
Ni 2.8879213678629196 0.7742997711938931 12.174175833413484 -1.2745097210064888 0.007409147979877562 -0.10502493615283848
Ni 0.09294923562188055 2.527910071110549 4.942927975609947 0.4286126671783715 1.0303955600272512 0.13109412243606455
Ni 0.8633773261688757 5.581028118634034 13.067323055584621 0.6132975783566986 -0.488325766768288 0.27801312771952763
Ni 4.648067750855763 5.508199875885256 1.78595323675336 0.5035019602880942 1.6736004674663436 0.6873422640779389
Ni 6.5911890340572885 5.0110436381347725 9.713020323516787 1.64139791459187 -1.290785575348377 -2.2640005723995786
Ni 0.10508634381883815 7.625942999195249 11.682766053526587 -0.95423768461775 0.2966898781934245 0.8781970515124037
Ni 1.5877899375320912 0.7705567425887173 6.442017923941675 -0.32400733506145485 0.9335511028026761 0.43409143090475566
Ni 5.732557849514554 2.642084096833062 4.768018066799363 -0.7943065833453352 -0.8309296338850077 1.7883166627650169
Ni 6.1066089995157276 3.63953829248333 2.879103109437924 -0.17433544962320296 -0.07530632604248322 -2.183879855687587
Ni 3.5415949337635846 3.64518779518504 2.3602811220524997 0.07796973180725926 0.7692709805329461 0.8571615709983431
Ni 6.711422757397148 5.916772657081864 3.332252890830071 0.3055283024206609 1.6771521893733439 -1.6922815888156144
Ni 4.473548459476205 4.061591570225602 0.04645550645691634 -0.23682611195825665 -1.1872858175908134 -0.25064450589858767
Ni 4.6014080792022 1.3948678106192405 -0.18650910231135517 1.3275034995947006 0.7160000370239475 2.1540789702760708
Ni 3.1357909682475182 4.7986558979526635 11.94788062106898 -1.1205574630253283 -2.0924761098626092 -1.4141100811413518
Ni 2.226948196986283 2.10693821632768 3.7024174440055972 -0.5999774642090249 -0.532349994868038 -0.2062022164248126
P 9.317167313749573 8.661107159248846 6.25230370772133 0.3183509081066259 0.9737389878754713 0.6698731607588979
Ni 5.977994248240495 7.019674913885667 5.242945469167078 0.03483819072510774 1.3776199566351177 0.42326502971321295
P 2.43750870527147 9.382556112346593 0.7482486650063379 0.7381297790434513 -1.6328603094345038 0.675089929073147
Ni 3.764349418177215 8.249374012679501 10.281221388394204 0.29471809917903435 -0.534289635092912 1.4172211159665076
P 6.826846013090006 8.283243061054604 2.1612610748142553 -1.3317661315257967 -0.31214863595065595 1.0310915576530113
P 0.5399171931831628 5.825252577836505 3.3735548575287275 -1.2509005662279813 2.190766812615408 0.4240152776156762
P 6.930578713687246 5.589921890213953 7.591519255422867 -1.2779022916278058 0.35871671351818224 0.390497862584521
Ni 8.279243660627156 6.927082734292624 6.208067915114706 0.9159714420476998 -1.081787541345982 0.11336328081520476
Ni 5.477360676318826 1.7902863866803482 7.21678475798269 0.4394115575660884 0.040517757608388286 -0.5320949414344385
Ni 1.3746004527421485 3.964878796252764 9.793441833510682 1.3981116488305663 -0.09411574543950242 -0.1866898574234978
Ni 6.843980973429516 4.51684266829921 0.3967367933581735 -4.795334681317652 -0.5616369167576134 1.0378484167608706
Ni 2.3624057452632585 2.1015124563072263 0.7724156713654846 0.5214125220199278 0.6160666564614035 0.3757988658114496
Ni 5.209727139089961 9.275308787131292 4.0111124245507686 0.7724691757552697 -0.8216993735359912 -0.3657687352689572
Ni 0.36043174654089727 5.010083409127716 5.789519939378775 -0.33823350596316587 -3.333686959606652 -1.989267400982903
Ni 5.009617278541767 1.0493531750899046 11.260998047702916 -0.5172766454746833 3.076340873318173 -1.4498802967624256
Ni 4.694820648626514 0.20150359100018425 8.686361182134428 1.5393824546893164 0.4568678053693228 -1.1060785526828627
Ni 1.5926004051790918 9.06342446798201 10.481742376119207 -0.6096370987859758 -0.41927364916563276 1.7398765649857586
Ni 8.457920836833384 5.274416741808057 1.483398128286318 2.0809861069451387 2.511715306245881 0.05784287915039716
Ni 6.294357076924537 8.947311339021946 10.196051872251822 -0.12388989137814148 -2.364823811766243 -1.905680580099183
Ni 2.6231778402669437 9.221946157651775 3.0216887266352415 0.5654357216784133 -0.7866372397255356 -0.8094598940470059
Ni 8.153164659739486 1.3439477054100981 6.339710650676269 -0.9907280662343003 -1.4422736880597613 0.7574781016630762
Ni 7.349863175748977 6.238402761387139 12.433327658500406 0.8953370536267998 -2.3900113667754646 -0.5455960612446669
Ni 3.647956610865581 5.182644952046286 9.574732430321927 0.5173653485337477 -0.8839108140677293 0.12396136804602524
Ni 6.255276688598516 2.5881807558738417 9.603140292752041 -0.014433144706194497 -0.8683834078560915 -0.40552287523844355
Ni 9.121998437412445 9.113393666795815 9.010651959824303 0.8854617034946171 -0.9759115700467579 -1.9192439206059142
Ni 2.027108692177939 7.981320957923281 12.866379753548749 0.6851272587044911 -0.6077913038264887 0.1746969467276798
Ni 7.3220072119326245 5.114105110688246 5.527598366350138 -0.734272095860258 -2.77483994688935 -0.3573182905087588
Ni 4.690616150741249 8.734056595949971 1.4682115937960776 -0.5679597736518477 -0.6308114188707459 -0.06550733767419041
Ni 2.682506941246618 8.291428314143879 5.51141617692831 0.41162230326796206 -0.47767651458455795 -0.6013293502512289
Ni 2.376520179405814 4.761486645029037 7.5882311702695775 -0.11704844297627584 0.35978577821264485 -0.31883067595652187
Ni 4.39810988544611 1.5971405170862416 2.412144675567604 0.9502056806402216 -0.21152054331393247 0.15236845843380853
Ni 1.8598423927157586 6.500610538595549 10.84063589172647 0.6329688315333809 -0.4814442091571064 -1.259950078024759
P 7.326416807275709 8.161527042451425 11.873995194151268 0.1270528624871554 2.0776709265289766 0.39776020057388917
Ni 5.115568760728127 5.08692037491566 4.7391049188140775 -1.6148823847998446 -1.8880448692952903 -1.2266735753598164
P 4.190691097310224 3.235906495497789 10.586246056705608 0.47675863075597896 -0.0016241658669842998 0.20733607291893968
Ni 8.045404590879642 6.972110948895362 9.97278557645482 -0.6093702182778344 0.333363065244742 -1.4718771127484909
P 6.447993718053549 1.9272914885026762 1.2631896491331451 -1.426151585686918 0.9217605379256512 0.8950048670983618
P 8.340036411646713 3.936519411403586 12.948042103162441 2.0198655854847343 0.6282189755532213 -3.9418081359687336
P 2.174023730257557 4.291822789237865 0.7505364339221788 0.15802951337432783 0.9676907247988624 -0.7383112989266382
Ni 4.949132173708937 4.151722580324831 7.029690195655381 0.9709822510659407 0.49915910993836615 1.018566171492491
