# total energy = -381165.3360348819 ev
CRYSTAL
PRIMVEC
9.30359614716487 0.00000000000000 0.00000000000000

0.00000000000000 9.30359614716487 0.00000000000000

0.00000000000000 0.00000000000000 13.61675338329025

PRIMCOORD
 96 1
Ni 0.36507776924412894 5.639291143777617 10.390019067257743 1.0345833728563538 0.2866998568602482 -0.6167300010770153
Ni 2.7199249753203856 3.287072203646276 2.470882589055314 -1.2016138041777111 -0.5848208110732445 -0.7689691330218111
Ni 3.0181982715823286 5.052076058307715 6.7399391445363435 2.8693395580308327 -1.1295478394493965 2.3435816145580155
Ni 1.6349767932591646 7.716346920769743 4.675843277141625 -0.5337964975065774 0.05193371275481378 -0.10059801072973643
Ni 2.552385813776871 0.5645282659772398 7.294535821500495 1.5575496125166466 0.50275376926816 0.3479059960559234
Ni 6.264967296207808 0.16959060451998842 3.5795856434604407 1.0253209737178213 0.8317495586831418 1.3014212006853523
Ni 8.217857277444727 6.7311705050564035 8.353197622674053 0.44214078357179337 0.09443713333466316 0.15694167962678776
Ni 8.030845688918175 1.7176113352865687 10.262797040129424 0.26451689300530573 -0.916651241723544 0.8808434879963153
Ni 2.5689462151289066 7.025303700980338 13.848102534573702 0.1487933394880405 -0.9964904226393742 -0.9941211510762491
Ni 3.8110786560904875 9.1142959919807 9.649144855512363 -1.756949461307645 0.8516704659767849 -1.822911627131067
Ni 6.259320013274838 5.539082108405271 2.11036544270038 0.7077187708517618 -0.9918457247785112 2.1882468744070316
Ni 3.483294352475366 1.6191792868008745 0.9706144268390666 -0.9914978545207892 1.192376087629527 -0.08198656627613622
Ni 3.9516094776761594 5.258578681009838 2.557280435771987 -1.2738695163193288 -0.6329325789788067 -0.5671861287106167
Ni 3.1064987037352325 1.170522660508425 11.813540933522825 1.1291233503174682 -1.6126483532630034 0.05972852620888423
Ni 4.098113208064083 8.18113598298603 6.318731848664706 0.24720694097194842 -0.48471593792984263 0.2694852927541746
Ni 7.452887681732135 8.099087567523332 10.743523162747978 2.6364572612116723 0.30951685475476376 -0.9031526930164768
Ni 0.9889722829895365 0.650819121336863 3.3533705609916353 1.5608678782566023 -0.7359150307803196 -0.34725319296327295
Ni 0.9503344477002088 8.25420642805282 6.936306429467171 -0.4196644568461482 -1.972641619500764 -0.7394940063808296
Ni 1.6441966571579663 1.6354791874574848 9.728693394658603 0.8777406807012754 -0.8373491642581062 -1.2635020570420754
Ni 6.087529108238133 5.603425780175315 10.544800207242806 2.478761991248312 -0.41745150835522943 0.2414687529365906
Ni 4.324004525382859 8.843207804005639 13.719423564270254 -0.19990352790029442 -0.35925664518205225 -2.562872031625354
Ni 0.5393034254234343 0.6337181810418202 11.614396525106837 0.19522077771264443 -0.44306509515827563 -0.32912794411747187
Ni 7.101109403349093 3.213852901039243 12.116255766641768 0.43400838427264615 0.5142106049548499 -0.5821139536650426
Ni 5.222006244091383 1.8295429019530514 10.410743758298079 2.3158363261239474 -1.434201452574588 1.752247170735969
P 1.2779140721974955 4.792645276452934 6.0880910454525505 -4.909990969912666 -0.41268802552831507 -2.0952922391551656
Ni 0.5548506651421907 3.2170161237694064 10.853138133944428 -1.3797292896686366 0.9953262271279439 0.6684086603982295
P 7.213943418853299 3.8018029706140943 9.903274448215239 0.3011332586767588 -0.6180903717596516 -0.645719703441146
Ni 6.503809219527727 0.19884297189699407 0.4636465805949215 0.20411782309195817 -0.11819824031000288 1.6812878088082723
P 6.776581358426788 5.152731666300789 5.613629034199348 0.08677447458308281 0.5029162629879532 1.7122994266984382
P 0.45759924302254895 7.607132004212695 11.63487560120577 0.041550569748276825 0.012027363478179285 -0.1648737899896709
P 5.201082456090973 3.348792261269536 1.509948554130176 -0.8234438670309238 0.2238975768220467 0.30396121504385715
Ni 7.132732327054469 4.839777295132379 7.827086696754655 -0.4240625859138439 -0.5750830149601902 -0.485954181212318
Ni 5.336942872351521 8.278023634491701 10.886716673584747 -0.5300452579942613 -0.2736059997907675 2.508427122412912
Ni 0.052557876021302824 3.9867398571735113 8.544635862303583 -0.4198349209857415 -0.34087274335822587 0.09614023206869894
Ni 0.11630611763037436 0.8143754133192502 5.469768455510364 -0.2193222987465384 -0.3827236179557409 0.8120513089232659
Ni 6.771334130133222 3.524583712700273 4.254609000840818 0.614302108361813 -1.4408169010085767 0.6477704153225876
Ni 1.5140114346191837 6.031474940740372 8.356928364776392 -1.516811768477652 0.896323071689153 -1.222561610073972
Ni 5.798624533415235 4.731120594351243 0.05443906318612393 1.2860521744284497 0.48954087012231173 -2.300606139437754
Ni 6.944418235050788 0.49414935130996845 5.9548514522599065 -0.2493844082392415 0.8429377140894772 0.7306265286878707
Ni 3.6079811496214225 4.112273281579699 13.548465331099283 -1.816834824809368 -0.09637703066985337 0.0719453799900503
Ni 5.436621602736751 3.2128295054500717 6.87874787045333 0.42450661542979795 -1.2104997938134314 -2.701739370248934
Ni 6.54837344563798 7.836986653540443 2.0333493424575235 0.8070062903001909 -0.6412310715421732 -0.7317189904211011
Ni 2.680989424950572 5.456177762086177 11.45228880306294 -0.08776846306523593 0.3080181587220502 0.23319134341914677
Ni 1.7414192381291862 5.120280722527812 3.743490820302773 -1.439150311939431 0.8239205495570263 0.6451684589233663
Ni 2.4607360869684993 4.294428392855825 9.268461233893007 0.6273550848910292 -1.6732166017643633 0.662187362078866
Ni 6.8469723677692045 7.4223160644047255 6.408806476625381 0.7967169925590407 -0.18279155081035614 0.1675654778892211
Ni 8.459760083935894 8.284461723107212 4.487387770474713 0.23498931585983399 -0.44810857111945407 -1.1963011337155462
Ni 0.48886025683320883 8.144275134583353 9.313355737670674 1.5684631741053567 0.42847459893861045 2.0448060574801556
Ni 6.481136355429462 7.16585312975854 13.181888752496832 -0.9410522962757276 1.2218658695585278 -0.9984683723013513
Ni 5.264328303501725 2.1313236540069704 13.286628639250324 0.10503830588927716 0.439844531338449 -0.542395294919182
Ni 2.7221113204427048 7.811680871699129 11.466613550232452 -0.4531800721050905 0.8734572228345732 0.15907081015464863
Ni 1.5724659299533632 2.3750406617698485 13.208469127026476 -0.8575354093979941 -0.06665559234602068 1.0391064575376878
Ni 9.218272983840446 8.740617047989405 13.546205487566468 -1.0628253984211826 -2.994801421881784 -1.5529529942848996
Ni 8.108688878869007 6.091566869017225 11.891333884053825 -0.058179693664525606 -0.055013380121402035 0.13075962191478124
Ni 2.972647864267966 7.605885322313161 2.673935438262306 0.04001562116098915 -0.3291546835903492 -0.25492950642718676
Ni 0.4013264410125564 2.3754035020241906 1.727911346711759 0.31490434431892217 0.6959788567070143 0.6641843379042367
P 2.5560142163202944 3.1330697746686105 11.512447717232904 -0.3571534827961204 1.2595209609071405 -0.4686030915283801
Ni 1.979675034884398 9.27768574958994 0.417128599268979 0.2877419249715174 0.35297518304871467 0.26485525018133094
P 2.139985302129861 1.52221720652508 5.286078250850482 0.7350729944949985 -0.45022870278625043 -0.877206148354044
Ni 4.955774533366748 4.674461693096244 4.4871012197097455 2.0595348790498984 -0.7921519988961776 0.4727315118744568
P 4.69104070164081 8.016704222595088 4.111292682533349 -1.1701679269636038 0.6356324944084731 -0.11679878885931497
P 7.822584686521931 1.6972736738508667 4.16042218333093 0.9873915456618996 -1.0939012938903805 0.49135915427797305
P 7.940256572084034 8.92544229139364 8.649784176933116 -1.0611454396155984 0.7539734309439273 -0.07881433919574167
Ni 5.877667887284276 7.962631721101813 8.307853755196776 -0.33044434893605024 1.1278550251280062 1.6006353879625272
Ni 7.989509810711943 5.743407689581341 0.5184959323763402 1.6903802580278438 -0.907493743593992 1.2317545894271498
Ni 0.47881795502456437 2.848928641133489 4.279786393053671 0.712320017069199 1.1620846357348373 -0.9195267634991261
Ni 3.122110138268219 3.4693296544813186 4.752518865761176 -0.7962197412076482 -1.3063937141992792 1.0494327791643605
Ni 8.98886490713343 6.379485262636013 5.929755931694188 0.20803952674386753 -1.1612495414280515 -0.36186477222886065
Ni 0.8514790855844485 4.717732719325635 12.791306104451316 0.002190065672783325 0.8848623793477213 -0.3504192493960803
Ni 8.429281502571138 1.4612786509880955 13.591753103801953 -0.7722694010396378 1.3636017879791547 -1.2420436300579833
Ni 1.4808348103375217 5.072255558606909 1.3643035456775299 -0.03478419755872074 -0.31007966923676916 0.3925282627509885
Ni 7.01212980866883 2.180465249479696 2.1519376322517485 -0.15909292164183567 -0.7897318194904592 -0.8117600029350923
Ni 6.62069029940729 0.740772802546091 12.012046184875391 0.6859142733821607 -0.4787535496988206 -1.5640982122684417
Ni 4.891635540714539 6.008029878152097 6.993142099051208 2.6023317802828734 0.4980247392236068 0.2901538768471197
Ni 7.434922437344056 2.190634080197547 8.162549258367436 -1.5295888656376626 0.013508833119712219 -0.4158880205228515
Ni 8.489317609270397 2.9503843584053695 6.32025670809257 -0.011435495530451272 0.9055353343160406 -0.49741873020849176
Ni 4.510336951382054 9.394027220886121 2.1917802832574185 -0.0609153474281338 -0.9469154399247239 1.3106956840087427
Ni 1.8194950179866478 2.869452374494495 6.934576890921472 -0.6545838386999953 0.143311747548179 1.0745956515832331
Ni 4.323437006010683 6.551266864076454 9.742283157723165 -2.689293688286414 0.24036857789387636 -1.657127923732617
Ni 4.417701043369572 3.8995558565724298 11.018609106038193 0.9783276356874183 0.13197961036481143 0.5510151753777092
Ni 0.7001049225516991 7.253567435346737 1.5612150909898708 -0.8446809220328291 0.5886337570614314 1.5651477365788788
Ni 8.570184468007417 0.16754660442052646 1.911846235953415 -0.9302081544723722 -0.23361814654392024 1.5547800201913093
Ni 4.359246548035393 0.9942567256681637 5.2813399292726215 -0.4872312481525286 0.2977368314007001 -1.0153193824204192
Ni 6.5368369862691456 6.932239827539657 4.2654616458841605 -0.1054954480313538 -1.267591396620101 -1.255284811338606
Ni 3.6215271857835374 6.186872909157816 4.78251738155865 -2.0053270255489273 3.2805450854763505 0.17951056606623925
Ni 3.880036911608064 2.2793996921637105 8.888022296855425 -2.0952176771634883 -1.4302090435857433 -2.4874294371153227
Ni 4.9100380541270825 4.179398728633035 8.679591038647526 0.14408539248940994 2.6921175308884537 1.9776326449574517
Ni 8.0858671572305 4.22359081089268 2.630007578136592 2.566263573805406 1.1043543709029044 -0.8941029241093826
P 5.050559572116489 0.9796965975131435 7.269112814346241 0.048331597225852244 -0.09938419292729336 1.332334859545073
Ni 0.26403513164642284 0.9092860506185706 7.7688480448538275 -1.465736804178708 1.5779155777675082 1.7148908415746982
P 9.057888287824863 6.203368185335995 3.3469166562624744 0.028029909554022694 0.4321363640609139 -0.2479394482625988
Ni 4.717127985568399 6.705529793749544 1.066930837534057 -0.972642412377183 1.038629003680637 -1.3127600227369391
P 4.703153983978085 6.101810128505197 12.16613327657907 -0.8002949397182862 0.45753192131588305 0.4955184278619853
P 2.765661454560052 7.657120226945553 8.184581104683028 1.184400268512902 1.2141731288999604 -0.1067066947306356
P 8.65767548728525 3.5685804194383497 0.07954109626922899 -0.10908187983103149 0.8077300558400927 0.8587703102463597
Ni 4.659520117494352 2.244027419163464 3.2346873745155054 0.7109897282935497 0.32254874823805735 0.32547363519433625
