# total energy = -381171.915650356 ev
CRYSTAL
PRIMVEC
9.18730375548984 0.00000000000000 0.00000000000000
0.00000000000000 9.18730375548984 0.00000000000000
0.00000000000000 0.00000000000000 13.44654771305424
PRIMCOORD
 96 1
Ni 4.8573458686618505 8.331148103292822 12.192751022977284 -0.37637967801558403 -0.11006301279737818 0.3472159119674343
Ni 3.602727668192659 8.21339443109442 7.377690638567627 1.0578050623884558 1.1146652659106095 0.5962483361838956
Ni 4.095580578006439 3.966572458710976 10.396871090490942 1.035617727658139 0.6478444630936326 0.17506744269322108
Ni 6.965969889463596 2.037679661223369 7.330842739271841 2.04813769295655 -0.5003611006662674 0.10226100025445614
Ni 0.9924401132782911 2.871050797327352 8.799958757916151 -2.3744739332614975 -0.7555942543768019 3.0728012355960304
Ni 7.40181557949185 1.6433054603348185 9.512733670040646 0.8741532204603332 1.435594990488005 -0.04429187993883985
Ni 2.065168074051458 6.876531487431027 6.48174661406473 -2.4290743942151973 -1.1086733099932324 0.09439111058807616
Ni 5.666379837124921 5.1428688946883705 3.145712592857425 -0.5318612281570776 -1.3487894055566705 -1.5335442507409847
Ni 2.6599724936089886 4.07893318360654 5.426811704469425 0.07070867936947177 -0.740604465836189 0.05490410823704737
Ni 2.2231621366867005 3.059721267192871 11.911839104704246 -0.29372745313099097 0.48843349599074587 -0.6466260173054992
Ni 2.0002046492160916 5.934695043222627 4.0260712752742345 -1.9087576763626095 0.08504335082458901 -0.17055849907927403
Ni 7.057107942690415 3.471257351491472 3.821818219513755 1.4876657430413154 -0.6471397237171241 -0.9136319952812458
Ni 3.5459593183047042 4.55204257765576 2.373113633616826 -0.2970300351416626 -0.7916298078441205 0.6996583624411306
Ni 3.3564436164939364 1.2137806352884242 5.876518279669383 0.9119296678781585 0.776010870359941 0.18103137358613985
Ni 1.2374287551478829 0.007468359220572682 6.52867536163354 -0.6765374601529509 -0.3755628385412435 2.279764005881422
Ni 8.070458359309859 8.498118161694455 6.846646107053858 0.7102137693594736 0.48843863819706845 1.3247421347994797
Ni 2.0505602610846596 4.700876898449557 9.83094604154966 -0.28693048481381556 -2.167587546285467 2.2328058919643285
Ni 2.5493206072114276 7.011355170001951 11.203542084428818 -1.5221372944556237 -0.8756120643940468 0.9289961364421421
Ni 8.966137789464677 8.480120233642909 0.9208737732358565 0.4159134744441482 1.1784556208936932 -1.2027080656831544
Ni 8.460468590915875 3.637354616036599 10.658298574965247 0.6637984153197278 0.07479544784433571 0.979908349910977
Ni 8.18889189198596 6.264592746374705 7.575153358124482 -0.03589697100692527 0.09243578663391822 -0.8718307429747436
Ni 5.466252799479781 0.03545656137280865 1.7249769157748516 -0.28887141059027027 2.844384430747392 -1.1653203690633158
Ni 7.758678019158113 7.86598572698969 2.60791723054617 -0.7888262769570543 1.9068288347710125 1.8430708756877612
Ni 2.8785843864045684 3.153303143217909 7.871676342934114 1.8835043011124595 0.29860997803427286 -1.3654067023983774
P 6.119157727969408 4.854304871119706 7.676244017506606 -0.14176291500382038 -0.45277769446034927 0.050915813013260695
Ni 0.9442343304878559 3.9146641925082015 2.309202155061144 0.1946188824625874 1.4033333022408219 -1.2919261167107234
P 3.872687401662099 1.1591161779598382 8.043093056352056 0.07057446778445266 -0.38706081187851404 -0.28824251875701973
Ni 7.805808887409482 5.8205060448802755 3.4906967675018175 1.70592900439572 -2.337773492516671 0.8569278577209823
P 6.523582839163416 1.9433995501131258 5.173613287966417 0.9087461279438541 -1.0843162213051067 -0.22375565192754368
P 1.7975602903427104 6.153279374106949 8.589130348859861 0.4008882046799096 3.648305140143723 -2.178964677774157
P 2.350939157279301 0.1741885229601327 11.272186861877893 -0.7552970348513572 0.0038916217449223296 0.7864451783193875
Ni 3.0320766702009863 0.20654988169865557 1.6316440156815117 -0.40315334656500246 -0.31240111828109424 -0.08728123901617227
Ni 5.119882260699106 3.063331877567683 6.3840580132622335 -1.4243626121072954 0.34783323383645903 1.8761326912387368
Ni 2.6476339446691077 8.362982110795938 4.92865680165996 1.375125215237722 -0.011184298751593642 -2.2917672009898853
Ni 4.862738815964687 2.946744992945876 4.217402388306537 -1.08435453074221 -0.2884944868668257 -1.965647190460802
Ni 7.046055616275913 6.085614881968288 1.3705123623880446 0.26581092922638094 0.9243815204882662 -2.4166063436551735
Ni 5.860709686102106 6.995801064748624 7.583919883365312 0.15831670559744349 0.5086336250877047 0.12016333445617369
Ni 7.706916749815381 7.003757269798465 12.184831567142453 1.1261169593909768 -1.6813438588571885 -1.3511910730196277
Ni 5.810253013892258 5.082269439135538 5.445139456725692 0.08981120452687757 1.0953552527280876 0.7093611915511913
Ni 1.8747060799541617 7.474753583984564 0.29203590565681115 -0.5680986132225571 0.7315531542671981 -1.687072019590217
Ni 3.1310423062251087 5.497011892443832 0.05770086121885438 -0.253094510100977 -0.8842476285818578 -1.3266627488609604
Ni 4.538261622026705 3.279444823742528 12.532263239506566 0.6229489854035336 0.16225537853021732 0.16148224780961867
Ni 7.626858584914323 3.849223027877694 1.5018310885773125 0.21626757108061465 -1.3510221515419314 0.4103881737505448
Ni 5.012418368703733 7.421228352321313 5.184370701930457 -1.783862740758721 0.07490189151521294 0.9792257220216554
Ni 8.370286017279337 0.5209182853175384 4.937626366313724 -2.11167325161635 2.0436071520760484 -0.19911497056072802
Ni 6.795380033383397 5.482532701729571 10.140001427408356 -0.7649754384813857 0.421009658020133 -0.19137003650798654
Ni 3.704375996912571 5.380875185705907 7.066510229350931 1.3411699413382 -0.4704920810209768 -0.01609536289996583
Ni 8.057678819789848 4.115645649402343 8.472857670026396 -0.36791612062926315 -0.7559230984711304 -0.2622975167564838
Ni 6.030031694264432 -0.050530170639869296 4.0015852733125294 0.2956925472771617 1.9789680759394237 0.4531975556065872
Ni 3.837307094910438 8.360455602263945 10.04880641289827 0.37672600561140923 1.3247441916820089 -1.6119107037660303
Ni 0.8240451040646132 1.5563568176192324 1.9526134970467122 0.25546223900220516 -0.5208113981008192 0.4312920137827475
Ni 1.3326827204559129 0.6424856073036865 13.207696355528197 -0.991997676975343 0.7170323349432037 -1.1461016300430196
Ni 2.678521659885697 2.702803703704092 3.511391169204782 -0.5309579996165178 -1.3112456429749415 -0.8802361934296195
Ni 7.099406289167862 0.2149149217654921 11.204765833288679 0.5081769971662603 -1.66236037577615 1.149275656895627
Ni 5.9659226886780665 0.20350429050463434 6.389624600605997 -1.4716665393995816 -0.9876951929452473 -0.04446131563716858
Ni 2.679458764868473 3.0990521145581944 0.754858275694129 -0.028002398750196937 -0.44974764938477385 0.5595095860019654
P 4.012922406143366 5.68638978469831 4.386061991868293 -0.3118786701187209 -0.2547636702732838 0.24746996482534797
Ni 5.694639983468237 0.1198566460273947 8.893438654869534 -0.3665205258333172 1.1157772680278655 -1.742625074265173
P 8.244125962147214 1.363855242088836 0.12858182840133722 1.4825446197646661 -0.5454158269130607 1.4051536432790122
Ni 0.8021921833584327 5.44419408316954 11.955904169693337 0.2178187176178184 -0.03793816980667014 -0.13788389166438836
P 6.041736319245376 7.6631668093450065 10.123906189963993 -0.13393673409118223 -2.0684236968990954 1.289460171668734
P 9.239579511056391 0.9509502495310821 8.28396119248856 -0.30594353558120857 -0.039092852236403644 -0.37370135985247255
P 6.264280378047113 2.9026551222366517 10.950169109154508 0.3680019954748501 1.1751543244346019 0.2316057440995818
Ni 6.306055048210656 1.513543982131634 12.861582142522222 -0.7422471436459346 1.3638157037621739 1.6927757548432136
Ni 5.263369570708829 4.748540630318582 0.6990095749118195 0.012461879912436604 1.9600339580390824 -0.6986180941020742
Ni 0.22937481914187213 3.1148083404940814 4.254904962225073 -0.683501807285926 1.2278084602952082 0.5349720058719173
Ni 4.880231442309835 1.2179424838883985 11.093039032352051 0.7707200542746468 -0.04468268761935531 -0.6180440919027486
Ni 4.672037951969821 5.994761635157802 11.620412317286238 0.854549844407109 -0.3767709999167318 0.5444539772204237
Ni 1.309622588036627 1.253653533575157 4.743673196790401 0.5186290457375197 -0.4308492698183741 -2.0218214236595244
Ni 0.9789439640655696 4.749156179670014 7.1794479169221646 -0.3378622386666762 0.36308141824478113 -0.5025997601887989
Ni 5.267219050981212 2.867789304495142 1.728849364306616 -0.10339202853510582 -2.1201388658852003 0.703448168500866
Ni 0.6476782713847145 2.5265544685122285 6.637901378488682 -0.48016945620974083 -1.1458416915134138 -1.1576890777703028
Ni 7.711813582715572 3.8863029858236056 6.085732479456322 1.2701979810050126 0.598594210708253 -0.19597436804921733
Ni 7.112975936810605 4.451496725386173 12.594600932929408 -0.8013164390042651 -0.16729885449139575 -0.8485933697133579
Ni 0.34388261692444283 3.1724219223272847 13.231967374582089 -0.5230989085834151 -0.6157951479675717 0.17071842169590598
Ni 7.727229878412609 1.1972251139260524 2.531030522900546 -0.5661031800590831 0.49465145187599974 -0.743563548464513
Ni 7.242176989484874 7.252025779107772 5.080334592965218 0.340415086995517 0.45016699631037954 0.9450341637416111
Ni 7.977005105537359 8.443885507642246 9.280847960783161 0.0625870787036019 -0.8493757564053372 -1.1292254231129715
Ni 3.5411911076570513 1.1527953129779782 13.138648255444378 1.5336913178418103 0.2781825634178564 -1.4751678676846207
Ni 5.461181407808288 7.341739800252922 2.774533577753325 -0.7273015780796959 -1.9729678924919312 0.6721768691914102
Ni 5.19503440539622 2.8212188617726883 8.671154596763998 0.8262168017903706 0.17401740416215192 1.5471441009126063
Ni 3.107164503771832 1.8987492538749868 10.079532431568811 -2.1037198010972284 -0.6323435392445561 -1.8163146906398395
Ni 4.071923270843227 6.180712663112522 9.217124821954409 0.06298277148012378 0.025054371865466527 0.32876696123362736
Ni 0.3363141160929657 1.3916835851557747 10.826380297120958 0.5728800937716005 0.19023412313133045 0.0027536514857371933
Ni 1.2706867947326694 8.438409874605634 9.109216264457405 1.668183153105514 -0.35612504153160607 -2.3739687114903045
Ni 0.505505664542003 6.418728141433812 2.0385506176191255 -0.11598554892940026 -0.8006420386450598 -0.1745982163662864
Ni 9.13694814083494 6.2332640405779856 9.788333489283872 0.09097565714862396 -0.5191543221133704 0.001839367201583929
Ni 3.0675764119014324 6.67471398589539 2.0378781069844276 0.44873694873207237 2.1230470406709303 0.8327985687729464
P 1.4454844359316066 8.39928114792287 2.512433582644323 -1.308520273623979 -0.7191393539838776 0.8396145632535154
Ni 0.3504754260973829 8.21359655177698 11.001669459070664 -0.5239252611394525 -0.4692232416108822 4.091592378615134
P 4.833293507437272 7.240762144706959 0.679637226218869 -0.04727127428213794 -0.809970000914205 -0.632479293491472
Ni 0.3042779879072886 7.931491202746466 4.443586456855095 1.4768151734800568 -1.7401681280842483 -0.6101410350055879
P 4.095479517665159 0.8909222442716678 3.2559602378898673 0.7166764942656819 1.464313184358304 1.9286086496502657
P 8.85305126757265 5.186085971541087 0.23708664191189147 -0.13691458577258356 0.9446981205584309 1.2383291573208737
P 0.058254855635142405 5.4593255724502425 5.157154233293448 0.19451398145360696 -0.10722862867237662 0.7299364445993817
Ni 6.751363661104195 8.431730704777419 0.04292124567188025 0.2498605765447116 0.4278883874178373 1.191795789646025
