# total energy = -340861.54502393136 ev
CRYSTAL
PRIMVEC
9.31666748327875 0.00000000000000 0.00000000000000

0.00000000000000 9.31666748327875 0.00000000000000

0.00000000000000 0.00000000000000 13.63588460495529

PRIMCOORD
 96 1
Ni 7.298863630453613 6.221884820760796 11.494818612887425 0.07546676287974745 2.3486482304476457 -1.16657661006792
Ni 2.5766548225635963 8.874628866563414 4.339783831523978 0.4901047130455817 0.7806141734599072 0.03857914582477872
Ni 8.395724208530423 8.665674648514585 13.328627587952926 0.8955180592893545 -1.809713383273238 1.2339896494052554
Ni 7.280062595496304 5.567696380920657 7.740423358594197 0.7644853862188447 -1.9221973468072828 1.3228202351864187
Ni 7.877009430392086 7.511032098780079 9.359644326790907 -0.5505575190150002 0.3948772225991393 0.4092761716332887
Ni 2.7671993056889157 1.4959772958846296 0.31752507076018194 0.4109605013142471 0.1128320909020831 -0.45363104359958006
Ni 3.4387446970282944 0.809503808255807 11.870078140301201 1.1089756717249997 0.06206797297533826 -1.0048375090524886
Ni 6.53525093116174 0.952107515573481 3.135407979160326 0.8136906442989018 -0.5861091908673648 -0.15096643587995937
Ni 1.8578646104766872 1.8550602935677922 10.163656891239064 0.24288465944751075 0.7844222343520878 -1.343685765781518
Ni 1.30179931244546 8.788049075751584 0.6995484987582024 1.1351551583338448 -0.10417518655803348 -0.475951047253019
Ni 4.2301676487223325 1.2381757902831874 2.42276956260479 1.4070778568849185 -0.8181412238710878 0.2919194533879747
Ni 6.392398468822579 0.5507780892412008 5.610757086306777 -1.992639916999562 2.48401732610998 -1.0936881494383097
Ni 3.367024990833365 6.671469926261255 4.030494694808524 0.4772581961002168 -1.3547235116529184 -0.4920152998047333
Ni 6.2931852769195125 3.303494635345806 3.3198602934260886 0.8317801548107611 2.0950734382761405 0.771146086068472
Ni 6.058153706618201 1.8036602391280119 9.171441122201154 -1.0006237280814574 0.6593336946801548 1.2787461276853396
Ni 0.5687434191263245 0.24040076576508604 11.703284637560753 0.9993538602300982 -0.4214470026678677 1.408864002251064
Ni 1.7979770719704506 6.34931819843477 1.6943272830174974 1.5993426372930328 -1.1265519900458663 -0.18606739334815053
Ni 1.3709848850881658 6.794822603582751 10.270888938834775 0.8909911179532783 -0.6532844031622813 -1.0309450047728181
Ni 0.09883773020396881 1.1677883675366696 3.5823788277683066 -2.487894292566883 0.3920438669154023 0.8295381528541197
Ni 3.30358780202052 6.008020718954533 13.260325235386512 -0.4959035791155459 -0.11870526185340848 -1.6527897013685795
Ni 1.4009100210063412 4.622706799295336 5.080102998803826 -1.5673635132832748 2.428905986958133 -1.86613804191987
Ni 5.733393311899721 8.720745469938102 9.750639705563897 0.5228119734706157 -0.4692553804003983 0.42553017159830586
Ni 5.631329219750402 7.217026023384729 5.256497327373565 -0.24894140716455188 -0.9535697120164482 -1.675462717486063
Ni 3.537734288912047 7.621611624998268 6.415042629111846 0.29810244227023497 1.0072600024510525 0.45813458789688843
P 2.6818493149833103 2.801149241954741 8.235214797999442 1.256645182021242 -0.7321630199370551 -0.37521316851130865
P -0.15433618666442311 5.855357805767976 9.030651370040163 0.1246177706831015 -0.7210149737400356 0.12765141530310273
P 3.4175679118657754 5.468669522367019 5.984980600297732 0.12182041044362246 0.06687130790125258 0.4610787581268768
P 0.2818832276815481 2.3534088366136214 11.317525225906696 -0.26288347116694083 1.4347997482802193 1.6216832097717617
P 3.26749503223627 3.050845246856055 1.8672846929570317 -1.172978914049838 1.3950864888509973 0.42511468132744207
P 1.1957756366207912 2.5916173905226842 4.770227843704421 -1.1271418011110652 -0.6583682454430919 -1.0685522736026307
P 9.016568295490377 5.799718667628703 13.56646440682988 -0.5955865342301807 -2.291125967861461 -1.8500848451117493
P 8.337345970154555 -0.12562408085102553 2.024124268171023 -0.10866253290542575 0.037700856984883464 -1.3316859131071646
Ni 8.66372746501306 3.0797455493523747 9.195249865924348 -0.28273470156491304 0.5418509923799377 -1.0330833912720596
Ni 0.40953368370760573 8.872141316348548 5.560359505286921 -1.569839485627593 -0.2571787074726797 0.30377095340992205
Ni 7.779100571935017 5.361248346421639 3.6357903507151645 -0.481781537891867 -1.1035848397267316 -2.2356204785949885
Ni 1.5627684849871826 4.3872932456276965 9.102484739578244 0.7079853942495872 0.2561839476595782 0.9846908589012848
Ni 4.945706343861719 8.299688000235108 3.260176789937476 0.684109616073254 0.5809785545090188 -0.39358884280501893
Ni 3.833529164461908 6.139441630306271 8.388755341261806 -1.431575842026283 0.680004592765945 -0.0852734645575241
Ni 0.9604179829579805 8.272678981235483 2.935123851860393 -1.005571559005036 0.10206765329672744 0.9016534827631311
Ni 1.0940935278378003 9.11919138768798 9.521978872479538 1.0025348290612413 0.0025245661940666198 -0.7673585940015817
Ni 0.595257723083216 4.080476752459155 2.9243249025942797 2.178754361535564 0.29205983562058085 0.4385744063767737
Ni 5.913559027461886 7.359142468993649 7.457655979169612 0.7485201211388399 -1.5014165169685045 2.0705836806648916
Ni 4.567486911192276 3.56196694100519 13.841513858921148 0.3832026144746884 -0.5815873917376112 -1.2791400206896486
Ni 6.29686536057072 4.538866108720099 5.51120197270751 -0.7358741502400552 -0.5621089712980255 0.02288693190050252
Ni 4.337365224648399 8.715872852850554 0.36765526342360866 -0.3863313899116572 0.2836536138347566 0.6265259041215145
Ni 1.0908699608926917 7.002053238149368 12.508156198749774 -1.0010333048150504 -0.2704605121832503 0.6531746170572944
Ni 4.918380558168068 2.612896659027389 5.098579813733131 1.6704819764420198 -0.8589731702857851 -2.2741237768765092
Ni 5.587289332613038 4.330647907401511 11.358582847786462 0.30472071891770103 0.8412400146720803 1.9697249600746012
Ni 1.562889601664311 3.601031727712821 0.5723741244399337 0.2532816864111186 1.295468325536027 0.2716141661717193
Ni 3.913074871332824 4.146941858200209 3.694138775755124 -0.5073709563251971 0.9324961791756006 -0.20674729029500524
Ni 0.37172478377512147 1.6389788249033328 0.27819289569612177 -1.479556997891252 0.011715231554399177 -0.21699570749589084
Ni 0.4950010644233512 7.751383486207566 7.860869235664612 0.1393414500465213 -0.8877682401406066 -1.7600571536986913
Ni 2.8206490269724065 3.335870054808963 5.936587034450975 2.2954438785105244 -0.18109873648896552 1.9036373244169085
Ni 5.796644167363136 5.8422306213007555 9.55429652860437 -0.19601756258232692 0.7429745087302624 0.187793889120954
Ni 1.991018421978108 1.267113359449393 2.51933868427947 -0.3195359295536626 0.349924569147849 -0.18523127060010033
Ni 7.6774929964917975 8.315172301572593 3.960133358730926 0.5331871460573527 -1.1843197929839537 -0.8629313836025848
P 7.440831009382989 2.401333774086565 4.935126336281184 -0.24345852967310974 0.18000010410814807 0.7868552692736126
P 5.956266631150839 2.3516666197964677 1.5611585648481225 -0.301801488388377 -0.6835380598405002 -2.6195586856841206
P 3.301584718514167 5.128126692951967 10.824464823317639 -0.10222629036177878 0.7472384262129389 -0.5575702028874074
P 7.924440584489045 8.451475146679352 11.31171628373827 -0.6285653031490466 0.07110848591105172 -1.0167895392080424
P 5.465921105462953 6.244244822692186 13.17754198656928 0.9600463208797272 0.3277143515993969 0.39344151859387727
P 0.12385764069844582 0.7650940494198273 7.805207737523408 -0.35621991523825747 -0.4138720185340872 0.006893898906355869
P 3.18706424195557 8.030715810335442 2.072081813980117 -1.1841416155348767 -0.018534568469077757 0.7020638865588297
P 3.0642705646823596 8.471552565080245 8.372992471566924 -0.34747867871051774 -1.4349812681634062 0.773675537358545
Ni 7.250007026233527 9.58032916085299 8.019699782717243 2.3370160455253557 -0.928148443729866 -1.2513106571822064
Ni 8.252713362844247 1.0238924384407107 10.058441902150912 -0.1544371680373792 -2.137034098978642 -0.5248107490681994
Ni 4.324601390212565 7.365254202854895 11.058184606838976 -1.0498410703463725 -0.9918747782442336 0.6518188743603485
Ni 7.888375764707209 6.100824043637268 5.689477336439726 1.8961196758836247 2.6073220344086128 0.5376462102699708
Ni 6.558719616522226 4.9008093233169845 1.4041419729521742 0.8987113694156716 0.3918757167686541 1.4556300547620091
Ni 2.3731508549855436 3.329357704246446 11.823743557965628 -0.09020406908992208 0.9515112868255227 1.161006315068994
Ni 4.237052665983706 3.060189864329881 10.265911975071548 -1.4203239232615474 -0.728761450454674 -1.0845535341268935
Ni 4.373290294418164 1.9222893660415015 6.94862867186805 -1.7327962611002092 -0.20391830548664236 3.474860577765906
Ni 4.40381169705451 5.462734805187729 1.564554490141452 -1.3922449056371442 1.2923176957221871 1.7128445005686306
Ni 9.094930785592423 4.487615120959861 10.965937487204286 0.05713736844294031 1.238569555466454 1.2056568638988332
Ni 1.5329830990810782 6.852008308522278 5.5456056306791925 -0.9009538855929452 0.4798344414678252 0.3285867269020212
Ni 7.577254971166876 2.25779187835452 11.902954796474319 -0.5978887000007962 1.0879126804071135 0.3066804137472331
Ni 6.895386712269172 0.9110275336917839 0.061692176995449044 -0.545384459454493 2.115140127119028 2.6538248059558422
Ni 6.8038597710300195 2.4750845137902626 7.135276924656824 1.1561579858377573 0.9134340203378267 -1.2621653405085231
Ni 7.1668837190535895 4.645392884588224 12.963976018122102 1.4862210401749887 -1.5744913825773077 0.4496149804616515
Ni 3.711527403923767 0.9132094972135887 9.413968883149963 0.92279000763143 -0.8311908579661942 -1.0518701849612595
Ni 0.17782723202684142 2.800310741882314 6.962578518072996 0.26113383546568575 -0.3414700106225926 -0.6561347281268829
Ni 8.95450065679583 6.885417878074761 1.5842583101767413 -2.7013655318492833 1.2837559221951051 1.3688314118092102
Ni 0.4547064776094941 5.208371149883239 7.081019448303562 -0.4575730589664635 0.5982327136037762 0.41756900776970024
Ni 6.486217310259699 7.943530436137968 1.3063887028418777 0.37141539203177326 -0.5549335365955087 -0.15200130490237693
Ni 1.9090783315670392 1.1829838521825427 6.15812900192043 0.7009634544057992 -1.1272384745899298 1.0563094516795357
Ni 5.06012433707813 9.31092840424964 7.581360826521527 -1.9418151210382109 -0.03505570605255253 -0.27643575593007874
Ni 4.951100694327667 3.9908690447191146 7.721496548626024 0.08711180331784353 1.13276994593112 0.44213564136547084
Ni 5.891049958850955 8.865647599120974 12.242037704096603 -0.019103296488354196 -0.9304842909518942 -1.3799339494802751
P 0.2703380133509743 6.396004019134016 3.8328015327323905 0.7411055738423236 -0.5164114692609106 0.06634243198097607
P 5.629074586222321 5.850774005372041 3.455537990145515 -0.6184143307579737 -0.2949440991469114 -0.025074426470124558
P 8.263660447123156 3.589255460028956 1.968803760059273 -1.60194819323668 -0.4283583850757204 -1.5557827504242108
P 5.440412069926227 2.002831956331858 12.301177114204883 -1.2871474643751575 0.06979130976152498 -0.17440872606329963
P 4.1534262587603115 0.42188013144072095 5.334071627407529 0.5648754782995691 0.17466017995247338 0.3883381359290409
P 2.7508019709392304 8.238393644940688 12.597225403109968 0.2664423921627927 0.4402533367410934 -0.6913976650942351
P 6.698628011940421 3.8879198691600116 9.593322185308622 -0.28599126082899773 -0.3234954284220429 -1.1275884017301807
P 7.3786795206811995 8.261750530291517 6.0604828734860545 2.8938704532926613 -2.8733605062647674 2.1465009008184968
