# total energy = -340864.2344041839 ev
CRYSTAL
PRIMVEC
9.31546583476029 0.00000000000000 0.00000000000000

0.00000000000000 9.31546583476029 0.00000000000000

0.00000000000000 0.00000000000000 13.63412587089084

PRIMCOORD
 96 1
Ni 2.775263544314817 0.23171475716298204 2.3055852155906034 -0.4626759274106677 0.9340401266239526 -2.013176860610649
Ni 8.622320537424274 1.117269010856895 13.079953462773725 -0.3760868293655136 -0.5113278840904162 -0.6138974167242265
Ni 0.6650106030103292 3.180607403752822 13.244884714715347 0.30223446216073757 0.8986257516804008 0.17550401601000742
Ni 4.56523028048591 6.2770961521445985 9.913782236231645 -0.4668429143041638 0.06122259425590746 0.3668138887040199
Ni 6.772939760954981 1.0760480750902697 4.232577794622528 0.1418611311445815 -0.1584185212826304 -3.5329214864643803
Ni 7.81590861730914 4.79693385909004 3.1114437970425652 -0.5947280428846273 -1.3247927855317572 -0.979652782256745
Ni 5.864970633669734 2.6609907264505916 8.133055510498274 0.2153381172878098 1.0364546217371375 1.4307088660402973
Ni 5.391633190014644 3.8287029841269846 4.5723677903128905 1.8094742706792386 0.5873602896656465 -1.7799394944449152
Ni 5.1872332414064415 8.905780843513009 4.878303520520073 -1.683763009821642 -0.9564238936357915 0.7337964417754201
Ni 7.142670594983764 5.930085738982436 5.803201643640052 0.013300573763648061 -0.3567477627172695 0.6584515491855176
Ni 3.695827181239946 7.197575949878338 2.7941366778432197 0.5168441859229551 0.8712383608063834 -0.18909743842372595
Ni 7.7331965972703 2.9752852240393324 0.9502427106770995 -0.02160060898891119 0.41553860760323275 0.3194546826937659
Ni 2.7021744003543775 3.4846269426634637 7.040826471469783 -1.3353037123654101 -0.013777770510382724 -0.16979231033721082
Ni 4.505937341241939 4.873851659457277 6.585582456863171 1.065057115965179 -2.344684874924523 -0.7122009749928315
Ni 0.8369265911412889 1.5859114597941595 7.274024250773793 1.1138337711482493 -1.1944687084924979 -1.1950942578916386
Ni 5.532855650177817 4.265905736293094 0.22134850692092536 0.25529177486261195 -1.498882180582425 -0.8527125340880539
Ni 8.156081478640184 1.8816681806200561 8.392745542734874 -0.9236428425500287 -0.1195876644583618 0.3616423718054095
Ni 6.765347656401354 0.18963773009761015 6.574484942562882 -1.6607979163850366 -2.2407050922067477 2.5613972468520405
Ni 2.223704135093093 6.744946786496516 4.742903226425631 -1.6690311029281062 0.41248490837857343 0.06934110959798381
Ni 8.030201590501333 6.89590390832661 8.051428742214647 -0.5669213050850043 0.7962750199256158 -1.6210306637894276
Ni 3.1844546910910405 6.52803616743982 6.937642783986709 -2.800240903460958 1.0761110597864951 1.2933340528018435
Ni 2.6783174926711397 0.6550141767569583 9.557222539170192 -1.0491869817021415 3.044489276025215 -0.013240152839357842
Ni 8.769849567873099 3.9656869073921204 6.965333937356172 -0.889552842844855 0.9609546916266095 1.2165956222985241
Ni 0.1796291937388164 8.357714733932523 0.9897076811573954 0.1228226264558917 0.3949720963057907 -0.1605183412344526
P 3.098901454010659 1.7559652863296957 12.24085450502887 1.2212827433615483 -0.2498302375274085 -1.1027314905875008
P 3.692687869295685 5.739193215653693 13.60901136457301 -0.12254494731447281 -0.42547232177717687 -0.5198379784439564
P 1.139486396575178 5.262502204343013 7.545806689048506 1.9514338750748974 0.4317614972199984 -0.059052068967149915
P 3.8202165948652005 1.8061197537121843 7.780082267735159 -1.1277899762180255 -1.7101810948038545 2.214099059583445
P 6.543322846669884 3.987149740387896 6.343235958685399 0.23531918839542698 -1.4571536904953872 0.8454710220342921
P 0.29244414121943063 8.314938115392334 12.370855555197812 0.27941772137653814 -0.17314528596984374 0.3188391605969541
P 7.412558267533069 3.9899164337037574 9.036493595262192 1.1833965098387362 -0.6869401435435137 0.8799672560389489
P 4.0549011224965215 4.148782385921618 9.187655657337904 0.1894748763678027 0.3197048510313591 -0.05012622723242979
Ni 4.989587005437968 2.0308460484995456 6.166019470565465 0.670067021937259 -0.5542208267992004 -3.0928728095349247
Ni 0.33756825711853433 0.616083914008415 10.782085178977262 -0.21395743489019925 -1.0593055581933821 0.6606069049656237
Ni 0.7223659253866259 8.258691333435523 3.2867515462385257 0.3759775574811589 -1.090732666354412 0.918564913806489
Ni 1.8262877369742734 8.70321604164967 6.461034680320847 -2.466206008960172 -1.1973059208309766 -0.7617954980915074
Ni 7.641811878655476 8.131758797671447 5.049070911728993 0.7275571457339276 -0.23531507463036894 -1.382097275680181
Ni 8.021976034279428 5.746338177853241 0.5811071349071837 -0.6099741704104205 -1.0790665428703934 1.7819251574163764
Ni 6.605736466926697 0.5509604247765727 1.0614069576339067 1.061870747817397 0.1315818607057605 0.17665072801994094
Ni 3.206085202469595 3.485511911905911 4.508518656790172 -2.5973566956657845 0.19830712994745203 0.5332429389959527
Ni 2.9608276212574562 1.0391029380845211 5.479896296070056 0.12609332678736349 1.6279854978407058 -0.15972027081318943
Ni 1.6734954683993148 6.115882702567825 2.1930627737332826 0.41308346119452083 1.216837305995685 0.8393212003828124
Ni 7.235350163332274 5.655698696495215 10.439349633029407 -2.1877280257890837 -0.16215819083072075 -0.6341890770937272
Ni 8.439001487717738 6.352644579052471 12.140357397856551 2.2134202883488654 -0.2450857808638876 -1.9131889726610858
Ni 7.4566390512726555 2.0376463384678245 5.987426156613598 2.544377572365592 4.0671360453449825 0.7121577804597218
Ni 4.315026186981775 4.413201880099169 11.416726432226513 1.3750066873819868 0.8165782502593419 1.148203763987687
Ni 5.363621584624758 6.195036214705457 1.309911910192542 1.5016689992989427 1.5889895761934827 0.6402810489240779
Ni 3.8432723724973807 8.796268228626579 7.216802139557149 0.7817711698824859 2.539987927938329 -0.7066404501859185
Ni 0.6893910398664675 1.037854665679385 4.507250821907045 1.5473842419478707 -1.3000420609496384 2.2784530003794825
Ni 6.027944706265692 7.9270328077633945 10.612435643653537 1.1200288442153679 -0.9130681523579759 0.3113544221841348
Ni 5.439971141583688 7.665398637833126 8.163692214125229 1.8042137936112477 0.3942033364605662 1.8396448807253478
Ni 7.463914429992144 8.015315476296797 13.192884853575713 -0.8639590535361508 2.104574950008672 0.7221287756295047
Ni 6.141649280721608 5.476478451701068 8.217955733432387 -0.43742718014620796 -0.9882204693210981 -0.5701120441081601
Ni 1.093095377339518 6.181165486263308 -0.02052103941249701 0.5088429128850334 -0.09374704924617404 -2.050478939495217
Ni 4.683424909414033 8.873670433210735 12.396147044600387 -0.17498105362700186 0.8577704082269357 0.5014749025557363
Ni 0.8330532204990826 1.8428040576780533 1.4709176248839828 0.06539240936288093 0.043966635388937185 0.8848035010853278
P 4.961137573159713 8.260274962606218 0.9359947058736976 -0.2020257164496198 1.286896524706616 -1.4278256309552313
P 6.896574621857727 0.389964957097413 11.403228322412764 0.27472674365877203 -1.129770239872848 0.7957667128306295
P 3.2277622911767 8.136584208909213 9.143480787394646 1.1918569819012634 -4.121234626961599 -0.11258192256448997
P 3.7536203305046114 5.524611463024492 4.17816429631744 1.2916003579401885 -1.2051300448610858 0.24869843791581042
P 2.908046192544756 8.711450913337284 4.1561313568202145 -0.3461411908460168 0.09902809513945526 1.4773530482613977
P 5.253326470618691 6.853509223880527 6.274601470427467 -0.04412835777778207 1.9945484468761845 -1.3583865623268025
P 6.334423528123765 2.944143622170897 2.7317472777972545 0.46938676377194 -0.4910300530733285 0.06312469637462678
P 0.9742207194145671 4.864154259653197 11.5513768313313 0.3998307099496727 1.6175889850977305 -0.2018133433284976
Ni 1.0005648564423677 4.374477489142816 3.6936212789598244 -0.00226025678908643 0.2575965117363886 0.4110036958473567
Ni 3.1246494012330213 3.536579294927977 13.473011154486848 0.06364868719889684 0.16884742992543825 0.30608726024792443
Ni 8.8153463024006 2.593695802161755 3.635689329256081 -2.191771856841154 1.2532847501894417 -0.7125876689082888
Ni 8.51114976964147 7.773858605094327 10.025404804101383 -1.2278938209201626 0.25403116298263345 2.8833942363516862
Ni 2.319401914331634 8.014831072079879 11.118056765273106 -0.31798478301645877 0.03721260449455527 0.5511702128983347
Ni 9.210778506323196 5.314650181387436 9.22734419899524 0.4333326983618602 -0.6079072605790627 1.5931863878836496
Ni 7.8392252279812 7.124840793614878 2.6402889670033214 1.3566932337847797 0.4919883032215398 -0.7407703019900921
Ni 2.4526689667784916 3.326441019442432 10.67614783983032 -1.6311194154839972 -0.549983134568769 0.17056415550622883
Ni 6.093879572560872 1.817838609575329 12.743626025687758 -0.23735215966505574 1.0767957445583456 -0.1835708521785419
Ni 2.9262579280077503 7.84936045467365 0.278728981054639 -0.18938514486747385 -1.0092898883968875 0.1498983996267612
Ni 5.998973607907678 8.377146795403524 2.717240303047115 -0.25757285758730475 1.0221034952217882 0.9838930455903377
Ni 0.40134007227585966 6.794365332087916 6.260449414920879 -0.8070708249895391 0.20971691444629043 0.20842107845300234
Ni 4.425330616453552 2.132831767092317 10.328763876493188 0.07759255097349864 0.45947747507802805 0.7487384077972331
Ni 1.8109731113470795 0.4790478241353029 13.394451037514944 -0.2740502864170377 0.4310912106258511 -0.9506468819426982
Ni 4.881918852762113 2.167364198479183 1.1961942940846317 0.3028217021227752 0.15669793904709786 -0.3529268463092825
Ni 9.411135542813271 3.0365157801509777 11.039456591798649 -2.041304472084801 -0.3912985041089454 -0.9214149816607744
Ni 5.706943073365771 6.519363468863837 12.575408277443657 -0.6925706023564137 -0.9686487178367575 -0.5230911952739314
Ni 2.33068294330641 5.551141909366492 9.635249811503488 -0.8712039080240223 0.30002819853803814 -0.15826168398979196
Ni 6.901996222900931 2.1852312617109093 10.38384529368968 0.6109280496832575 1.7935817678186983 0.18104140088846885
Ni 5.677236053216671 0.4559016864857358 9.408924051253724 -0.1828098056428013 0.025651124909200986 -1.6540978786570415
Ni 3.877879327609926 4.597936880593621 2.196744245781863 -0.8051077877258973 -0.741602310973084 -0.12222715896373788
Ni 5.851919666210064 6.270342439504869 3.5884338348025353 -0.673338493599679 -1.0557934312750656 1.999105470119247
Ni 4.333563963744619 1.7923887572556856 3.5084559039495717 0.9319963567210465 -1.0172695641682545 0.033810777901857894
Ni 0.8421423203923021 8.344915284047023 8.770246406712344 2.8060210004778448 -0.12056571210091495 -1.1711102362722154
P 8.711525437062965 6.187863306108778 4.414293652680377 1.881939527728501 0.8847435943816697 -0.7655086852770365
P 6.964978086566051 4.6334753822771635 12.36740603824541 0.13178189253170852 -0.40024491466895584 0.10145624496497366
P 8.833995864751966 0.6304697877043245 2.7015064814629723 -1.4195893590883681 -0.9525960352492692 -0.511739517706538
P 0.7944098740944062 3.014754852252483 5.704518257641466 1.1313841213271871 -0.12997003613395036 -3.297444689445166
P 0.7994132107272321 2.0492720396738697 9.305959277214834 1.3033724108744522 0.4587403398016873 0.6219650242237096
P 8.459830869045234 9.117418908977859 7.8120268627477945 -0.13206188566597257 -0.6808029202975243 -0.43663476615189967
P 0.6450708486581344 4.5390724527723085 1.3295498434557338 -2.1242081508585673 -1.3254520163823107 0.37071296664810993
P 2.8825870247594025 2.6210553249519424 1.8635393528018798 -0.13880228971359967 -0.8694051642523866 1.145136437916273
