# total energy = -340887.93690717535 ev
CRYSTAL
PRIMVEC
9.07939221535848 0.00000000000000 0.00000000000000
0.00000000000000 9.07939221535848 0.00000000000000
0.00000000000000 0.00000000000000 13.28860826620921
PRIMCOORD
 96 1
Ni 6.556946487096122 2.093617081720037 11.255623729485837 0.5855633456662237 -1.1934184128511125 1.1063698586710364
Ni 4.47930913591005 0.6890959172825409 5.896832898130326 1.2098377347494 -0.3019855793747251 1.0451884020657094
Ni 2.8625689785283694 1.8323575668820384 4.553261694530623 -0.5790353147397189 0.7174478252140676 0.3961728014821112
Ni 3.9061997320662925 4.145714102228808 4.757800429486921 -2.1933260887021517 1.0407427075895304 0.025518455986078634
Ni 3.8988545036560773 2.4861101335682325 2.368800752664223 1.0540242551897847 0.49304965460651856 0.603219111074774
Ni 5.136366601411225 4.474878392443814 2.512277850256837 0.8279723510288967 0.3849183116142145 -0.4505572897702627
Ni 5.319561500833858 4.359025346072559 11.625472776816014 -0.3626520440168464 0.30044368880890193 -0.634756519561423
Ni 5.7952127072051205 7.865105336717626 12.260960329914038 1.3936091329745226 0.926022655636115 -0.2856469901157016
Ni 2.090993137331221 6.454912275879808 0.4203277449720482 -0.36558670116513814 -0.18535751176531948 -1.810333019135108
Ni 3.051129798829171 2.0392406009428075 0.05272675518744425 -0.3789476958530764 -1.5611046768577566 0.9967074237461867
Ni 8.128316920910626 8.809225950112214 6.875273614603547 -0.35707686392191407 0.7786619348295428 0.552026904471675
Ni 8.86780618954696 2.47560527662062 1.1074888437450505 -0.41967782658258684 0.2119584021822995 1.1169383782155022
Ni 7.1658196174019775 0.6748557983226134 4.568490559317341 -0.010689104282729978 -0.4499065435601413 -0.4681287229951228
Ni 0.8986864261417356 7.4814556130172045 2.045050504106833 -0.03213390442006724 -0.23328904533927566 1.403223773246151
Ni 7.760165719949683 3.7619281876431545 3.4940797577775995 1.1201561138218514 1.130716148725885 0.21576183508878968
Ni 7.672013899634751 3.8474288253922224 12.366047032838033 1.295330257296266 0.6202704101301059 0.4036811940440145
Ni 8.267367814733179 7.164911678167092 9.134097503624687 0.6412727234133859 1.7489042224056655 0.7336128650097044
Ni 6.920331007073922 0.7347171400177797 0.5638502395264066 -0.0654875401798485 0.15111633119426232 -2.3031057659311562
Ni 1.9987646698516592 6.724960642511487 9.219025231716543 -0.6382023120181783 0.07194820820352771 -0.8180694900928879
Ni 0.09209863216897324 5.07282901375401 1.2511765832401578 -0.4182032989195894 -0.45366961014699936 0.22263413672859075
Ni 6.823807987013357 1.8576527539659191 6.5961331444737334 -3.48828559292256 -0.39724649416226426 0.38175148385045865
Ni 3.498162760516875 4.488906053622779 0.07205496561966428 0.4068523926831445 0.01999701194721717 0.6031597185917483
Ni 5.869473057226318 5.8788066725609305 4.676859462575442 -0.7486152519558075 0.2505866560774587 0.84229930917453
Ni 5.4887468978622245 2.9693335531584313 9.378488415417767 -2.34441542331322 -0.9242825330165566 -2.203545709547631
P 0.3500468926173481 5.816912454918858 12.466867329297306 0.26127910279429845 -1.0467305497418489 -1.065714289933203
P 4.325213688965462 6.207426199235006 12.30192927200973 -0.9173685795055425 -0.05350259990383044 0.4836741269288896
P 2.571120484130463 8.69981019291629 1.147986565377836 1.9539499566285319 -0.5863745287136095 1.4861675612292342
P 6.286498627201092 8.146239641407245 5.881857348390143 -0.5605351990530024 -0.7026454700939124 -0.9866562101577717
P 4.943520307921768 1.1587483691289213 12.51901209543519 0.3955336252362156 -2.083317326181476 -0.4162304914639348
P 3.943679463682322 6.291991659572143 8.101426484591054 -1.3987235713829524 0.4435605467374555 -0.780633456733617
P 5.017471958603106 1.2286596902150235 3.8663475552295092 -0.07534437836927023 -0.3702285708125237 -1.6080617623335856
P 0.21237606643182003 5.8695184541880625 3.602688356993711 -0.3547484728990536 -0.48247573574541414 -0.6673871611122507
Ni 0.8364217692918302 -0.19596960445745815 4.016295535749145 -0.72208326710355 0.35329605672324316 0.7900159263897815
Ni 2.0319044519249414 6.499510251097331 4.545966402778326 -0.3970330925998775 1.1418749935561818 0.5174807910656894
Ni 5.692234239184527 5.772305400308985 9.112556645277053 2.1587306101154695 -0.6251439361723233 1.7244520029005719
Ni 8.903415566339126 2.45619353577879 9.91639792306429 -0.3376642637232572 0.5786586481265905 1.0913538448781785
Ni 2.4177695473584806 5.558422154747258 6.724168919498669 0.4488490488299044 -1.273160663177762 0.6931406159272708
Ni 0.5629595511369849 0.3104834404572585 9.029077988204072 -0.47907133804955554 -0.6949139057776097 -0.7851277450595446
Ni 1.8622378471020855 1.2149044108065243 11.418821267260142 -1.606787266496536 -0.20961021366509708 -0.3585205383469761
Ni 3.9703728771879248 6.964375139358165 1.5505813491533562 1.6458196978086495 -0.4286054680895199 0.045043413392883716
Ni 5.430103102681039 7.877616739374334 7.999809017483551 -0.008434761030914506 1.9693639771907565 0.29512921857452395
Ni 5.832202151634313 3.0650394279076 4.721894156564945 0.4411388246698403 -0.3169092905640929 0.3070935900252518
Ni 0.8228462618518381 7.389953496925552 6.631507365004066 1.0690937479283975 0.2647017553226022 0.5769599202679289
Ni 5.165211830903503 4.777621650923683 7.0132358892834725 0.501410367866388 -0.31690414835777037 -1.040846837267562
Ni 1.2439493869304774 7.678959634781617 11.683238594757068 -0.23923112185532347 0.9298970509898566 -0.8905239485088727
Ni 4.677167253976068 0.5023909247778438 10.11231214322842 -0.013952348415034036 -0.8387745838507232 0.5198276940313112
Ni 8.201406029318823 7.179420547140547 5.002549977277781 -0.31707821204178943 0.21447011286055967 -0.9272614131392225
Ni 7.122737900706711 6.5325864774241715 7.147889633391479 0.6411824776924248 -1.9436418898343042 -1.0951189683475657
Ni 2.1662249823337456 5.248070365479057 2.6135639195436062 1.259362066731773 0.48612207424874987 -1.7952498995497403
Ni 2.3275385461956652 5.584852265874743 11.319396473404884 1.4182765538142155 -1.1090376353111868 0.7515028579162477
Ni 1.2139419952175465 3.492315631844219 3.5970273558642067 -1.0103440406930149 -0.5663695463465923 1.4384309172749032
Ni 1.8439610303038616 1.5777895642051383 2.221868946282874 -1.6554497646992459 -1.459510877873654 0.4083053230795871
Ni 1.0917878505561938 3.546555921736216 8.041176544903356 -0.2463145110646661 0.7654644623026624 -0.06397238908690273
Ni 3.864198463060538 2.8235729883900826 7.068170752690155 -0.054399400686486965 0.17201091525508438 -0.436493612588345
Ni 3.885308050271601 7.394357002214741 5.72842651296549 2.3735948730906538 -1.6551934257140655 0.17764625916399082
Ni 0.8846188156364361 9.231926140305015 0.31715770177289404 -2.5011295603102344 1.4018862853816503 -1.4755568755929234
P 0.1656907389132969 5.7615644791603025 8.065601018260983 1.336793666647375 -1.2292302803433992 -1.5803010472805494
P 8.48185937958228 1.7258744534147912 7.7492786205841835 2.739591408099701 0.14938263633260723 1.350293758016339
P 1.9843829123710897 3.4281788042919823 10.331189054582012 -1.1412149913746796 -0.01898811106672859 0.4242338213843855
P 3.931685586389498 6.075511707798645 3.515740464104238 1.1514202140424556 0.7773056779119646 1.2420513433674674
P 6.885511537416104 4.16203884967203 10.17549926634097 2.985201179787859 1.1837796042097677 0.8119937162124531
P 6.5401132936813635 7.836550647780511 10.071515709587358 -1.641412312769573 0.8663694627498564 0.6892091420833485
P 2.466507725487078 8.856438790326205 5.509683068679426 -1.9460664401153966 0.34049042031814264 0.508618455579053
P 7.148223755029917 4.016487110927706 1.2813474040153678 -1.1076001315337118 -0.02159675233416926 0.685846910479335
Ni 5.302365131725146 2.84975795592415 0.3341052955312471 1.4735143912415978 1.3186984997085611 0.9667792687281866
Ni 1.763163517791495 1.4545912894236683 6.901345997672488 -0.5824016601087905 -0.7575269526231406 -0.7626408768109382
Ni 6.962423070003164 0.9510391103644075 9.197776729802541 0.1935091943381764 -1.1372392945563834 -0.8370552871667712
Ni 2.7428753491935534 1.8716894945372324 9.03119076280365 0.3387862931428423 -0.577639977054089 0.23711767505674647
Ni 6.568050583938757 2.0477116740042796 2.4754418475583404 -0.25701004310529935 -0.2799185722723566 -0.10007504834673088
Ni 4.093480358045906 7.134423078659673 10.364809136510548 0.19201024119514673 0.4348437356897479 -0.5932643138549073
Ni 8.405819468660708 7.387057170766269 0.216194858853744 -0.758403441690823 0.21952618722722836 -0.19165697162078607
Ni 7.479031415260064 3.6922256925810757 7.969218728781826 0.37754721596112395 1.6121464739259201 0.14303098308296658
Ni 3.5719146645665383 8.367168495431677 12.441140871076856 -1.466554672094313 0.8565388498126797 0.4323495085129844
Ni 0.4620684354173907 5.106631591468759 10.084419341993536 -1.6327525802120462 -1.337013238857349 0.39515927261593237
Ni 8.833086593204976 2.4332589907056095 5.64898727754851 0.9969110551165606 0.9425504780878089 -1.0676341326637355
Ni 3.8485819082205257 2.516135684065861 11.195706095558107 0.3210253696149955 1.1299571590726734 -0.5467057493690778
Ni 1.2409531874553588 3.4418069722075972 12.539343578721956 -1.108182486399743 0.696300244602175 -1.2148007351816303
Ni 2.969905554876408 8.45302322948235 7.826724929380592 0.23749177056671358 0.47832109014709234 -0.41330200496323016
Ni 5.471668560854049 8.003484355506364 3.414401734341846 0.9468195377768079 -0.347527272560266 0.7098718126390225
Ni 3.229594334838057 8.882669154822016 3.337699935718043 -0.7702919655982928 -0.9192614256528813 0.6879994380459634
Ni 3.5313207013748547 4.387080668430489 9.18919216433671 -0.10949119945430821 0.47509461278999465 -0.32267421807232816
Ni 7.556387838072219 6.242100398615242 11.36390002294198 -0.1486151620389634 -0.6546226623577307 -0.6303190526153597
Ni 7.974248712143085 8.67096496342401 2.3541039402691486 0.3187016065778253 0.7073176787586012 1.3189805497253544
Ni 4.634893603199848 0.22045854150076136 1.553837219249652 1.2876336599829565 1.0492353184415737 -1.806020250692367
Ni 6.167431475938347 5.705299484774514 0.1392397451834084 0.2316268271455043 0.2570398679019702 1.403057679981932
Ni 8.274240914741254 8.903297534238591 11.103150769953988 -0.2595574921175014 0.5463810190398074 0.627936411315796
Ni 0.1006450641869405 4.962850334232458 6.030277267177468 1.0998693385483573 0.2855408035551405 -0.37969151599763645
Ni 7.2493318682266485 6.149054785824285 2.830220919467906 0.4324250989459262 0.3290271568735495 -1.805948002693535
P 8.881016705414527 1.7242220040073013 3.4858674473980695 -0.3661088922171953 -0.5914349739556524 -0.7971183417625175
P 1.9210541507378998 3.5332636913375075 1.313236045822979 0.05238545558025171 -0.03123658941677846 0.27223585891611823
P 5.038599704598868 1.1694438933158602 8.056351841275216 -0.3618318621083962 0.38451953351389906 -0.4403978327387577
P 8.593771969674135 1.6597401595458081 12.430894776811186 -0.007851891944250995 -0.21510209001760372 -1.380537644502545
P 6.460595975490183 7.714323867980367 1.1487564978490183 -1.1011806011606131 -0.2038172611324038 1.1329506944833585
P 1.871725812106628 3.457586956109889 5.851492228618667 0.9444767485762443 -0.012363406661359353 0.02537010333367244
P 7.209990861179105 4.528991570842927 5.6635787689923385 -1.7951172306266183 -0.9732576773636786 0.9587612835197165
P 2.3964057371616496 8.856329837618018 9.908557867771062 1.0990941509452297 -0.8373705044143449 1.2593044740209602
