# total energy = -340882.6536794443 ev
CRYSTAL
PRIMVEC
9.13628933883451 0.00000000000000 0.00000000000000

0.00000000000000 9.13628933883451 0.00000000000000

0.00000000000000 0.00000000000000 13.37188295766627

PRIMCOORD
 96 1
Ni 6.646869869311075 2.515247903341948 11.862116981018927 0.21290585369723333 -0.8254236164651139 0.05320538037838579
Ni 4.776726230023903 0.524555492480744 6.480536410254463 0.6596211440135865 0.27060346551901787 -1.513064128509762
Ni 3.1082935899266535 1.9742699305167937 4.980705769892278 0.06050088559853451 -0.26036918938551934 1.624273081986125
Ni 3.80391239852899 4.394144107953152 5.659114549996833 0.5794536332240602 1.0766661609590167 -2.710763942345048
Ni 3.917366841320025 2.8605082828775585 2.6402250344280427 0.2329648292306375 -0.27193375429466715 -0.4074337191079112
Ni 5.352760145592591 4.621454990272443 3.1721452898604574 1.1960738481960884 -0.8009716540703367 -1.1344864144015945
Ni 5.537157876213581 3.752484225033199 0.36202638436455475 0.8480207850393395 -2.77477155554526 0.011932746881843965
Ni 5.57467148082785 8.444115054819084 12.870303784502408 1.2476301230068256 0.4048821563306511 0.4717238965455489
Ni 2.2277654184923175 6.08714423046827 11.494591464014983 1.4981848974050844 -1.041872193208283 0.681556253523781
Ni 0.4639846341000285 7.727364008644218 11.192225963598709 0.8066021128832367 -0.6036333157940572 -0.14396815018525527
Ni 0.34006913985177534 0.20891222255986183 5.052927224620806 1.2447306899718436 0.9044850386746552 0.004830845729740067
Ni 9.049896728942098 2.3365329447789396 1.4314866268899396 0.4556899830111378 0.6199523646690549 0.07789311293305295
Ni 1.8338360248845664 1.4914078950884644 3.1683208390831723 -0.5202809795186458 -1.3207823788207833 -1.6097854298929113
Ni 1.9673172142207735 6.918820662040819 0.5143612206764085 1.2150035952210558 0.029475897971929878 0.8448277320233385
Ni 8.089654431774811 4.150744219855554 3.8225531699596997 0.2103270372264636 0.14434121725395788 1.006146200561583
Ni 7.841065131251275 4.469756039708556 12.802909945136323 1.027605913097256 -0.6718979044984106 0.9039512776583722
Ni 7.826730293053568 -0.05356149708990519 7.172223873492572 0.8184291874251517 0.4744639211845313 -0.323609585402404
Ni 6.586533813570055 1.4255352479211783 1.0146763099027498 -0.6295487501082383 -1.1752959922187889 -2.40381150588335
Ni 1.7850756479176026 7.182585339394433 9.236855361504972 1.281425988510348 -1.4325307497403845 0.3526743639788442
Ni 0.22040476109963014 5.229210102923629 1.5820270959474723 -0.26542192131807835 -1.379951690092088 -0.9436779068240329
Ni 6.450768551863277 2.4131590046668774 7.377508989127966 0.6158080034833782 -0.5506361947717355 1.1073599904984477
Ni 3.569045804807849 4.709282141065663 0.49652078820434753 -1.3138303729829826 1.5113582015622486 0.2579893762994331
Ni 6.483887601236566 6.024259149961691 4.927659559529174 -0.7177959525821058 -1.4581379087855275 0.5728024464561297
Ni 5.4364302846713715 3.488253596915988 9.563691499670604 -0.4009085163948838 -0.5441549579227661 0.08110236389897
P 0.4924259032583867 5.913326323067768 12.733549976273645 -1.539333346618936 0.07587736805460481 -0.5372083514016038
P 4.014421644490356 6.899762362180769 12.960777718358647 0.023197521162385857 -2.749806658069806 0.18810242150030831
P 2.268248317188329 8.832407357816265 1.9576172156774299 -0.7890720744192732 -1.335901493850409 -0.7224272807065301
P 6.292336155950944 8.07809702557972 5.690632007823877 0.6661553455876785 -0.4510285729797264 2.740214129285365
P 4.660540036677665 1.6130849984135573 12.908801367493918 0.48266676871029784 0.2278629892276979 1.7167790597363466
P 4.3215654243058665 6.873687391998323 8.355501269501438 0.44546213463554246 -0.8541191846275935 -0.08082288498533823
P 4.999514649049462 1.3788122635087645 4.185104890969486 0.7020536021461845 0.3365404345314591 -1.0279159881385072
P 0.4098009556963796 5.6728957290519135 3.716246960059606 1.4901288598698272 1.7965603908310481 1.2101861192277545
Ni 0.5489347673352776 7.595938484441525 2.5572921939104827 2.0686131872020828 1.309444585210461 -0.06384743347326423
Ni 2.2455537741143297 6.488492291135637 4.899444870349977 -1.4521184420643252 0.0835179153189981 -0.2870544119861895
Ni 6.143140548705205 5.941073234225471 9.593857700283218 -0.17976279128636138 1.092658422622215 -0.637461834307728
Ni 8.885215111023882 2.6745573830445792 10.410546048960077 0.3629631474993619 1.0318389773419971 0.4574301056306961
Ni 2.406078380318105 5.494116816462529 7.141842970077124 0.19153510133094112 0.592452102366257 1.4374068468857633
Ni 0.832235572488865 0.14749991191782777 9.18680494046311 -1.401242224039748 -0.2969243628017338 0.47469763446189217
Ni 1.4364531138525107 1.3334414499397291 11.63726924234406 0.42249935519178206 0.6517178300061098 -0.8869200332076983
Ni 4.276578334895087 7.0205715180050445 1.8959591388483221 0.18874134063588785 1.0466022516941007 0.26204734841889066
Ni 5.912924326330546 8.588203476244226 8.46163388990137 -1.2348532829571313 -0.5674041582586938 0.6506155980808667
Ni 7.0335176402014445 0.7663912478189737 4.7816516036838035 -0.9111097430800245 1.0076739500600196 2.080443089957475
Ni 1.0020682304171942 7.631332469895905 6.96901086831176 -0.7303043694617616 1.2885088634990585 -0.8156400547157888
Ni 5.433671125247721 5.242503404120356 7.3849029882059805 -0.22437683045131032 -0.7782947812981111 -0.6798809227038872
Ni 8.050706429711823 7.334704559274505 9.33441722874157 0.692797116544923 0.9563526740782239 0.08117101235337633
Ni 4.7268603620295835 1.368561346709639 10.814857921935497 0.45864032388871334 -1.5364431695553344 -1.23575394039453
Ni 8.380307209074795 7.492515687502042 4.696124970582222 0.026825861943592506 -0.726830037759916 1.2903132636976489
Ni 7.3131246435173445 6.62670607842367 7.218035969843601 0.9929011626262191 -0.1144760542634093 -0.6766930118942087
Ni 2.4490554860427816 5.726087206417786 2.6563250037537283 0.3184133859134452 0.23486950245251806 -0.8202788390393807
Ni 3.4124680756604207 5.264558406930596 9.41773744793318 0.44925528312938756 -1.277709201780393 0.5350779353221623
Ni 1.7891869781846317 3.7765948929769535 3.6048728503836873 -1.3805669550785837 0.05247287308773544 2.285220658120619
Ni 0.9081197656708412 -0.3077888018529603 -0.19494831771513502 -1.0286371825752478 0.15493981870541057 1.9046768214250165
Ni 1.2351258388208433 3.5576893969813668 8.394653924448829 -0.2821631453321592 0.3911090138059587 -0.3258618717716904
Ni 5.781635846470088 3.2006249314346418 5.283137051592826 -0.236822769524147 -0.2661284604667997 -1.086412184602187
Ni 4.048865455838576 7.200200105516282 6.159717432341865 1.3948054672754686 -0.6652999395659187 1.0281237332739388
Ni 8.138177265215235 7.186312945503206 0.5464204604697522 1.100370189444176 0.6060594087370466 -1.5573272120931954
P 0.4111558674266027 5.9529960919998555 8.121773971078738 -1.248336662155547 -0.7041655062828647 0.8662946436478629
P 8.794007533122214 1.7136024552976747 8.397301621140796 -1.8072428102455584 1.1507987784083729 -0.3438503379293111
P 1.878558161900359 3.894781933719813 10.461479035565928 0.6517607674289033 -0.6839250108662738 0.8310209080472333
P 4.272768502180974 6.085033747597861 4.0231312692538195 -1.4787424724097564 2.080357215111888 0.9366569954215096
P 7.053736248825746 4.3219400121746405 10.723809315470822 0.8264147767337895 0.45424270904164993 -0.023661091062365705
P 6.349437965215236 8.182332952283126 10.746340318963089 0.5525362400079259 0.4765675977910954 -1.0598400905406136
P 2.328355965692293 8.931170647119783 5.760914741924262 0.44546187752522637 -0.11173885783790435 1.160010269704312
P 7.134756863954663 4.606836927100783 1.7440948214448062 0.5465304001334781 -1.6352398654102742 0.37057001331234246
Ni 2.532131766305213 1.236715553190761 0.4457677865012972 0.6549178250006463 2.3811042940938214 1.0740896584810922
Ni 1.3907899390200422 1.3450354012927508 7.237104319622082 1.3506272300963578 0.31421117490663947 -1.5501355794407625
Ni 7.1781725115744885 1.0231821954107585 9.79844754428901 -0.3359755631669246 -0.048409758761955336 -0.38188903786958744
Ni 2.801387353637682 1.9216905845462342 9.416466590066195 -0.48155065282798365 -0.38739685506169413 0.22915034058055375
Ni 6.722582300250785 2.5448220723961095 2.920726480484258 -1.0897900999354844 0.5568402666999184 0.5749709148623581
Ni 4.224236532451068 7.310009168803885 10.685017543957983 0.47477116801230484 0.7601628475840908 -0.7331433815724535
Ni 7.370463996308175 6.531588168623585 11.75777690061542 -0.323439635483443 0.16672678403800964 -0.7212862251235513
Ni 7.934629871839372 4.243048152495096 8.587757625317492 -0.34904885141111497 0.177462682398275 -0.6813001716489169
Ni 3.270709408053262 8.772966658444508 12.341004730522462 -0.4009668804366449 0.9708758073950635 0.5335234463508488
Ni 0.2532652534805704 5.434794888854042 10.340436904359853 -1.0485508907800394 -1.0578081477122492 -0.20714169751994646
Ni 8.580748264026681 2.2782525541714334 5.97684363480652 -0.36003234700581216 1.1456048929122593 1.2908897050264092
Ni 3.650404462647611 3.29231673267887 11.761881835479812 -0.8963739795317467 -0.4829542180437295 0.025138961159472836
Ni 1.3421848789742776 3.689873233211089 12.782945325359629 -0.7372826005518076 -0.16017535607273703 0.07117070660755484
Ni 3.2523637387728304 8.6616135622344 8.07288659968797 -0.5406011791332367 1.5081985728873446 0.2678608697768741
Ni 6.089547074602111 8.047061050208391 3.587769716472847 -1.6461148604515652 0.2642667246677126 -0.7338591766925555
Ni 3.812098513905119 8.544641647992684 4.328745634209996 -0.39173456320509953 0.1969480448163963 -1.1610058008483617
Ni 3.9153294487654757 3.452247480066297 7.685890736168327 -0.7543878927735266 -0.9710604126020438 0.4599778117532143
Ni 5.064345759215767 5.079402364282576 11.53917290217275 0.09178401198253225 0.5907232926006084 1.1826598887830277
Ni 7.936868262762533 0.4998856836206737 2.8164530949939723 1.623846793081984 -1.186515515083692 -1.3742762369738653
Ni 4.208796203226004 0.41682402142141334 2.2496322137392224 1.4086161479063162 0.6299971504995666 -0.8318012378566836
Ni 5.972520342623502 5.94378671220171 0.6581591080960139 -0.2743917289168565 2.101280852638433 -1.0594014603412978
Ni 8.07270661478517 0.011786727061097941 11.896442934232827 -1.761346561934076 0.5699685765517604 0.25154104957092804
Ni 0.33450513955706285 5.102005544461752 6.105574867240886 -1.1437979216105074 -0.8233106838871691 -1.235164129329331
Ni 7.673514718435621 6.717109662850896 2.681316410003575 -1.835518260151484 -2.8667319452046565 0.30507630248490686
P 9.075852927361273 2.1003598616618313 3.9521532635238317 -0.5073581008093907 -0.18644431707159503 -1.5734050914916646
P 2.0553270908036403 3.4262547364891915 1.5655269571424628 0.3250476034005112 -0.06942826999515139 -1.223543257260951
P 4.674472878138151 1.5332612372068195 8.377644894319657 0.5673054278973004 -0.29493690005805984 1.1031649785804938
P 8.707505144303925 1.9288260266319 12.67100933388055 -0.3064523568968271 0.42112355789017797 0.5126813127945171
P 6.611768245120132 8.321405550782492 1.5264802831530664 -0.6537394884218289 1.1192485144059177 -0.9506376259713176
P 1.9652524127977766 3.4072786632344823 6.238612032908255 -0.08286665488824439 0.038196308564063246 0.33134423504250027
P 7.412993423848219 4.168614802082907 6.2486546423071845 -0.7746265884179047 1.5061874559945867 0.5137724889761669
P 2.481297451625771 8.905790034937992 10.442651883829779 0.2597953191599203 0.4485893674106145 -0.8088924515793102
