# total energy = -340896.7830827594 ev
CRYSTAL
PRIMVEC
9.01609547132645 0.00000000000000 0.00000000000000
0.00000000000000 9.01609547132645 0.00000000000000
0.00000000000000 0.00000000000000 13.19596708318978
PRIMCOORD
 96 1
Ni 6.308020948046451 1.9445463638012668 11.46775740245242 0.4996702452468298 0.6115145183143469 -0.6505119826234668
Ni 4.789124445541383 0.25714174410349494 5.826850873217613 -0.9526127474198175 0.19914916623277315 0.15399545251427027
Ni 2.8459575443280922 1.5927563555815019 4.824748841473465 -0.1593592879293449 -0.6731777996520987 -0.49050092004273593
Ni 3.4639387515503777 4.249781621929042 4.849609822781199 -0.03909619467051331 0.9206719328471626 -0.2661343740040707
Ni 5.1533206009575805 4.670914419456772 2.741739596611318 -0.5898984827064679 -0.8841884932091482 -0.668843433942803
Ni 7.364436839765911 6.093960812335916 2.7721427717283893 -0.8083214095671886 0.6811926995367752 -0.965442037974002
Ni 5.039086672920664 4.374230785993253 11.673891488744072 -0.114051565131481 0.3470143374795895 -0.38232998206174795
Ni 5.562002170812148 8.019789762198378 12.589190160932716 -0.7035947213810593 -0.1839400625925026 -0.8034442839805453
Ni 1.669744793743083 6.627380061305774 0.4168483490191956 1.3536277074855785 -0.20236973005259987 -0.6800974095900675
Ni 2.765903633748788 1.5194825487025734 0.3688619847578789 -0.25314310395072537 0.36239853324514365 0.20165393493249786
Ni 0.705796172675637 8.922246809785369 4.42034540886069 -0.46638525794145486 0.2750046799105071 0.7963272133197897
Ni 8.726399186674247 2.324042833020041 1.3263659008718292 -0.29674695668360507 0.7771503832810229 0.5869887652588407
Ni 7.141658139855557 0.5086123642342021 4.97510395229604 -0.15492619185865575 0.46647576077273206 -0.580273300911878
Ni 0.9022226291079873 7.426729042513113 2.5046604678722866 -0.8090405471214003 -0.252068639939624 0.40671406733306725
Ni 7.6165899783143285 3.8594117417226967 3.8488151248622557 1.0910941634588887 0.2738073171682962 0.94092065579387
Ni 7.415062215135072 3.8404779414955836 12.800932258529732 1.1077826798581631 -0.4648418247137349 -0.6133490004199244
Ni 7.8341393429238595 8.51003994665042 7.075440329194599 -0.5130857473217872 0.4005115380667812 0.21409010381332164
Ni 6.937100968639963 0.696627705318041 0.38624772141404196 0.3577402085375258 0.3297977164909869 0.3607440283608561
Ni 1.8558730660709528 6.255943981326543 9.242653593323926 0.5539092090960525 0.8823144161148868 0.2832913453993315
Ni 0.08029824676318749 5.028059988312206 1.3447614402067718 0.07322424670247389 -0.8752233135960604 -0.2265578972630292
Ni 6.268052597376549 1.9067148277284252 6.929189344973634 0.8933812154520099 0.3784766697539288 0.5621372534327996
Ni 3.31086348476184 4.189328702632473 0.22528156797847101 0.5000739084431517 -0.1999462082127718 0.4702030890256483
Ni 6.00646862309596 5.581684306952999 4.761909361738745 -0.47531855587534266 0.7344998956003479 0.9463564820974605
Ni 5.101045280140056 2.8351923264846763 9.19682387906943 1.0979042444021865 -0.8807776677553862 0.39466176415422355
P 0.26699904114554396 5.503803275352141 12.294234011337537 -0.03799267719368941 -0.444811388425421 0.1451079202166533
P 3.879878278158672 6.13015141905574 12.832378595878364 0.10337557347487357 0.35306131500461774 -1.7358880126516556
P 2.419189687208958 8.590472533234266 1.4413562793082961 -0.007494508604832253 0.23387885640447464 -1.1592132277243132
P 6.200594171995949 7.619276774727509 5.670253919586831 0.9321804477073945 -0.4741546174742285 1.1643245808089497
P 4.6795338066077825 1.2383426636159796 12.609670221511712 0.17287403458632808 -0.7592737601109182 0.4466096179764244
P 3.967713079021785 6.06012340650146 8.271113419974942 -0.1978862403599495 0.026903509259063343 0.7051363548365662
P 4.806047656506284 1.2303724353298995 3.782254702578141 0.21893766171361004 -0.6809602718109949 -0.05954983453917486
P 0.24269345131113823 5.490441422049006 3.5300925479343768 1.4249951034849717 0.6421232443391394 1.0465276897024234
Ni 1.527398680416576 1.3054043808013456 2.562590683690976 -0.0569242239908697 -0.5978930708761703 -0.01471339495077466
Ni 1.997813455106879 6.585482266231777 4.643634419767641 -0.5935160248543973 -0.9743848489895864 0.33151367074082905
Ni 5.942147798895852 5.820637881914516 9.252180901276303 -0.5760325233576531 -1.2670823181941662 0.5548661736926831
Ni 8.365421777296659 2.188494855584602 10.029330452522117 0.3745994461867097 0.7755197896561353 0.013693695437008675
Ni 2.375209174109978 5.2654627948741695 7.066044656234277 -0.5231516161982216 -0.3304574615621728 -1.141037842366867
Ni 0.5329711490311507 0.09345543470196198 9.079511856081307 -0.17926682548654935 -0.4555352026008284 -0.33281619160233644
Ni 1.415121245069794 1.0145992415035778 11.275003201654595 -0.45452295928623015 0.3627795707336462 0.03263141288177606
Ni 4.258283799840551 6.912459980058677 1.5841360668209574 0.005974215305563905 0.814002776222682 0.16867490890331593
Ni 5.439491467247379 7.703487105261432 7.884563659366801 0.03167830493988738 1.2118632498198614 0.1823243813659505
Ni 5.41946671948337 2.970767352206154 4.886743513074241 0.5954628641681229 -0.04302741140411945 -0.0720561945363017
Ni 0.8480602395344932 7.476993774068426 6.874623935938162 -0.17300670350945047 -0.839026037739897 -0.11335068240971446
Ni 5.031314798732201 4.48925813042064 7.099997468089166 0.6321717895533823 0.4176307142455711 -0.08512973989080823
Ni 8.060749883356367 7.089310690275261 9.372659376950029 1.0019954116180034 0.4396218738046816 -0.8943443506962276
Ni 4.505288747946263 0.3274339282514203 10.411921245663724 -0.022478897828806448 0.11979309560094852 0.04764871222621471
Ni 8.229296769759062 7.054797077289838 4.887166367945979 0.04805366097411724 0.23438459239629958 0.13163431121025074
Ni 7.0917450360187475 6.086847113107728 7.099482649044894 0.7907276077448252 -0.21555923215968037 -0.40649475223340953
Ni 2.496385495563503 5.249603483160125 2.4756033957904098 -0.5247508423645414 -0.183397045604839 0.055989113771110016
Ni 2.46912082323646 4.893242314599814 11.212731735926688 -0.5491927774569897 0.49454372265354185 0.23166462236197521
Ni 1.2415253452732038 3.43747651170915 3.7818192251729172 -0.6952229523775962 0.33291492196372985 0.04485675130337436
Ni 3.5833479183160386 2.7201108854852123 2.635116154656166 0.5829511048543573 0.46782481860145886 0.1667465815323515
Ni 0.8313948888964949 3.4511899927307876 7.975919245462622 -0.006415673718356692 -0.18651296552600136 0.24154665736237757
Ni 3.7961277684874073 2.5723460988556126 6.896687222859957 -0.6069832061028966 -1.0326892411574344 0.3077422793528442
Ni 3.990604945105899 6.882337205506874 6.103451154297372 0.6464123586327964 -0.5835226610871113 -1.479633616765458
Ni 0.8007753274911142 7.40388225690573 11.354390822787812 -0.2274806661876147 -0.21863144332710088 -0.5051880897412655
P 0.11771864888824037 5.611536598644415 8.033968473739883 0.10982595708590762 0.34261106620557125 -0.31101786478032245
P 8.317041409668711 1.583586986614371 7.763134887243582 0.10959584335297255 -0.29311373080639197 0.8507960337916315
P 1.4802715500417563 2.9678190890279317 10.260009055174852 0.30225811630982136 1.2660358792075228 -0.5187761128383452
P 4.053816789578419 6.220077954039183 3.764215299009375 -0.36822953810462394 -0.048961260390051164 0.5170125931800192
P 6.754597166641283 3.9495907273758335 10.39315694802912 0.11365895767875264 -0.0903897027381669 0.1937472784909115
P 6.248000801326501 7.714901481969778 10.405349413765846 -0.7012264782591988 -0.1189006656936662 0.23249740267591573
P 2.4153307984007655 8.516982340067027 5.638016870676335 0.6238866667264545 0.6014237097372481 0.8278342827891355
P 6.968008143486889 4.111781266559425 1.7480171238819693 0.45829348207225584 -0.18212512087095084 -0.9098020800121944
Ni 5.312454683818795 2.951454875974498 0.802794932848673 -0.3666339114827299 -0.29255220187596714 -0.9298862523565793
Ni 1.3255733860908943 1.2021971373728857 6.892398266303749 0.636631882207265 -0.7434172526946358 -0.12069915235498567
Ni 6.815717276993475 0.4316446630919173 9.157671485028365 -0.7330659913672988 0.6443392781538516 -0.6630638511465483
Ni 2.587186591795531 1.556322314287328 9.074549397202732 0.9563331336941981 -1.0743503683416467 -0.7945783489494832
Ni 6.595661437877688 2.122704407843057 2.6610455432624307 -0.22788535782520108 -1.401413973730922 0.17309669212009546
Ni 4.057792887626113 6.886466577175454 10.677820323177025 0.3078217264405279 -0.7288457826383641 -0.45112190402448116
Ni 8.171521630780326 7.240754043806129 0.08417606937160721 -0.07577580947973402 -0.07000805375802137 0.49522532210159875
Ni 7.38117071272854 3.8530012979315167 8.269345363677544 0.2252890578529346 -0.336592113705001 0.013950548642821137
Ni 2.9588210258723797 8.381524523585052 12.368368855322032 0.7317459870042946 -0.2805284379422136 0.31125466338147684
Ni 0.041794109977516036 4.8052722723065076 10.155523329426293 0.081604243236053 -1.0089484458970688 0.03754710501583856
Ni 8.624652550691879 2.36833890945614 5.6731571022883225 -0.07887630278192867 1.2053089936411114 0.6000090887779086
Ni 3.3666640988597467 2.5499230697295023 11.316505190142893 0.956007117813347 0.2324441808404771 -0.031821515385971
Ni 1.1494078991206245 3.3490736968392234 12.673102960320213 -1.123418329512891 0.24717737328559364 -1.1719126775688529
Ni 2.9103775455770085 8.143815169781318 7.820075135793253 0.4470963278048558 0.9696398781054333 1.3509110798853636
Ni 5.5706666384398895 8.040490717113356 3.6211713399030687 0.30101601637260417 -0.3354338317308417 -0.3920708634985957
Ni 3.2100364905047885 8.294465106921715 3.39371238489848 -0.3471416070860731 0.839706094526057 1.000518827072477
Ni 3.19769345597578 3.9629615967743144 8.911315695787582 -0.876880132473193 0.7997994881391064 0.714503397873763
Ni 7.275087334884628 5.939650340484943 11.388752965371419 -0.596984700129288 -0.22944756010599843 0.3070812487300776
Ni 0.5944401822732414 9.073257390739617 0.1206633056283238 0.2465939899782979 0.012569094914262226 1.081693438970279
Ni 4.776610105200796 0.5335580968381912 1.6996403626921601 -0.23241152783032876 -0.3803695159012675 -0.597886386007951
Ni 6.086612694628727 5.723732889133081 0.3778348028464613 -0.45368529387628315 -0.2080007030861321 0.5480941450761723
Ni 7.930818933321639 8.974431969649432 11.165239453690345 0.4250342057984938 -0.05520724129976298 1.2190003750852747
Ni 0.2288735803644148 4.971285635916906 5.831376953081428 -0.1961746569854815 -0.4917036821015854 -0.25216042832248187
Ni 7.797921687917996 8.731664586356453 2.7436131412242677 0.6635027384561798 0.2320117212887488 -0.5687994959443237
P 8.581420373506637 1.6610172134479182 3.6504006194060588 -0.08788262004559703 -0.06004400056677402 -1.0676469881795418
P 1.833531181802959 3.3218360727982192 1.5038125749908005 -0.5983682107403759 -0.5463288256456333 1.092624484060486
P 4.789872781455122 0.8066907876477852 8.184560707870066 -0.8353645297279098 0.8976888416884282 -0.37404125969039453
P 8.551964790010455 1.7760265256846122 12.4328709030386 -0.9779761658852704 -0.5986656873761367 -0.7348997021419279
P 6.487783857059872 7.666412921197675 1.383491880985634 -0.8237012344573684 0.7127913002786627 0.5813637057625795
P 1.8684324868882713 3.252529347871638 5.931243733184104 -0.4709196554766986 0.05975912233650353 0.8547694166170827
P 7.0797806774942815 4.1175245192949825 6.09339640476724 -0.9435107851185491 -0.6240031376996609 -0.7541495515104754
P 2.3740911782870437 8.3165906049014 10.129210756767813 0.09702032068080711 0.47267314783269565 -0.3696189622529828
