# total energy = -381174.2527837343 ev
CRYSTAL
PRIMVEC
9.18392686426860 0.00000000000000 0.00000000000000

0.00000000000000 9.18392686426860 0.00000000000000

0.00000000000000 0.00000000000000 13.44160529140703

PRIMCOORD
 96 1
Ni 0.95038032528874 4.317079415248424 3.084176696593045 -2.16204321942847 -0.1396201576292047 1.0259200407544007
Ni 2.4982210263073967 4.1163738729964585 7.105205793896394 -0.4919736479335204 -0.3938626652916959 -1.4153629797118463
Ni 2.8493868457952884 6.004929084494005 8.604657301560453 -0.7507718932874942 -0.6470942151911694 0.9351680695808089
Ni 7.702091255791545 3.796966073326783 2.12827683113347 -1.5051597860610206 1.8299027137369195 1.1421318467619943
Ni 3.0033094635377124 6.2387794195522 6.368780662447745 -0.40818293856911 1.1755333050405754 -1.7901310902659362
Ni 7.181197280068704 2.8176839295395104 4.69461504454084 -0.8762898071873618 0.4166760636417856 -0.43460179488227085
Ni 6.588641121395735 3.3917803947958753 8.92431214886839 -0.2888647257220509 -0.5400275660179539 -0.05814832620595792
Ni 1.9285328460460414 2.797571129249778 11.311635418984658 -1.1498497842315423 0.6435694898673626 -0.8822550236318613
Ni 0.2747426887431542 4.898467918600701 0.7121676248708999 -0.4232004950238647 2.231458633907815 -0.04800763822753022
Ni 1.2868334936057868 6.570319186885226 4.356827451620095 -0.07952602055078561 -0.5500906066809107 -0.5070559961879397
Ni 7.209098050516286 4.297738064832819 6.69721258885929 0.7605973640183481 -0.015469813500824972 0.027806223578990825
Ni 0.9303134446343725 1.9603459694266951 4.0239055032625926 3.0484282060683046 -0.6294050254415224 -1.459218543444216
Ni 2.8088489916953447 2.8721354331549533 2.554818813679785 0.24670454741423317 -0.15809456228430838 0.5178620856645081
Ni 8.40849137446064 0.8471695160576592 4.961417309936733 1.751934267481241 -0.6631201583057806 2.0341364935814514
Ni 5.163240536113475 3.5724466081746917 0.7426004040124913 -0.19008705603050488 0.3463872454185518 0.4846920266704427
Ni 3.6328125608251067 3.2636554282013313 8.980968713374045 1.9414083725180955 0.31607393914699117 0.6156092572090107
Ni 4.537732447102808 6.260710637402373 1.2114959030410701 0.5986428045580012 -0.2378823211369129 -0.15239159836226013
Ni 2.6753238759819133 8.299560815448533 0.9358568630155972 0.6212152905418786 1.1983343620954912 -0.8199109141770009
Ni 1.1325067830721536 7.366069732046926 10.212998958957495 -0.9953786776324342 0.32495915745176296 0.23193098864948442
Ni 2.6002820078689455 3.2782946079555924 0.14426847360335276 0.0213848934336793 -0.2869492538668929 -0.06487921717188827
Ni 4.906292624466843 4.106289921070374 6.899078979493274 -0.9732214248091043 -2.1769787576923796 -1.3456847984894178
Ni 3.2463437256688445 7.3425956144484985 2.9213851604762855 -0.6316485700600606 -0.871973439200195 1.8192650315174153
Ni 7.251362482905942 0.9026441091490279 9.335947699382622 -0.774523487181137 0.6284850847304144 -0.1452210487557499
Ni 0.8306742646419571 6.975605888613936 7.861054012711596 -0.3171291198843829 -0.02030914387099728 -0.1840125677016508
P 5.254225701625062 2.003115517805363 10.080572240921988 0.925045122214194 0.33954733967858297 -1.4812266722841911
Ni 5.2823468863223955 5.548570564312692 10.812346631700903 1.3718329176396955 -1.4990780986433152 0.5070763079029139
P 3.9550490100332474 7.726511317878484 7.933074368817569 0.20785209332340976 0.1070856753366091 -0.9984141220246483
Ni 7.6881225027136075 1.1585983198863674 11.695729290599859 0.26985090362370945 0.0337747824575999 -0.6844808833697438
P 6.507188872185857 2.162548491791549 6.773802867076755 -0.13920980956466347 -0.4380655850611552 -0.0972054401084197
P 8.871820495290311 6.266266913281501 2.6324716722595896 -0.25833493256430995 -0.5772753946258188 0.4014304503366247
P 9.177516691840093 3.600420850038858 12.161615216726636 -0.2980258233960287 -0.1016994713240313 0.6587701088672009
Ni 1.5273605436460072 2.653723279506366 8.675978760816173 -0.5528226609000931 -0.6898370054753346 0.28857830482988367
Ni 2.098389577260011 9.042871137023763 8.220684657782614 -0.6724599476494676 -0.7495272222471155 -0.7356409511833265
Ni 8.602364074970339 8.178700335168683 12.15555290646579 2.164271594538356 0.20831129234801543 0.4816558109472801
Ni 8.659377894239134 5.847011458474854 12.133952309990242 -1.3154136583097022 -0.18254266802434368 0.4597063032593825
Ni 0.9394239002907261 8.78310375976574 3.378775954060596 0.9622268734708137 0.11895440174973707 -0.16536615624505716
Ni 4.270232203249372 3.1182554947825922 11.47371428236056 0.22902667051849585 0.9249566762654458 1.7832976122838708
Ni 8.64073452228107 2.1801081603550045 7.57177775937552 -0.44800829809616394 0.5290044754345727 -0.3512306895537822
Ni 7.898967100454096 8.364518731635417 2.8843133204536677 -0.20347633285321728 -0.21411504351398608 0.34845672635307084
Ni 3.198725063795666 1.0378113110231002 12.415258751412424 0.4544337420065334 -1.03166877031272 -0.572429379387427
Ni 0.886074467924035 0.9147962814519381 12.234213241845497 0.5324096444613798 0.028635404348505523 1.4818295959755123
Ni 8.277758172577382 5.169283560127467 4.661373820500344 -1.4808543765464368 0.8272203033542206 -1.7521695234204986
Ni 3.4874309952605143 7.867842771603912 10.046860799815358 -0.02129156238892462 0.14006778668958458 0.08554163061724622
Ni 7.728182792605758 5.658492987448676 9.548795311617717 -0.3730254168313704 0.3131778485461187 0.9867739666825588
Ni 4.811808382740468 1.6745697106981143 5.207869829724412 0.6433699722620468 -0.003720386274380689 1.3510925997685506
Ni 3.1103481335727934 1.731317196081792 6.929000213896903 -1.6375538582554312 1.234332634566971 0.052449733159283855
Ni 1.8998789935784777 6.249983810581183 12.88761016219855 0.09187682880665468 -0.9650458309768476 -0.10241912309887523
Ni 6.654223544623578 7.371800502540438 11.59776709569096 -1.6423965310597133 -1.2731439510072138 -0.047779838487440295
Ni 8.821106849993553 0.4118945372576881 0.6245024489961798 -1.9621111522830856 0.2364062508120187 0.5311675445241627
Ni 0.5007141327654764 7.481557614989108 1.0645686825501022 -0.5488335943453581 -0.8047084954049496 -0.06607349459030555
Ni 5.329396144717052 6.428822422472485 6.691285282326416 -0.27537748986889343 1.113338833789702 0.4994941246802817
Ni 3.1355396455338598 8.83851039179677 5.793990810697373 0.5863871271190998 -1.324896143878841 -0.36727514461115457
Ni 4.238960931566022 7.006307756818765 11.995195111023358 -2.593360687132514 -0.9022214394514592 0.4301278182713173
Ni 0.6725233668751527 4.999178862882529 10.474949355680756 0.8988047004604263 -0.02187674546843329 -0.7828302072746195
Ni 2.9261277404167503 4.916082690726594 10.584363907649607 0.7936905470278911 0.6433275490598857 1.2153128989313586
Ni 6.45863344975124 8.866227483702893 6.80149240720166 0.13366496848703432 0.8521057537419905 0.570481768742753
P 3.764105982259814 4.99912375932009 13.00604424894573 0.5921209442790833 -0.046118391624617346 -0.2266373443507129
Ni 5.3778689118080125 0.1202846480523778 10.893399380083107 -0.34065959890615527 -1.2558165154723597 -0.1746424393406605
P 5.625035941121966 4.082273951774644 3.012881870725835 0.3378586391222504 -0.39232848803535664 -1.1923208089115596
Ni 8.913515524201445 7.723618380850509 5.842447965112311 0.6435106116049693 0.9228828244555525 -0.4182742613668409
P 4.776459447436733 7.628445344593662 4.526823778525574 -0.8170886142368573 0.3453976278117729 -0.2833350541530733
P 2.1035968639103664 8.134139921010792 12.034699773327599 0.22793138057178813 1.766576442874448 -0.2529633838397515
P 3.1179524251891855 2.9122049069741776 5.113684065627907 -1.2407920170390696 0.18865212335619122 -0.3586930593690984
Ni 7.392124533152848 2.5113632259487693 0.08952859467781908 1.2003863595285134 0.7466457869342625 1.0048004851669663
Ni 6.044465890542999 7.606192689295937 8.893826102949776 -0.5446619794661717 0.03770857029436731 0.6023637050530142
Ni 5.459679334173735 1.8882337740499937 2.975823806593827 0.9186039945745406 0.26483082470129876 -1.1339966192493696
Ni 5.112526890816716 5.285809226828892 8.716854583432402 0.26371213771582325 0.7752701355391745 -0.13603295449857863
Ni 6.411933180585355 0.1615994623826922 4.50635188668729 -1.7082656229486965 0.618618990569612 -1.6086988816969519
Ni 6.874105126603836 3.7606620096074628 11.517251607042523 0.2296933575682173 -0.29708222853583677 -0.4856356215306346
Ni 7.153498556016726 7.420456948172858 0.8586668743602691 0.9074605763632114 -0.26460302496120885 -0.7427749911249467
Ni 0.2662365354881999 3.3799147610176403 5.438016286994091 0.24412547383314728 0.8508960497046055 2.4694419993989665
Ni 3.0723358594179073 1.0574098113967478 9.809119234856361 -0.1729586238803344 1.3706108723071362 2.493034699117242
Ni 0.30436728230232707 4.637194377302715 8.056105011064755 -0.7759774460188443 -0.8009184322348981 0.543556919327451
Ni 4.037318628752617 1.3589181372012693 1.1534608310817667 -0.5039125654629516 -0.6529115932038948 0.18544184394900967
Ni 0.6361990985162723 0.9541916550240087 10.084295404957356 -0.7773478440038096 -1.2964165483819092 -1.8941820925412796
Ni 0.3713557647650369 2.836327301497572 1.2086305177943137 1.4304445566353172 -2.4858448662370223 -0.9429677681308856
Ni 5.311037474498249 8.287144146045923 2.329362587966255 0.18796975257718596 1.0529423349795155 0.5121316109386341
Ni 6.805289961046319 7.218989139973839 5.072969880128163 0.8178869417684365 -0.6864202664843017 0.6242579340229443
Ni 4.584533739466496 0.6682041659727505 8.238884446063054 2.3786553183326973 -0.6083698020377781 -0.39084701839382363
Ni 6.300532145190628 5.53386709706892 13.041314202476638 -0.33607686463147923 -0.46161457602568884 0.4358865751319654
Ni 2.4465430686679803 5.245381579853823 1.7899914693653718 0.9915261366555634 0.8857506954899454 -1.15499224766443
Ni 7.517824943000137 6.502165264076961 7.3778692415502345 1.1234036742248716 0.5614073172453106 -0.15208640841701548
Ni 5.588373704246802 1.3043747943150965 12.854046582317794 -0.7549003136335708 1.243651855085368 -0.7946122875112122
Ni 8.67781921980159 9.07068925212769 7.847988958057637 0.726116299522343 -1.0866322710327931 0.04485392308989694
Ni 3.415833099799897 0.5988857212116365 3.462880521409139 -0.4892238531025252 -0.19173204783309558 -0.02142834507710503
Ni 8.245439933207717 1.6338298102025657 2.7249492259205286 -1.469190052834631 -0.9619661636102596 -0.3099948228324468
Ni 8.796457189729791 3.0362797617295567 10.003457560468657 -0.9912037203191381 -0.15139375322536508 0.004699205247882229
Ni 5.255777785300388 8.248681859464464 13.29817027485254 0.41928907578460045 1.7827574235096846 1.8669142579642624
P 0.4096306992342091 5.5855726064895554 6.195693025689517 1.1948296913763423 0.3358688623857312 0.15775980465270895
Ni 3.0109045712270315 4.816887094411802 4.272562165547777 0.05627810576643855 0.3469593158719379 -0.36290221235443954
P 1.3711694959165674 0.9701992399121379 1.660078392169727 1.9817821483494513 -0.3043944459265338 1.157615029999258
Ni 6.562081204300801 6.243738740171586 3.1091781012637014 0.6506415662227957 -0.8679000404617698 -2.5949159474347763
P 6.506894986519524 0.6266689373926856 1.1938985803766156 0.5400987855755215 -0.23708939292197234 0.9763059772716993
P 1.1367589413069235 0.38990362388154043 6.290227779014793 -1.3364311411016339 0.19785770111485923 -0.32734077031006203
P 7.847482005283211 8.110224974912866 10.094484053652073 1.672673841887016 0.40797545054399414 -1.2512849461505935
Ni 5.317851948386369 5.211134715798841 4.741755223813519 -0.2929607501682954 -0.3050377359374876 0.6761533373406549
