# total energy = -340891.64625676343 ev
CRYSTAL
PRIMVEC
9.04733566143260 0.00000000000000 0.00000000000000

0.00000000000000 9.04733566143260 0.00000000000000

0.00000000000000 0.00000000000000 13.24169025921167

PRIMCOORD
 96 1
Ni 6.353229229268858 2.0300321711172367 11.430094696425533 0.666446394465536 -0.29171427935570404 0.9659616579228977
Ni 4.5246269435586965 0.4426590012267326 5.979443976948427 0.7571268889712445 -0.7158313726565672 -0.49049012140945847
Ni 2.9037967256878043 1.5774482424609513 4.584630684395779 -2.180169753825852 0.2579934900644911 1.6103541579121878
Ni 3.32395500265082 4.361964892277085 4.710069281781849 -0.3841312969365449 -0.6292394463979356 -0.024883907725873275
Ni 4.832543971942831 4.65968557315611 2.661407741411931 1.0431775422832679 0.24204030916934444 -0.5429154290887102
Ni 7.043577144113517 6.004065396735833 2.5505615920214173 1.077232574985448 0.3047232900208623 1.2381543223059062
Ni 4.999042093625657 4.622600543499104 11.772207035395574 1.1369639294078095 -0.7490358844329938 -2.314686271679904
Ni 5.675285211877177 7.57464671128518 12.327736075042893 -0.5770033719113548 0.7458325470043478 0.7900907454917748
Ni 1.8327550128661911 6.186785391601145 0.23902337533895995 0.3138113683650596 0.3514209511877174 0.5413807376117385
Ni 2.8409267888528342 1.5157363646150268 0.20161173685769887 -0.7540032557405982 0.014925768071896873 0.9133890260325045
Ni 0.42949422282860844 8.857586077094535 4.85276205337111 1.4398951605252555 0.8233507930964853 -0.29802916583013833
Ni 8.610503334978688 2.1942232221578224 1.36324532829814 0.05172802450191091 0.9259794611030052 0.0703006452977757
Ni 6.9956715007776165 0.49469113444469126 4.893652392487434 -0.4751560621555494 0.16652803776364225 -1.125951123237074
Ni 0.5129450392595185 7.38173941625061 1.963769483337798 0.2309827658036022 -0.5874564489238786 0.6711733676275603
Ni 7.455918522900475 3.756100999617625 4.025328000964624 0.6540385077194865 0.4642358156986199 -0.7561568117484914
Ni 7.639742292739721 3.963438795336002 12.702250542632989 0.39746349526907676 -0.8280721098315545 0.3608065061676754
Ni 7.963265975468413 8.695901138084931 6.912228826948974 0.13363102992530534 1.2057036579763687 0.9517771388923995
Ni 6.859255770802416 0.5284630297127262 0.2679585648605602 -1.4534132496163485 0.16188051168930184 0.8012938132964458
Ni 1.8531386605405598 6.797552940292343 9.345402141025355 0.35831742119723453 -0.434324115740852 -0.20413170704902908
Ni 0.12377931599082913 4.769981644526828 1.5050369852365502 -1.0779918217489757 -0.131266900568503 -0.01498490344460645
Ni 6.496032378355512 1.9302219619988907 6.597777812612583 -0.42930917902476384 0.9743326555954123 2.0497500317489923
Ni 3.5983697463753077 3.9605255531916845 0.15668628595142087 -2.214223500976451 1.1294683923617128 1.2087848680048539
Ni 5.795080985892407 5.573584109565781 4.783865686125179 -0.06795939875910877 0.5451810851944353 0.17656793849814753
Ni 5.497948381843756 2.8155309171165035 9.429513412973455 -0.7432120786623652 -0.37830774827623237 -1.6425654525374098
P 0.13521695797482233 5.621715936297978 12.242976109114212 1.3705177983726975 -0.23218681341403238 0.6700595657380911
P 3.9803211240356786 6.153029781537643 12.794267376648493 -0.46449009780127104 -0.2550914859263477 0.14482741286175704
P 2.3018231874446684 8.45111641927547 1.288957653618051 0.06899478200215858 0.4643795403653357 0.37241940781625543
P 6.324096807825685 7.591411424618781 5.772900537317848 -0.9075402805612113 1.0908733056973343 -0.18149442926548745
P 4.705347477200735 0.7872213587454723 12.575672885663161 1.5156231474861896 0.7913215325750824 0.3334165441904967
P 4.000270499589155 6.30146037352419 8.279247799030948 -0.5727250562509749 -0.4262238552312208 -0.4876585654979343
P 4.687162332138381 0.9878062229839786 3.756906212508446 2.386765863254973 -0.437701259743201 -0.06695743985715565
P 0.04537962716604422 5.893733136021709 3.5269238398863063 0.6562761388007536 -0.9589631151178775 -0.20278959119883785
Ni 1.4211012316039773 1.1383448442240218 2.583029766193191 0.14299293075617953 -0.6609439765900682 -0.1696015344826434
Ni 1.7927567410648668 6.4884688055833095 4.926597361258604 0.14781812005896477 0.12477203687277864 -0.6123282724648939
Ni 5.96435663968177 5.434915592963452 9.205954648806177 -0.40086480764114185 1.880997989750838 1.2983741863289122
Ni 8.554563657406286 2.31948358702761 10.069511094335027 -0.32607090245870296 1.0216748923248018 0.5002248321987193
Ni 2.4640238245978328 4.985317285138299 6.870411135907829 0.19237045274804287 1.3942241408507021 0.7671721890223885
Ni 0.596416664562888 9.404162777916383 9.29107198450101 0.08335979247457902 -0.9373619919083341 -0.7766011956457722
Ni 1.3819081726934737 1.2603029315078604 11.405624367146855 0.048521601749471274 0.2971192524213593 -0.05305291396092154
Ni 3.780139770976168 6.908274236448101 1.7126805809067218 1.1834476747916458 -0.35562496196673593 -0.7890183383632025
Ni 5.7899240044568145 8.144194597835044 7.920186181075926 -1.7308535355515415 -0.7810288923998225 -0.17121618726793095
Ni 5.219679473046352 3.0689739363362487 4.7562830733134405 0.37792825344962655 -1.122344636832738 0.23158003306796887
Ni 1.0159977214985512 7.625773206184362 7.140541966106434 -0.7885835648186289 -0.6281680677106278 -0.3135894821622406
Ni 5.073384052320858 4.540948337435554 7.252473795799179 -0.06192244853640949 0.018287228344962055 -1.0909278130843534
Ni 8.215288562959408 7.41166800324875 9.163236747847767 -0.1004576284971302 -0.1153206616518917 0.6613844065615964
Ni 4.775916696845686 0.3848456203993992 10.395720026344568 -0.460353192814762 -0.9447145756186633 -0.8677007799667701
Ni 8.352744736557579 6.909839425550482 5.273596166322265 0.09428338136561827 0.2123078151019182 -1.8635849364807133
Ni 7.227581860669799 6.28328427579769 7.109847974495222 -0.6187215775857474 -1.723180335277 1.7319213146944237
Ni 2.352108280109622 4.958817638428035 2.3578687188465377 -0.025141275152317993 0.6544223734214665 0.8436784489102438
Ni 2.3565957586921726 5.394564475063903 11.274822509067766 0.07308515002144833 -0.43061529943069704 0.4143535861561961
Ni 0.9026092707336486 3.274873205654171 3.803569656631877 0.138327149849394 0.7472016594377325 -1.0250450943486153
Ni 3.8541198362372917 2.5876013849991644 2.623999721865011 -0.26738444436108794 0.21254127126896297 -1.1436243721471206
Ni 1.3148764613666222 3.4186625143486844 8.1384359685653 -1.3949587050238814 -0.01025690184131782 0.7682399681652705
Ni 3.548663683204877 2.72611609689201 7.012283314135321 0.9111940752637147 0.0989843863857134 -0.2573766824160987
Ni 4.074594363612651 6.896268421772607 6.119342931226616 0.44887475986151726 -0.16918912953557314 -0.15253300903613085
Ni 0.9069592298112502 7.7424838386740875 11.648384292192654 -0.6829379643626561 -1.1258881312096223 -0.8214090959890822
P 0.21287205105899448 5.823480573131574 8.122704460985988 0.4376161562285625 -0.8240573322452065 -0.9296499679760571
P 8.417822223340417 1.7577797406613564 7.88329476440615 0.6937260561170956 -0.38922465229905223 0.1930296835985966
P 1.8990267479814815 3.3773976155280923 10.47162174574064 0.30351435731442566 -0.9062531863186714 -0.4184400975207439
P 3.739535327672765 6.177602345711449 3.7793635095600733 0.25580548127423686 1.3029278671378657 0.21150614513622928
P 6.917583945039723 4.0048213095226695 10.5772901048231 0.4503001794541342 -0.3744112414353036 -0.9116597020462234
P 6.258177918808619 7.6572579349490315 10.186872230272506 0.9782052511769411 0.22048006650006544 -0.5054565129113037
P 2.563245956885804 8.473182871418295 5.852681754327221 -1.6432961600558473 0.8887473162244242 -0.9966202633490191
P 6.8569939368394355 3.772874760287079 1.8052393503397566 0.32660414925435366 1.2803831490681303 -0.6865992152643271
Ni 5.420168435524828 2.733344918237692 0.4284610170743196 0.7782775549069306 -0.8496480362301174 0.3114814346803023
Ni 1.655970070319737 1.269431693382444 7.130650513819534 -1.4476390661367324 -0.6564396609618114 -1.5397403522493676
Ni 6.9758397405902155 0.6155608272255438 9.16767265661596 -0.007260795327471366 0.8300109787254802 0.15373551398466426
Ni 2.7924059266790042 1.68892951482827 9.273805144027627 0.4195233032825936 -0.2860681368135203 -0.11239346070276773
Ni 6.52972465706805 1.878778810344892 2.6766751206620407 -1.1185162642255833 -0.7036068055659173 0.4644723571894582
Ni 4.25036600454369 6.8362393483951385 10.41187494924175 -0.6801213208494674 0.3361267440328082 0.09662514212491746
Ni 7.847025804442986 7.060179005401784 0.1486233002401926 1.003345754998311 0.7705197653383827 0.5596923914367329
Ni 7.587521070202458 4.085107367872578 8.267820109116393 0.9574662188573768 -1.2720520034946157 -0.2959594277853032
Ni 3.1340333284473822 8.293538970742636 12.393891099525694 0.713067436758185 -0.6242646188911637 0.7481586240343632
Ni 0.287697137488687 4.793929942526852 10.00715595091003 -0.8124169197928008 0.23613371387692236 1.1002300643218859
Ni 8.712150153274974 2.5585322949069558 5.82981280349433 0.09917284824743565 -1.5546355241936451 -0.0344286139915149
Ni 3.8252950242130845 2.3925951080469496 11.31883779798734 -0.17892435454546604 1.2613284464295247 0.5324368981548895
Ni 1.1284922954812846 3.3471704664468382 12.664287016664762 -0.27221246187735054 0.6820205947547093 0.21358925291750314
Ni 2.9733797857248963 8.544213505191694 8.020941836790797 2.201672660894634 -0.18790058990214736 0.9484223634875536
Ni 5.612216233653466 7.867997528947729 3.7467632442848617 -1.2115565172127198 0.143643676966301 -0.8815531124688302
Ni 2.9510781028499213 8.440015338185168 3.480936231751013 0.15273278375176277 -0.7380050805401289 0.7596501696137304
Ni 3.6029838876597853 4.3533970652253196 9.295402039439736 -0.5591396042570563 0.02746683796170108 0.16917935934356024
Ni 7.306908901419406 5.985717399628146 11.343652830761979 -0.5874731610944269 0.4673627913633757 -1.0058824053772353
Ni 0.6094185909156776 0.17784438557471346 0.211991745280603 -0.7729738833058301 -0.35769829955599686 0.5481851621280818
Ni 4.46616305928361 0.28214478747636573 1.631773875317371 0.791662975074901 -0.3271422811460108 -0.41735457776604895
Ni 6.019029690234904 5.436869817507466 0.5670969632675813 -1.142813189099735 0.367795793001315 -0.6516098436733357
Ni 7.7945060198226095 8.89130549781463 11.421487965829604 0.35737536899893935 -0.7744445543140857 -0.7582939126961521
Ni -0.0495459253258519 4.842794603463054 6.124798474745322 1.274048207989038 0.1891709719741387 0.06641879374486626
Ni 7.904476387102658 8.929955716574018 2.490589516859816 1.1321102008599342 -0.35014954067446147 0.24130137412079086
P 8.578448624055346 1.4927380368794545 3.7418107326395225 -0.05363732570948182 1.1434351389544501 0.25869951499258026
P 1.9643032761530612 3.0363944799334965 1.6256560668143045 -1.1243552395048637 0.04283843532176493 -1.0724372104793336
P 4.786022570992276 1.1600584502686222 7.989096119325636 0.24341970601537435 0.22466093735063242 1.4465414621971797
P 8.330198775614601 1.6837453913851215 12.450075959899683 1.243656225960742 1.1871459495788392 -0.5658735805467803
P 6.342508136284336 7.888652596697655 1.571947462262986 -1.2738016391958706 -1.2567418555001066 -0.36763021395772816
P 1.795027622363698 3.173307813380553 5.7422590202545765 -0.1832425223048457 0.23644815979354766 1.5873114171601115
P 6.899579746694409 4.212285767942974 6.105239944100648 -0.4496625458701352 -1.0949207362938305 -0.13682922514762885
P 2.493490997467526 8.663149782300993 10.350182070801116 -0.2358768606711099 0.4263650087947754 -0.948387139374244
