# total energy = -381166.47751624393 ev
CRYSTAL
PRIMVEC
9.31324691603720 0.00000000000000 0.00000000000000
0.00000000000000 9.31324691603720 0.00000000000000
0.00000000000000 0.00000000000000 13.63087825904485
PRIMCOORD
 96 1
Ni 4.003252600808169 3.945668795411348 8.346541158084618 -0.17670549251727632 0.19517449785574129 -1.156535423781834
Ni 4.37708633016745 4.665349947285748 0.4135621778570588 -0.3250398900910273 -0.4785931128615563 2.5851737804463477
Ni 3.305355133362553 6.458773957288951 13.232652309175357 -0.7806722803913523 1.2397617760023423 -0.5794443772526794
Ni 9.234680319342443 0.47108544714922607 2.600607772844098 0.46098671263370283 -0.5694564128020322 -0.04857610913649053
Ni 0.29163035586177954 4.345523736525233 5.031620388861953 -0.6467394029549118 -0.2485472570499268 0.2397833948143677
Ni 7.386894887359415 2.5281367423256813 12.494690185019959 0.05896336590808555 -1.8913981020382393 0.8983154195288334
Ni 8.883617478580158 1.4939099906660216 8.449263477085964 -1.3245583009234478 1.188608907277611 -0.5282480568845225
Ni 6.5252612266934324 2.2570281259418086 1.7791430772528414 -0.20506656015847263 -0.7687652445411212 0.5319787275715483
Ni 7.442262140001192 8.359449318246352 12.083037222771237 -1.3147374581782842 0.08502998108815034 -0.29961630781160015
Ni 9.164365305474417 8.77497845384234 7.084567336142826 -0.3772903627553115 -0.4967458725111832 0.12927789516293217
Ni 8.607973310970626 5.17385322638432 0.9511991558141694 2.02936221212126 2.0215085204047956 0.6953777327879056
Ni 2.911749380898396 8.063027296869988 9.265807984355833 0.9913585007294476 -0.5563239891851322 1.1007517411533105
Ni 8.171601128879717 1.2994121430342527 5.7196933121844715 -3.013345760542875 -0.32052451871917703 2.0975288417951683
Ni 1.412875429650698 0.5517195385491427 0.9345796667747663 -0.9027734553001872 1.7498143929247607 -0.7444006996538276
Ni 6.6491460365573385 0.6206282521398082 8.087840580505562 -0.19033825280936253 -0.7415287774226713 0.11795244284778394
Ni 7.594300895152918 3.4718480476564215 10.389087071261146 1.512548365215608 -0.10956190479124356 -0.9650478878593767
Ni 5.334823385284316 1.5681272549725516 3.7897659741332856 -1.0548981731543057 0.6885447690264722 0.1778779155588227
Ni 2.1248172733761796 0.6227842687901987 11.127976794804791 1.6820647961836128 1.3936903798344191 -0.06378058479107081
Ni 5.256545545342494 0.9849131094833421 6.2349133049256436 0.2772474531980967 -0.017937815425343298 -1.6532136762798755
Ni 7.110561539481508 3.131998356125542 4.956773549067014 -0.5900054405979774 0.08774969401215856 -0.09909751492480998
Ni 0.4073874951822904 6.772146087968599 12.824135117147744 -0.9433804301882721 -1.2854767615409537 2.7072564434124216
Ni 3.67381511927788 0.21015527826950764 12.894783545253713 0.34106943275006424 0.6719097315729525 0.8814749509327271
Ni 1.9583243590823116 0.1764375993015869 7.903374031077403 0.03362951512898724 2.0045425819744187 -1.8862767216512741
Ni 0.16951040627972755 -0.07153877450673586 12.11417047573275 0.2790569956030097 1.1382052580140782 0.7762425267547728
P 0.8554310382506048 7.116717595662537 9.126350494400707 -0.35479603830753736 -0.9982138330883841 -1.637389307653109
Ni 2.5833363565237994 4.494116590335082 3.7552250041420625 -1.5860099247398685 0.17990394484991595 1.1758950592553683
P 0.2950315536186806 2.1005096990456433 10.685627370872757 -0.4084392775542901 0.4510267732075135 -0.6645622900689458
Ni 4.155309982453635 3.3288152022279256 2.7563271231588224 1.6414249111750636 1.2183066914523597 -0.8148491833833773
P 3.1967161086247353 2.949430777734162 6.46283546424893 0.09254634406985351 -0.6960343925352981 -0.19751805838725336
P 0.2643919027412741 5.489628174756413 3.2987408654355237 0.2484058463760561 0.7187565167231622 -1.403285479722022
P 3.5862892251942102 4.039564950354055 12.358858342071297 -1.836041479644806 -0.003861025617303028 -1.9146976959961282
Ni 6.536688580602846 4.459322300028996 0.685647753837588 0.08867272004706019 -1.0691253724972813 0.19275508978097128
Ni 5.652088453155597 7.881363103424993 9.484392682367321 0.5213832114438891 0.3632781076366195 0.7562432008147105
Ni 8.624439131436676 4.374050211687851 12.428321193850724 0.8221014940704165 0.6551679933382394 -0.15144620372985532
Ni 3.7940398231218997 5.499621288647855 5.7894839902537205 -0.9957512304805045 0.6710892925541863 1.5843906439688908
Ni 0.9608663060651642 2.258071209591242 12.806086976038493 -0.7152356480540973 0.19715810394467337 -0.40200380634159155
Ni 2.2350861163162365 5.918167916229705 1.8882859486463228 0.0006805710067923763 0.29521355075821415 0.22625682108284262
Ni 0.14162375117707451 7.281515499026076 1.8967507587264087 0.24308083461871685 0.6680319937851011 0.6167148315683637
Ni 4.380308713584449 0.6327568935385275 10.117164477100841 0.4653303343143792 0.5568441233546604 -0.09098182779621106
Ni 4.171952754610213 7.880189634319381 11.3057089354213 0.10913278767362496 0.7048417064142829 1.1036851127500218
Ni 5.692675583014784 8.916670191721565 1.7635899549800462 0.13216524401305624 1.7063717483600938 -0.10593484956161756
Ni 5.173760093915621 2.3302023065989057 13.5490251679965 -0.7133199190886231 -0.1561649493617633 -0.236484926568754
Ni 3.003019200223781 8.408576695485271 1.6043818623878432 2.288445078595188 -1.823959094558975 1.350203512295378
Ni 6.7082479011939595 7.293343322550896 7.475419161507543 -0.96293109862669 -0.23372356177353296 -3.2736578714382136
Ni 8.759145934163447 2.93493936560454 1.2601186231653003 1.501927395166652 -1.8524502600201322 -0.8141192471958882
Ni 1.6595367730009853 2.4122799512636623 8.909701089088792 0.9253693383228321 0.5636714306891389 0.4528836239105942
Ni 7.669570556355751 4.130154902657934 2.8772326253490346 -0.030007344995367675 0.8032211122261458 1.2116830154882552
Ni 1.3724466249883003 7.615143941647837 11.10763945761491 2.4160563846889747 -1.3671810206899808 -0.4610376204762964
Ni 0.6912468778557942 0.5395443309160737 5.088979745009208 1.6317681048115897 -2.118246533958494 -2.1263933314353443
Ni 5.61153857628389 2.634019045989998 9.608446993324259 0.08485026097717645 -0.3280748202626092 0.2235265666358731
Ni 1.3745607320277762 4.516421816588581 11.100905048803257 0.00468275018765 -0.4477347327198031 0.8170806438170574
Ni 7.137542015663716 6.23621529683806 12.821231246773698 -0.4311274631804252 -1.1613225607578321 1.331927082583693
Ni 3.8681267019722503 5.860034629267556 10.52381529445572 2.047431668028461 -1.5470320008147744 1.690248874656302
Ni 0.2501919952386808 4.377905895892005 8.92436759025957 -1.1681490967613624 0.07416604179045291 0.2110034944681979
Ni 1.6875603328326265 4.6171166417463425 0.008737688213375111 0.06627301219562136 -1.006803117419292 -0.360061914692167
Ni 1.6357786802357754 6.368724173303527 4.917925202398445 0.06347822305930358 0.8763867377765423 -0.6402676791876393
P 7.605374345681273 7.767182696799562 0.7838624613538852 -0.6211486989700012 0.2634110615356367 -0.014057506534330631
Ni 0.5723046081057649 9.23777231730326 9.698356147281945 -1.4991089518812504 -0.07497002574898702 -0.39994409559908545
P 1.8370006921076394 2.732823282033162 1.185063166640476 0.24808882935626955 0.08478341229498301 1.0123173623693016
Ni 6.031957166486597 2.929407296963797 7.36931613389241 -0.057471354743591344 0.4975290305341109 -0.6015931454355768
P 5.740620177901221 5.193485550786147 6.973707102026528 0.2180408609309535 -0.2883875289753162 -0.555671700313114
P 4.215194159827331 -0.011041785488997584 7.794477029401288 -0.31923151093936636 -0.4927269811597772 1.128269486957605
P 1.732012460142837 8.642693095301752 3.2962458465990676 -0.7709064592538402 0.20758264171210702 1.1416903883492016
Ni 7.193887159226836 0.4198365122733355 3.4044890583449128 -0.03248177467778922 -0.4496342637353611 1.3657964816376285
Ni 8.120080247195224 3.850133509019532 7.005889957910283 0.8886424152154438 -0.47468143651197603 0.046964541674996536
Ni 7.068800940516709 5.326543908816942 8.748938615593996 -0.12209474715093165 -0.3867643636840178 0.8367601245238556
Ni 4.330380397114715 6.571222099996573 8.091480197382335 0.15235123204262793 -1.1182833222791708 -0.5002898811086997
Ni 7.25732899690485 0.6117182688593392 10.375320229738005 0.20661513559251513 1.0525954931630583 0.10822287426484586
Ni 9.083908165765028 2.3767406012079815 3.880888644158125 -0.09197993004342223 0.27724385365367094 -0.7091233645087722
Ni 8.766447519709478 7.726595566940376 4.865432949065418 -0.6966172616219616 -0.11871066117004717 -0.36715018899751606
Ni 9.127065751760318 6.001502849221903 6.8427693703080195 -0.07873874876279988 1.1378972398553564 0.5588842937131406
Ni 2.8135318794080377 0.7159716856461037 5.6383039164634035 1.716168422735541 0.5987654461787946 0.6354126650881831
Ni 0.9382537426649565 2.4442895807556364 6.488952602446296 -0.5085618913095048 -2.201672660894634 -0.39886783181577107
Ni 5.045861274650773 6.695311801291617 1.6206157830068308 -1.4047697775770325 0.05848925448514443 -1.8600352714562416
Ni 7.332524152132722 5.605382520102862 5.210648933442756 -0.7129342536144302 -0.07357803049746683 0.21014860266707036
Ni 5.419396980110216 7.8396676971882835 13.382768810173127 0.0019383546732934357 0.7208753628383778 -1.5952432704126782
Ni 4.493008313957559 8.646464960284076 3.9402503483824187 -0.3969744714478002 0.3161909243408297 -0.4299879502593433
Ni 1.6780515077784208 4.400015543961236 6.966727754822197 1.2778459844685734 2.678314820677407 0.7535103752645796
Ni 8.032386714667895 0.5554886095574062 0.19905295667585546 -0.20167836041253007 0.5088958776101558 1.6377634031630761
Ni 4.838343507894831 3.6346156632023146 5.1802514269839675 -0.060307024420173556 -1.1692312740819477 -0.4353826389123534
Ni 3.646387607245915 1.3735921543533027 1.7785023258681896 0.026624801676379952 -0.0701360946954534 -0.363858919840754
Ni 4.075523396518883 6.186622257255645 3.607248687275004 -0.27844275905777854 0.8348371964695299 0.9012480197945963
Ni 4.094820444033393 7.870652869524566 6.104261489886042 0.5062784945919667 0.5109900411350231 -0.10992005946161068
Ni 8.12971945770561 7.656355059047309 9.019906601950133 0.4810932535755908 1.2205787753159882 0.7575104975629083
Ni 2.2217309203047466 2.2466717954224387 3.826842009922506 -0.18367909562163207 -0.8245304152268833 -0.526215599835526
Ni 5.7397726724360565 4.085423377941626 11.831929735365241 -0.39785635983212125 1.1193806691084078 -0.2875377793805112
Ni 1.9886203511502176 7.1925181119369554 7.084076528032781 -0.268684394119434 -0.49964967642153946 0.5864166948054546
Ni 8.410700115771615 6.410279880837188 10.921059732471962 0.4955140569866111 -1.3384101192048756 -1.2470266850948717
P 5.866358323892243 5.330204014836826 2.87956373104058 0.7918781764095008 -2.651189168105208 0.6314860763402673
Ni 2.2938061378311905 5.512520135562718 9.184935473836047 -1.4917319426908888 -0.08937565965135576 -2.0910746015293924
P 1.93189336446543 8.190171743138372 13.454862654193311 -0.30437516265282416 -0.9513989296173744 -2.334881001460224
Ni 3.429305135954548 3.1255070230571955 10.44359750519089 -0.08791038795973892 -0.20948577227209086 0.6978986994375465
P 5.821095944104348 0.8394122536343127 12.098317466910743 -0.011663038160225075 -0.795335795940798 -0.41082448995701504
P 6.4440310874938405 8.391878043847473 5.569781702617839 0.3858202546031936 0.29741415795395876 -1.3007460289951984
P 6.162268116690759 6.096414148073433 10.825616647224157 -0.16179386551276653 0.11689134857312128 -0.4609682006909416
Ni 6.48997333430324 7.302731075395793 3.3422914704487243 1.3501086385887264 0.9022957443328203 1.4255383775829515
