# total energy = -340894.8770729414 ev
CRYSTAL
PRIMVEC
9.02836883812220 0.00000000000000 0.00000000000000

0.00000000000000 9.02836883812220 0.00000000000000

0.00000000000000 0.00000000000000 13.21393039610608

PRIMCOORD
 96 1
Ni 6.279483123096361 2.026877768570433 11.435030964858138 0.7536242751346246 -0.21808919767038568 0.486056511118137
Ni 4.587702281747901 0.40615741043079695 6.110345666620004 -0.5238766672897042 -0.7791496730992388 -0.08118386786918276
Ni 2.6689663117081497 1.6193552688143862 4.740840566311064 0.4638794608004656 -0.376227725818752 0.6387234746289708
Ni 3.4272048162832704 4.287039552187976 4.982827928643497 -0.7352336884425789 -0.08504643614838256 -0.187615968782193
Ni 5.223173030736094 4.4420927537212815 2.6433149109746905 -0.13124864573605782 -0.18492685198580408 -0.449548131779458
Ni 7.179746893382465 6.112205510541971 2.6482299548150734 0.596970816172217 0.0017519496941002083 -0.20208279493980036
Ni 4.819460502509514 4.548979609023064 11.272407476292942 0.9355293095749695 -0.40332175382206675 1.545295477739642
Ni 5.775862668459651 7.737988977766262 12.259249689657176 -0.08395243175325541 0.9897510470330115 0.38348877825653954
Ni 1.9622707632034633 6.375048404232382 0.38807087970809573 0.4088568247076829 1.2047829459343122 0.0663678859022728
Ni 2.7985865990269843 1.6804412104455928 0.33765014984882874 -0.09540978166057762 -1.6061969412107047 0.922085782475554
Ni 0.5577807347507274 0.07993175814923528 4.673093494361279 -0.3754563948703663 -0.4291382006645383 0.25214680147572704
Ni 8.723733341514421 2.3140882289860327 1.3969766201427314 -1.0986619485038176 0.6108794558335093 -0.7925093822355964
Ni 6.957531658181623 0.6004560272281717 4.914168088632978 -0.8397554597067538 -0.021176119856982884 -0.6564036655175535
Ni 0.836234580506542 7.433841297944788 2.6830623035303196 -0.4485721410194339 0.556591383913906 -0.6495483331586168
Ni 7.577744464314845 3.950904362582381 3.804753132442568 0.4681351507530261 -0.8800323049489295 0.01143086754476096
Ni 7.863654839658779 3.814250976160574 12.526343139262451 -0.5671732731948104 0.16027022977938848 -0.8392882902623481
Ni 7.691574135034067 8.566197338628976 7.1711735546043105 0.2351942327817885 0.9328283657040387 -1.228370246335949
Ni 6.937940098421097 0.5435312606631523 0.38493261879899027 -0.8580205765645288 1.0962425404290475 -0.7978945578069097
Ni 1.6749519623652245 6.556455413572588 9.16822069063799 0.7375505095012136 0.05366123696888178 0.5805599789143614
Ni -0.009617921019764197 5.338943800694262 1.2958977143312473 -1.148815943650389 -1.3112489854090512 -0.764253986934329
Ni 6.593273100532692 1.8857282546091134 6.891527061362613 -1.4690327013211604 0.47694117908043027 0.7382817312402834
Ni 3.305222528760475 4.174834987808337 0.44732857670727183 0.8888193071129403 0.5943675742214152 -0.16490155790381278
Ni 6.036078306901071 5.516938086721345 4.750830456115222 -1.0255734560482594 0.8728422149583935 0.5833676235664856
Ni 5.364376714908732 2.823775747290518 9.276535833844894 -1.1315982942205223 0.4059543063489073 -0.5464311555514525
P 0.3135633653856457 5.622028296681033 12.302763717573214 0.09461479656310802 0.18969573412935717 0.10470920468463257
P 4.298090275297139 6.087883085659548 12.815371010267818 -1.2821314992178048 -0.4848012985547973 -0.6673187697681604
P 2.470694309910495 8.55892950194362 1.415555196951584 -0.5122802207013565 -0.33467715607047527 -0.06819002671267611
P 6.163793608455172 7.769371586857316 5.743765012579179 0.03628186515016977 -1.3365663811279176 0.9297612967429407
P 4.793178921651039 0.8893240961101461 12.620333872922787 -0.038808745337081556 0.15416231710943773 0.00431996753159256
P 3.809168004665101 6.281613818074924 8.260542824095966 -0.4887078326980551 -0.6271853920823843 0.16273746037295844
P 4.6389743867617375 1.0152039303373743 4.0209067209967655 0.8430215320525353 0.25768238658197556 -1.766482854719377
P 0.1125873672062963 5.543463433530758 3.5769971874606044 0.23003557139898448 0.379492769723269 0.3687242183528553
Ni 1.2593581011225834 1.1407524234386988 2.697055371950983 0.9699065015032585 -0.24849943453112686 -0.8361826547538309
Ni 1.8980339209471766 6.287464200897422 4.778580049700453 -0.07014637910809855 0.6625758557665363 -0.4641756518846457
Ni 5.848378524679256 5.395488472943191 9.338019926529297 0.08485051808749257 1.51827498328674 -1.6186629348881993
Ni 8.606445805639309 2.261777861588573 10.191521261893907 0.11710629279740477 0.7635893567671366 0.19816880459737485
Ni 2.2194618981795475 5.293883213245053 7.124501403368347 -0.02842688788212524 -0.7729327456552495 -0.5286733173473992
Ni 0.6382866971399486 0.1471596989072097 9.06167691334123 0.17816176534782865 -0.9443335381301607 0.7065293785293509
Ni 1.449432344273898 1.1827253088427012 11.439114495954765 0.42710137274016763 0.02703926350597924 -1.0221659730286072
Ni 4.210081738640177 6.870814178227774 1.7206120334863693 -0.3824685645221413 -0.20554889911152985 -0.5772075175023608
Ni 5.410105401630883 7.679945596337497 8.013746049835225 0.10935827342086973 0.7008662667063027 -0.30249928578635005
Ni 5.248028129363157 2.9194403404806253 4.996358744594233 0.5076200962215257 -0.48821418089108826 -0.3517227986988523
Ni 0.7480174885360005 7.330556761695748 6.990922176438918 -0.17204639647871015 0.32474884121316977 -0.7925767451384221
Ni 4.8234510414100455 4.693027229289972 6.970440419539043 1.2276770769236662 0.3286301785454469 0.4784445030988341
Ni 8.07644445809004 7.242141948453891 8.979935870133927 0.5181294803932819 -0.2346368176164217 0.9467655446104212
Ni 4.7418165329516695 0.40125320063267816 10.227224848174542 -1.2664539405815478 -1.1793855889071303 1.2483526029951468
Ni 8.108305570714416 7.248272210701539 4.862660343199901 0.20032210349495178 -0.6116942384253207 -0.3169388582504477
Ni 7.1139391149979145 5.978937762327628 7.039800860949292 -0.0687042473449333 -0.01423414132151097 -0.403442338560331
Ni 2.0236094991541607 5.153780990035909 2.4273066791542006 1.449959229629477 0.1011497694681484 1.0913096219038043
Ni 2.368466092782184 5.241979122432489 11.483420311792925 -0.07968337206425631 -0.0691917285043131 -0.7846654607111454
Ni 1.2098555563451805 3.341381144816192 3.919397162005292 -1.27128067254623 0.4266429450465104 -0.8532972029469305
Ni 3.7180085673830594 2.4784496784977263 2.5166721796047136 -0.44379580267671315 0.6662659030236138 0.6707992721175932
Ni 1.1642081249400107 3.2094315384106222 8.169049337177455 -0.6833439415518232 0.4445303668498925 0.134700094619768
Ni 3.639290221967379 2.774381542935754 7.1265761224618815 -0.736071868073158 -1.0873200411284372 -0.23945120828592956
Ni 4.011403460257627 6.706181877659483 5.909719066303665 0.7694771830064813 1.249753082887099 -0.13531741648879275
Ni 0.9361154218110115 7.55269074157961 11.2998392713051 -0.3239890802290098 -0.4926889288329902 0.4252136687991515
P -0.004365216195490462 5.491478087401214 8.042447233465968 1.1806765398044117 0.20917338323799461 -0.703402402864595
P 8.518437268982348 1.5973079928073797 8.043477370317891 -0.0003337291903349091 0.09861800418523016 -0.9471149575300398
P 1.886929027626694 3.3284886345221687 10.367147406849476 -0.6504744445173121 -0.17468820497693138 0.5795302520982665
P 3.8861529033185596 5.912976501677672 3.6689664694018718 0.23501734088429202 0.6586608369828463 0.2054321710280075
P 6.854689511991691 3.8806365701325314 10.376277795967367 1.2112279302287077 0.40423860920938126 1.1303775344395435
P 6.284999456282388 7.747441679641502 10.033667460435389 0.1571532814169616 0.0440720506185499 0.9945194149559322
P 2.3762124330008616 8.33258830231395 5.680258565338851 -0.4850877194469646 0.12036876559876045 0.9271953357879774
P 7.053033740737773 3.9144929522071727 1.346856534956287 -0.43894335968041825 0.11342447307044337 1.4983319645059099
Ni 5.333887914304449 2.8294545911105042 0.5033171014533205 -0.02456046294818351 -0.26656194845979253 -0.29666133894833424
Ni 1.3757157150367119 0.9814468603168183 6.812084640788963 0.6756853965653009 0.19322714432138333 0.876909700159548
Ni 6.780846485594759 0.8611718372874401 9.085171436827322 0.4631032447560734 -1.2537426636624667 0.7746304450726466
Ni 2.7821369115229855 1.70812218842982 9.213451914252856 0.35774200830973873 -1.0057672199556098 0.2382813563475445
Ni 6.2298090393164465 2.0499452502239555 2.731967170309498 0.6407304777566707 0.013740746624860207 -0.1668064882360095
Ni 4.243902007240607 6.798072612794337 10.638151945712014 -0.6884509237610852 0.7049671762485537 -1.3105265054207302
Ni 8.225195858373185 7.421481461395406 0.062441099751047745 -0.4884941740253523 -0.8384318557993239 0.5024627203903024
Ni 7.6392457108995 3.745147843254092 8.238198514763559 0.02813506767331929 -0.12066752778610186 -0.2718170262111448
Ni 3.157554532703718 8.216700163564589 12.435378714741159 0.5033440945539911 0.6058807170673373 0.13255090948724915
Ni -0.012850979798678643 4.859140182300994 10.106688002457119 0.9764466166146215 -1.3474694011936665 0.44211867208460637
Ni 8.642180088373024 2.147975275975011 5.849436649473696 0.5480728049199336 1.6944706260471334 -0.9628123136606386
Ni 3.628374924386515 2.5474896128243354 11.595170749234336 0.2650647950889758 0.2239574835257046 -1.011592054167503
Ni 1.1883860959255812 3.3773772502379513 12.679452533046245 -0.14504544240983408 -0.03760058396159331 -0.4411609361570273
Ni 2.854688881216804 8.443546951833241 7.967048619167313 1.1493185943184208 -0.23242206935329005 -0.06222583870944122
Ni 5.734187719217905 7.738052176346135 3.527854874588476 -1.3098947853740022 0.848659704174919 0.837670552153267
Ni 2.996867629193192 8.420560725496697 3.5856129595709594 0.8264350884487637 -0.289606746094398 -0.06464370412231447
Ni 3.4808423538580566 4.341498671301107 9.258154978307358 -0.5487441199553453 0.2369155863482694 -0.4103220963992998
Ni 7.481149949163754 6.17767923929005 11.180609733354187 -1.0270330713129217 0.056522874787392985 0.9401246422551357
Ni 0.689238295070146 0.08995144156961855 0.1775031427777865 0.5218136141130884 0.07601980716974004 1.1960021144178887
Ni 4.630397436636162 0.36637300156409935 1.6581239862188444 -0.08253266858759335 -0.3810806830356792 -0.11052401159419675
Ni 6.393737127137584 5.7310097334871655 0.33402074569042717 -0.6822195981393928 -0.15459477666116603 -0.25355859422158916
Ni 7.982766105981645 8.828326991203681 11.192779974163951 -0.5593028693077979 0.20895921034465945 -0.46142200039890857
Ni 0.20855982776406912 4.892075670783205 5.760599308583547 -1.36665908674824 -0.41164312920356844 0.4485806256598661
Ni 7.776774849070971 9.043807063463808 2.53962500097761 0.9654129845082792 -0.9249049970919038 0.36651075564130425
P 8.320481260084057 1.817699497560467 3.613838348178947 0.39769258056074736 -0.09937416562496434 0.3050783593674359
P 1.7370039394316277 3.148408795359288 1.6410775235534762 0.24656853605700113 -0.0662591282385504 0.2519174590737403
P 4.7666535748416266 1.058829007186619 8.170463179692891 -0.40608671816171354 0.2682740460548928 -0.8126390631059358
P 8.431936469873778 1.590491574549685 12.348523100748446 0.37435750537923274 0.5678471593333833 0.32002855291936494
P 6.275609952987021 7.777298494447059 1.397465957718317 1.082595124848942 -0.6789118739223985 -0.1944785002299812
P 1.6974055149571268 3.220319750885827 5.995094027853647 0.8748628449328482 -0.24591599007466677 0.8784181663842742
P 6.879761291464034 3.962496787804738 6.078539627043803 -0.028490651240525126 -0.08948673130792331 -0.1174554486067074
P 2.504442351562498 8.545450147693636 10.201867772255918 0.37943569123308846 0.5456310282476604 0.16315320775413839
