# total energy = -340859.3269776371 ev
CRYSTAL
PRIMVEC
9.40485115238227 0.00000000000000 0.00000000000000
0.00000000000000 9.40485115238227 0.00000000000000
0.00000000000000 0.00000000000000 13.76495031843132
PRIMCOORD
 96 1
Ni 6.05179599791769 3.0573948454566575 6.53405701464811 2.2381463303406353 -1.3503228114820616 0.6464851208522607
Ni 3.485334382435893 9.13775337631369 3.843173920891362 0.15776134731460573 0.36036787596836 0.0697530003244218
Ni 6.645646514015441 0.6560560825670948 11.952188940099225 -0.3854626141534587 -0.013968546364950136 -0.40807392379507146
Ni 7.54401670546484 6.374984302799991 7.278699271157334 -0.35777466131988706 -1.1871716606104523 0.7942855002994127
Ni 9.422626317615194 1.7544467672819986 1.4648657574953328 -1.2091880169805431 0.20112840144633104 1.2683825250628284
Ni 2.705549959123525 7.631867420047124 10.828281013247008 -0.8310198796059688 0.2318949932052264 0.4511663841091714
Ni 7.855232634834536 8.013346992350577 11.42790986989067 -0.7224550486206719 -0.3446113844650517 1.0283618174266742
Ni 3.6596062742258195 6.158794989439222 -0.3429206230778997 -0.952270019368418 -0.28989085299372014 -0.18860327239612681
Ni 3.9741139014976454 3.656192313258753 13.32136127763917 -0.8383086999578981 -0.8141878956502946 1.0513179120022151
Ni 0.5736235027317182 0.6223650842962337 6.052531457277537 -0.5131451398048131 0.19648601757831322 0.17851014982618288
Ni 6.801955140110885 7.3260310655346235 4.518248493451851 0.9600429784456177 -0.8221439172725776 -1.1087766683403162
Ni 0.13249930492677828 8.780021053161319 1.0169343284287875 0.3417690299202501 1.0029896572104726 -0.7340669218279873
Ni 1.2512496114089153 4.887644712999142 3.197213005547544 2.6191827904019407 0.7116769841685614 1.4032767379712736
Ni 4.7695291874195584 6.653960402431108 10.746448462914934 0.4601230790818269 -2.7454524948661683 -2.392291935279525
Ni 6.998535338826107 4.122992695185425 1.3255498164558002 -2.2198804421519123 -0.3525283253192832 -1.7078835570189297
Ni 4.0655666740699745 6.791083132182707 4.457118841953947 2.198141507812924 0.8551350274866175 0.16178718064454717
Ni 1.8763618527257555 3.293983280959485 10.589224744802697 1.9048472855646095 -1.2348036606661186 -0.5793191645287248
Ni 7.371334233519086 8.478952958181333 6.375704714398 0.5924251057830636 1.9743804565687417 -1.0511998983671123
Ni 4.425621995456134 4.395676949397898 4.289295856596851 -1.3158414898757402 0.6019389588107698 0.32598322784090306
Ni 2.072697525311104 1.2801319092873216 0.32932402977187186 -0.26667790521236656 0.3781439690048584 0.01780257539905966
Ni 4.286994489520705 0.9135740738167816 13.010493327761987 -0.15026581026850896 0.5512692003700441 0.5594229398254301
Ni 5.333857875760775 7.982094671982638 12.16392129450051 1.046261066304598 2.4786516909226926 0.9249561620448133
Ni 6.505297920319754 2.3500371808423046 9.477223359505041 -0.15972644146077652 1.4800907589075347 -0.027249836854888555
Ni 0.4814061157609807 8.541589266833297 10.288942895378764 0.004779166556198221 0.463064421098338 -0.47767497192266123
P 5.089444604102027 4.78491552389923 11.95812152020398 0.9482490711344831 0.34759309280119494 -0.9478189255756
P 1.3364293482648983 1.895340842344324 8.671450511012797 -1.6749837209671152 0.5324623520761863 0.7392446093741849
P 7.030963265587664 7.537912957069176 9.484725609266555 -0.4014039679740635 -0.14915200837903989 -0.6575660612567708
P 7.162734635035515 1.9877905291384403 2.3198485491393104 0.21748833086159317 -0.13839117031811005 0.6667374433433937
P 2.3008121899287333 8.714525669760073 1.8735197067085447 0.20493646233851157 0.7673395678381881 -0.5714433613250739
P 6.994604111045848 5.350542081699001 3.6509745018413193 0.24897534572628088 0.612366839012313 0.01941825662561172
P 9.286895505833638 8.05159652197333 5.147802645966338 -0.6085960591159711 1.0759992167989791 -0.2003699260137517
P 5.55702558867406 8.995871791880724 4.522653725730017 -0.3851144867854206 1.6342595037748755 2.4007146121255816
Ni 8.890415195947618 6.228080527853491 9.973628331878357 0.38018645335618395 0.8730126790979867 -1.7887627491635
Ni 1.4750756639026263 3.6937176693430382 5.900937483063059 -0.6946048591776232 -0.22868188558456748 -0.1965922041388743
Ni 6.691438734259648 2.9653213527084987 12.104484516209414 1.9836449125898032 1.9416870801007786 1.1260089730582028
Ni 5.0823627511868725 8.399096367075652 6.876666337152979 0.2824768199178361 0.20556843949555564 -0.9416521346432557
Ni 3.9750449817613913 0.9514229567805905 1.711368787079377 -0.11163627082176902 -0.10948837124083079 0.7636371792859364
Ni 1.8495204075466702 7.363217846977546 4.5170926372456455 -1.4156851389379554 -0.28157282004632794 0.19374676427027923
Ni 3.255602083420646 0.900251161679188 8.84674753157796 -0.38112927688542747 -0.40746328679426597 0.7066764456301765
Ni 1.3522953321531663 5.022594922135336 12.935020337776827 3.6496259158376763 0.8409170841150228 0.026842059893508612
Ni 6.036334422628826 5.276140304259708 5.63506798399311 -0.023944940851371666 0.7431244040445654 1.826542796125751
Ni 1.2445157379862717 3.7203051835411025 1.1113101287382077 1.329125094358524 -0.4135699139126361 0.5499260560785884
Ni 9.4163250673454 4.219834447466098 11.346104593626928 -2.4620169105794893 0.1465207414037799 -2.5128501911812724
Ni 2.6951952180085383 8.980579503912542 6.270746575575789 0.16436111201931047 -0.10027276617983376 0.3278976712547966
Ni 8.882148331787697 8.30224520994383 8.004401097937702 0.7428621515221141 0.22144757261965733 0.8617309355365803
Ni 4.059406496567416 3.658242570809223 6.461115810592247 -3.107278957657926 2.2102974264491677 0.36697998196823894
Ni 4.768663941113855 3.336060584999859 2.439300504067159 1.2665367301033414 -0.09443816177592769 -1.8784927068304809
Ni 5.569364753381475 6.079624952467414 2.2193088093868725 -0.8059868478967409 -0.7408631188142144 0.9058168701122012
Ni 5.497728002179971 9.432031168764137 9.579111754912237 -1.635417785749035 -0.9201055188207314 -0.2358917730694454
Ni 5.668623552407426 8.476987344291203 2.5321724686778633 -0.9080902395274102 1.0537188081342241 -0.4261228108769823
Ni 9.129674609176746 1.8711515651892408 10.585081907871587 0.6504430770587443 0.35666882985021797 -0.6185318301724445
Ni 8.002418555315506 2.449154907101022 7.600193762347711 2.414008243910694 0.42788015988772116 0.3718486229144499
Ni 8.586102427321247 1.5683811921512965 13.006680601106204 0.4418523057970971 -1.5408197013564753 -0.6407165937995998
Ni 6.993832913251635 0.21140976800687541 0.5731542006593859 0.3246956193777311 -1.094651541792844 0.5409611335758167
Ni 8.61876547536153 4.384569820190995 2.6403790430869196 0.25564324466475974 -1.1140461442693717 1.8268698404478667
Ni 5.927492080282101 6.105290791252881 13.631678103239027 1.2519143522044762 -0.5484358446863071 -0.6400704755751685
P 8.785005624270259 4.37998025283031 6.790057062922356 -0.24395886634829597 0.9386907380220866 -0.89475726986393
P 1.4496167318424356 2.897982618482062 12.735097654963273 -0.013416273405905928 -1.5078501884089903 0.21574872246266713
P 2.718208888770003 5.462488024924879 5.377429610648717 -0.179941997176703 -0.7290643264070735 -0.6832606378093974
P 3.869183977228881 2.927814806326511 9.08819827512479 0.916735316796918 -0.26274925958192175 -0.0695722517721834
P 9.536425016517413 8.904795213354353 12.47299950120405 -0.027979001711429235 0.5032602765909333 0.275510415902332
P 1.3520508060232939 7.378039892388283 8.596459049406466 1.2742590384482635 0.3835157748397331 0.11192834814089112
P 4.714134614152281 6.185147382358562 7.430347793508477 0.7210949350483516 -0.45182638629067345 0.42223735977964705
P 0.08101150682677115 5.571734775871008 1.0869985885181883 1.103459369892461 -2.6752392670758764 -0.1751638590617693
Ni 3.019314603154584 4.829315826173393 9.068087881913003 -2.624861328843957 2.0987534582308887 -0.49747606580898845
Ni 4.846686586245492 2.421231904039808 11.165920812404774 -2.7371164641966472 -0.07446043310242015 -1.4239484073880122
Ni 7.287348912759018 5.610953005162103 11.542681970886806 -1.2904806425134485 -0.7284778577759842 0.5274762117155045
Ni 2.9478189247203144 6.621429022306911 2.3126218615164618 -1.1066614217695265 2.816590034242943 0.684427404423989
Ni 7.6892182023533815 1.2764169930834888 5.221568655467962 -0.31659587308873216 0.1276593857229027 0.0335014741915552
Ni 8.94748383271941 7.052876568764703 2.2915201969935772 -1.2468685622504525 0.46541312383617267 2.420841464782444
Ni 4.2579240946193195 1.4251359043017353 6.730703047321373 0.5660355600459414 -1.0119877469440248 -0.08467208352809934
Ni 7.642175136906366 0.37836938802849823 9.723932355329246 2.23578040121162 -1.2377162063272233 -0.9900675498321659
Ni 2.6558359159502083 2.7022864757748417 2.951370196514156 -0.8728859237121354 -0.34957129957348826 0.9443541069554512
Ni 1.8810548734490784 0.7515200241544477 11.632442810737437 -0.2929808047729535 0.7557991712987564 -0.2141798353136505
Ni 5.05753394415366 1.9069088092575246 4.29686676177175 -1.0740750031930728 -1.8134635943442898 0.7211651261646548
Ni 5.75059623502162 2.151698274962231 0.7546659468637694 0.08302040685728927 0.18352508654227104 -1.8839840689623555
Ni 8.95532747857763 5.874251217927931 4.979470858162084 -0.5207856870692062 -0.21048464585025042 0.025085996434350343
Ni 2.052006852783428 8.273052551977509 13.302475396046978 0.7570656967160059 -0.560464236605751 0.2346085354816476
Ni 1.2580869381941975 0.7004479204752239 3.5517975250203633 0.4134763257575653 -0.8066913301629334 -0.06451746295709535
Ni 8.358147645173151 9.533415464149751 3.140789541564571 -1.018644075918278 -0.39784530408852775 0.15270861538204666
Ni 1.2822480007958337 5.955226986320336 6.884401827222986 -0.6372684873499992 0.6800207907158611 0.4404425699337641
Ni 9.350556943260838 6.662189647186433 13.194145618087868 -1.8147784565009712 2.6267994264069343 -1.8986146743913364
Ni 4.461191142501439 8.327064612125891 0.4114001657487034 -0.29827213507887984 -0.48993090647187887 1.6812050192864787
Ni 0.6772912959762947 4.247240183714119 8.545638995738033 -0.3992378135606802 -0.9832512982412809 0.2885194265674902
Ni 6.764693119858771 3.3992235653161647 4.3846459994853015 1.2527612735858038 -0.7246212030340553 -1.4635500809400344
Ni 3.6730834259222562 7.786953415493206 8.622461581863064 -1.080041762299469 -0.8005618202264277 0.00041240494707025745
Ni 5.1646081744843855 4.67691961815591 9.189219543256053 3.002317270642855 -0.03296925583716903 -0.13453580112776184
Ni 8.762603268833473 3.8047231274540207 13.309880775841656 -1.7229967585112842 0.3314637913395001 2.895302814863814
P 0.15548005870922219 2.5195125985462696 3.604270011035665 0.09672901469263341 0.811321372735777 0.13762138203162105
P 6.660562607937666 0.7932822656813322 7.6011436523137546 -1.0203425466666234 -0.19845959636491628 0.06335455299724572
P 6.894809235504407 7.454755263210216 1.1922087773511916 1.7792478676945294 0.9522085700028634 -0.6875728920315062
P 3.909606027467041 0.27530914816814356 11.046647549648757 0.24801760979870188 -1.3261410720295355 -0.6496493775128553
P 1.4017742540477593 5.724732894362024 10.800379641343437 2.363508949609562 0.3465343125193774 -0.22088810057176153
P 3.7184524278647606 4.966946417887035 1.6267693295392835 0.08894577120278875 -2.8734196416374767 -2.190605861557511
P 8.094736574193536 4.154085133083832 9.639938570203146 -1.690690847289727 -1.351505004715621 0.06524379960015861
P 2.5010884951454893 1.762393866502856 5.344214497845992 0.5858263695196233 -0.8638518385343252 -0.2857495771318369
