# total energy = -340857.0150260816 ev
CRYSTAL
PRIMVEC
9.39050546298097 0.00000000000000 0.00000000000000

0.00000000000000 9.39050546298097 0.00000000000000

0.00000000000000 0.00000000000000 13.74395395191292

PRIMCOORD
 96 1
Ni 8.107020300768868 9.188891009151128 9.656089299715024 0.23346799411930116 -0.8226416828446025 -0.21389110042863807
Ni 1.8998776124190848 5.90346314214789 10.124813547366578 0.5671627316718492 -1.183010330143911 -0.28977232513798484
Ni 5.405803930962773 8.033699236519993 5.985643208959829 0.4675186002149497 -0.2727688486014528 0.19042618453747848
Ni 7.499679989375393 4.622232009328692 6.960721336519353 0.7117967975758773 2.9221667291341933 0.3312280211796102
Ni 4.697318488546674 3.5240781650079653 9.986191849321562 -0.1071458391505832 -0.6365776319305617 -0.8345037243895111
Ni 1.5168764691743832 3.86635268739619 2.214755336018107 1.086836159513483 -1.1929687269082034 0.9918063869001434
Ni 1.6121149724546207 4.277328145497116 13.542453153596147 1.2484472195914822 0.26674732499772125 -0.7333925214687822
Ni 4.03484652138922 0.7784109000009894 2.6556480044917903 -2.3700853172754988 -1.3055853593653708 0.8159213334016335
Ni 4.312279605683376 0.43713928356330006 13.055532924106087 0.7246232599165843 -0.7699201840811708 0.32500955107372415
Ni 5.925333628653479 1.2687417609632814 9.84183912598056 0.0734877847765057 -0.431182999008709 0.4576350225526506
Ni 3.1134971081235423 8.08437040233543 1.060398379295236 -0.12724878054804536 1.0916482361901458 -1.2257016983648503
Ni 5.569846665512415 4.836720537570055 1.9900142542487056 -0.2205176046062202 0.8876548544911937 -0.11077495126273824
Ni 6.351765858239247 0.48556893579828014 7.572203799736624 0.555607679844398 -0.8880052958520771 -0.42022675710752144
Ni 1.7787588769321492 1.3023691599227105 10.94818618604887 1.2456686284050804 0.09655058013324018 -0.2899201635697588
Ni -0.0009493800711528304 5.716498184515321 8.05649938303591 1.4555629489694997 1.0041618231417029 -0.8965351876999591
Ni 4.3896855396746 7.969834410962027 8.222663432700026 1.299047558246853 0.5124617405845432 1.0439169915524535
Ni 1.5522317210823002 2.8019201470864408 8.861620635899284 1.50334278745694 -1.1543307028210315 -0.31447497009098746
Ni 2.233099687838058 6.504615110644337 12.660943897500331 -0.10211110494015319 0.5878536843622972 0.15320175296838132
Ni 6.893015794353064 3.590825875648463 9.620781000332881 1.6280407765586737 -0.46801636578697464 -1.27819488316756
Ni 1.9547463340387288 8.273344928071133 10.152397217208362 0.7643673725837417 0.6460176942975391 -0.631989498339247
Ni 1.204717296817683 1.8028173511388113 13.346299586669579 0.43135243470703777 2.2632171572663347 0.6909389802902617
Ni 6.323322018125282 3.9232873201498957 5.087462050012136 -0.19793791953349135 0.14511460508487267 -0.8376127023321381
Ni 2.8109256415299186 9.191670598676955 4.855271480503412 -1.4132094237039532 0.6697764872800336 -0.2579207278450268
Ni 3.6260308794739027 2.254068685848783 12.120036714824666 -0.5816534690888564 2.5370699829605856 -0.30231545191031806
P 1.0484592910413912 7.404676248724026 0.9780661862997905 -0.21398160325991536 -0.5910045712864531 -0.25082654000240673
P 3.252720737548981 7.143235194708536 5.4440214088418815 -0.6587680519846719 0.8484972104551258 0.3201758771305066
P 9.273377384029091 3.4388687212330815 0.8290905172710656 -0.5909107260210662 -0.4324135289817005 0.7749993983762912
P 4.236554572114866 3.447667624563153 5.5598279355627325 0.202256087292871 -3.724923757239727 1.5723005455735761
P 5.8451950576622 1.5454611668656713 2.3538446812198317 2.6884475382360344 1.2679161269493713 1.5320838641453745
P 0.3867075756293112 5.350747399240032 5.913528824623348 -0.22646842287301644 -0.7194406872743803 0.02197007651318797
P 3.844932945138034 4.164735988690762 0.08142037494491211 0.563081876734256 0.7845358771118166 -0.3590393869649236
P 2.933020989552956 0.8609665870191198 0.8153465739264635 -1.6184402773544322 0.9365610932735935 -0.7456985925296448
Ni 9.142746066820317 0.1589155187351073 7.078658568859834 0.9077845353615333 3.4133194238283147 1.2343449758621452
Ni 4.391507297674636 2.0900071702888314 8.188990959315854 -1.5507665281565424 -0.48700961906002577 -0.7126185221462243
Ni 2.3613270357271965 8.806631715813657 7.367927445851133 0.3305006560952824 2.168293571213556 1.126457373449531
Ni 3.8154091969312636 4.748862971341509 11.479568579345997 -2.223959240206976 1.2367726114670314 2.4515728324280293
Ni 8.989718394817285 3.575857410431672 12.396070613850753 -0.44757712409601624 -0.27689186963089085 -0.6212168332037753
Ni 7.456878066879699 3.26136000229142 2.19441456280224 -0.49951212240241066 1.1209004481870437 -0.719907856718786
Ni 3.503832235894162 2.7754295320446793 1.8235750627835523 0.7672408374767947 1.3417504964320182 -0.9955784523480661
Ni 4.283995404157042 0.6675099731730189 6.227550134152249 0.18172325744684187 0.6112391531657732 2.2583446596653816
Ni 7.442811090157771 6.136591823121582 9.280316028287992 0.38144706523616245 0.25509431413982514 -0.37598141413590086
Ni 0.345132053106838 7.402976567291002 3.1221861425433017 -0.2716761297579063 1.499122321617689 -0.1644493008577426
Ni 4.182991130711742 5.37267422877655 6.139479403456691 1.2717321582613517 0.9621111738285559 1.2380653621365258
Ni 5.333365574198452 1.694516655188212 4.5677201269049315 -1.7182646431429378 1.826413212526422 0.43742255216051756
Ni 0.18188657244484074 0.6559493222769135 4.777302116202898 -0.2050457342228662 -1.223839191234815 0.13784326823444001
Ni 9.353018258247163 5.309044165847453 2.6523491200309004 -0.8610135977545816 -0.8855846022257263 -0.5843107042060454
Ni 2.080457026546374 5.400780010704941 4.356434699971879 -1.7929253651816217 0.40161248444044384 0.7438556257836351
Ni 8.040544914777861 7.386543183270058 4.763118697217051 -0.3449615687156188 -0.22530397025127005 -0.9908998159254739
Ni 3.9105819666754167 4.300438178683141 3.7813742500481147 0.4948640821074381 0.23411668344689357 -2.152117732784642
Ni 6.071149392697604 8.229369192431086 13.02367375726731 1.4702838001194418 3.7970167185512347 -1.8001532503886288
Ni -0.048890726038082054 7.231327523565952 10.911943531403823 0.7380876129516063 0.3182763461149486 -1.1359874244271533
Ni 7.364700868279935 6.926455383209396 11.955384536490476 -0.1746115861027251 -0.8277723192029486 -1.4734758246941784
Ni 7.455694863230192 6.098053189966179 0.7063998112212121 0.4494879679654839 0.7220680975948984 1.8701214520476503
Ni 7.960800745003085 7.7541720695763106 6.948406628059316 -2.4057683724994052 -1.9970922963439608 2.0804127509401718
Ni 0.8377701611856706 7.60243089677949 6.252646259178521 0.06434622748655369 -1.9139127382009875 -1.8003671661716476
Ni 5.450596640551289 8.976102162342789 3.820282869106618 1.053990573738372 -2.709390459036289 0.3574442745636618
P 6.206663772586888 8.402548888496373 10.579078295180734 0.11938686130146534 -0.013819679491911683 0.06230374313522819
P 8.240834999225129 1.7346328932096253 8.638721032190743 -1.9194277544819458 0.2611317785831567 -2.9060878212944594
P 5.831926273878432 2.330244463664725 11.996093315387158 -2.0507404206867195 1.705464663164792 -1.3323094056237765
P 6.050640529439467 6.577917393882903 7.453675904621903 0.5928894470139918 -0.6599129642223925 0.43522091652350847
P 7.287520306412426 8.800762650091892 1.306632449263001 -1.3042625267888892 -1.1331286148221196 -4.758283799211941
P 7.373105370393503 4.788951037847459 11.285008581144204 0.03759801285843203 1.0364883031885503 0.820177023354194
P 9.30535205408127 0.5942414957530107 12.050726335327417 0.6132129890626924 0.34836005287420646 -0.9733859754114269
P 3.472205014532711 4.838241799405137 8.647819492635254 -0.07312834455455793 -1.3283290808197898 0.9000699403260951
Ni 9.288261334699488 0.6167223650936622 1.055542549079676 -0.500568331581067 0.9802927298335892 1.4102562546129003
Ni 1.9683250044926057 1.83432249593325 6.463781438029096 0.6254897495475163 -2.0016868576931786 -1.0857596386198527
Ni 7.228547934040123 0.8830680799515165 12.056801053112073 0.8913531292783874 -1.9265769639322174 -0.555161850556231
Ni 5.829860362744371 6.08188274008957 4.50919849878006 -0.8511670439778051 1.3371718759224003 -0.8228836236520795
Ni -0.09173866200903408 1.9762318098329688 2.7434717649017784 1.1370845141460741 0.7248240630734807 0.5418481641664604
Ni 9.092131244035809 5.904233163570587 12.861028329884707 2.050863833638461 -0.6932218627871675 0.7146610064975498
Ni 9.174288773635375 2.057732004071697 10.367476408223963 -1.574865220976959 -0.20967217725128404 1.933130705890335
Ni 2.111163978402652 3.988156929759428 6.892194125152017 0.5866367812360607 2.345535395850277 -0.15397616924056062
Ni 1.7684574927773058 0.07979487850261188 2.5703531071199976 -1.5818035999680047 0.8521582042464808 0.16789226510102054
Ni 8.931055909115091 8.482978565147452 13.431430150201162 -1.5716415718333385 -4.2463594191881056 -1.518064924158463
Ni 2.7032634999298475 6.47871609742733 7.645169902890646 -1.4616191824659086 0.18241462708691167 -0.02893802319058887
Ni 2.994228302152107 5.798101674310751 1.5478576237811827 -0.11427807931999029 -1.4690049334070183 -0.16100170862877436
Ni 2.621171703866365 7.466662973251027 3.336179791163006 0.35208481002396136 -0.7750199672015814 0.4274834386699347
Ni 1.8183868086855115 9.142135683985254 12.643667246116483 1.5123449909555502 -2.567700306251933 0.5623290577286316
Ni 5.2091198004949595 7.182919469492828 0.728188600331953 -0.7390072965523983 -2.935343375725467 2.042729634567101
Ni 9.432386807815746 4.239343552145848 9.790601712704287 -1.4973629157244213 1.6897498235326964 0.7206766165640105
Ni 0.17659408373958124 3.3036830090242173 4.858171268495222 0.6752750485007596 1.0845141962485259 -1.3827184542039475
Ni 6.415142377529162 2.78504540932322 7.114694632391476 -0.2132069298774199 -1.4875814108576253 0.5449057200458616
Ni 9.273837518781678 2.903431507810102 7.007739595829563 -0.9949349052267963 -0.24202848209480254 1.8430055696674648
Ni 5.519823444552661 6.204560299432206 10.552648718422478 -1.0148601833958135 0.08692334145612127 0.2469318329336909
Ni 7.771967076844704 9.206911388543238 3.0984779341789146 1.4095268326460435 1.4034163488729314 3.087206355277767
Ni 6.075431463048205 1.7063299106729821 0.32054771061150555 0.5676514983828096 0.06364225944099362 -0.19409771985179475
Ni 5.823352742672077 5.270965667444638 13.134753103693225 -1.0183532841507366 -1.1505005304416636 -1.227924159937466
Ni 7.428086778075005 2.077057663680327 4.2400919754066875 1.9950233296300741 -0.9116936406079524 0.2915417583335818
P 7.457488449714762 0.16773508117651917 5.502309213388396 -0.8680784750211631 -0.5070336275904365 0.21436932561663727
P 3.1456408072685087 0.7411681565569525 9.463508819999868 0.774027521381325 -0.5367918326894756 -1.7049506996428507
P 3.9317669463047027 7.866538854258949 12.41003429501598 -0.5739206192209728 -1.2988007323433695 0.05220650680022622
P 0.4966656957397371 7.927455061198301 8.464997625876991 -0.053714458804320395 -0.44709272826043006 0.8669281634668038
P 7.450933877116695 5.803726586898492 3.254540617447986 -0.5556747856369075 -0.6308047340025266 -1.0384587966513599
P 4.591393590400246 7.149339023059174 2.6784763225231707 0.6455389548889077 -0.5251822734750052 1.1454953639175884
P 1.7834541295095618 1.855216369902736 4.055070852341166 0.7096365566997649 0.6934823155374057 -0.3079076012861149
P 1.70617027208535 3.5376004924309137 10.96503650849869 0.5999463538607731 0.6652459463995317 1.482898403559659
