# total energy = -340886.51230633043 ev
CRYSTAL
PRIMVEC
9.16106439480525 0.00000000000000 0.00000000000000

0.00000000000000 9.16106439480525 0.00000000000000

0.00000000000000 0.00000000000000 13.40814375638296

PRIMCOORD
 96 1
Ni 6.82535949569637 2.136241147754415 11.453893891881453 -0.9565370221748881 1.6543876419833186 -0.4656761476895722
Ni 4.715502213704338 0.9712652194422109 5.931588636973107 -0.9698406812623297 -1.6256144265053682 0.8834192191432915
Ni 2.5721795630907827 1.9639581687518568 4.705507492333935 0.6801220921804157 -0.6886992923264655 -0.2548832265702836
Ni 3.8255964080939737 5.000860211840607 4.965263979616193 -0.7877986070234884 -1.4364203146027779 0.5247212746781865
Ni 3.431267547720364 3.1005256360469957 2.7482268234967306 1.056223833944265 -1.5752966520874223 0.24351252283949673
Ni 5.218701164605779 4.542797825734741 2.753952488809748 0.4829488187270909 0.3620812591150409 0.5962547639417989
Ni 5.4128699267008145 2.6917589380200813 0.6361626410664493 0.09087924078007574 0.8668818836099005 -0.8678648163484601
Ni 6.159313462228222 7.788874454570881 12.443079069593733 -1.0986079553374304 1.2670388665507406 -0.5154089961383252
Ni 2.1021161824888335 7.112806216538828 0.07091763251380427 -0.3100855827740402 -1.0513685627344926 0.21358642470402572
Ni 0.9639180457125474 9.378823004011963 13.164745590072204 0.6846958275940273 0.41387510385788073 0.6627671458417361
Ni 8.441994226028362 0.42589147589831045 6.462256123673829 -0.39163608995402227 -0.7860327733723173 0.0730121306916678
Ni 8.8754041875625 2.739478923004891 1.214153438659095 0.7208661068669973 -0.5517679943833337 0.6815027745780263
Ni 6.788229701274516 1.0801902763570475 4.7071967926278875 0.9431814268035885 -0.23634223034330268 1.133461572681506
Ni 1.4155402034743314 7.396396129226438 2.47836110153781 0.3676854926756958 1.7994279421868302 -1.0193038209894638
Ni 8.11111489838748 3.699695898659104 3.732894680303652 -0.781895354165176 0.994384689150281 -1.160700353792801
Ni 7.963264478408629 4.05454973209865 12.962497685193888 -0.5263084166596484 0.37942746370297237 -1.2451423235879653
Ni 8.470970673044478 8.039081448217475 8.655654068955355 -0.6800848111845771 -0.10048899595569791 0.2857405782707724
Ni 7.238807497683206 0.8190312300997132 0.04572378903007913 -0.3442714846271297 -0.11360136496793984 1.3070488312847746
Ni 1.9038799077554316 6.7847301746352 9.088388860035785 -0.45579488402011825 -0.4973089441035048 1.2862429502830168
Ni 0.48727976911835424 5.577017880426638 1.2194183024277205 -0.4143715838783251 -1.027359601414405 -0.3634552566444321
Ni 6.496028387956129 2.3366211115810107 7.273301653848172 0.30369690563887697 -0.3522961547038191 -1.5137297871182187
Ni 3.5036766015349023 3.9747660213609444 13.347579367060364 0.1344033893149556 1.6577221056731903 0.013530944606899279
Ni 6.416409576379439 6.080207670263578 4.770107654767968 -0.9253310288857289 -0.6426354080888674 -0.5729644259552906
Ni 5.433656382053191 2.958675713316186 9.280111617909098 0.6977973979729918 -0.3305675047774758 0.44266323173416666
P 0.44913309653690936 5.929828796482498 12.245912807194028 -0.3360930625813954 -0.00911944580276494 0.21602357339060863
P 4.336802129369139 6.125884737864704 12.732789489474344 0.0622518068513702 0.5005413349978735 1.0492646290176124
P 2.6415837877490507 -0.22977232317104979 1.2131255672221024 0.39896733350811286 -0.4824405116321046 0.8638204710757574
P 6.4414742488537025 8.125451964331276 5.811129799851729 0.2825390406143392 1.2742914343480958 -0.3702848779717558
P 5.18382499205113 0.815495059202394 12.668872742452072 1.0493343059132831 2.522664349058217 -0.41995859104779937
P 4.150850842131346 6.318972494348641 8.37090528160839 -0.09318037810942661 1.4047558936199613 -1.2828611782949777
P 5.004002456964391 1.4221178477859255 3.5121295157498156 -0.7877065615303144 1.0513757618233441 0.691691285075254
P 0.2298621016031579 6.02364725803547 3.5417747204744927 -1.209279805363401 -0.8451699458541058 0.09273994813789833
Ni 0.8579190327992752 8.97383982562389 4.502052159154411 1.144468465314971 0.7554009074190733 0.07673200274541624
Ni 2.0313377981554415 6.566083048193955 4.621653520638512 0.9174521403582845 0.9673405405482953 0.7425572186871856
Ni 6.1302912098896005 5.911781499415868 9.079270852538112 0.49203689707128806 -0.15817529492357277 0.6887949373640654
Ni 9.372501869506392 2.2668596054072108 10.179985577802812 -1.0804726791893002 0.6382025691284945 -1.2217843655883152
Ni 2.4826118354661943 5.787099411559609 7.0822220027028155 0.424100895350947 -1.3046031979577597 -1.3049274140663978
Ni 1.1820979578642505 0.11963617352920385 9.143643820572525 0.3314277958952421 1.124665828766747 0.004807705801288494
Ni 1.9931178370579903 1.6286906912150803 11.501827329669132 0.5682811615470084 -1.5891618401052887 0.10673240576224843
Ni 4.720879758566323 6.845257327792167 1.465643897442256 0.021440686372279204 1.5024557568662962 -0.04734146539844105
Ni 5.723008604311821 8.329871957602736 7.989591545571107 0.14249773628731588 -0.1963068116879716 0.17961855239901323
Ni 5.22546203020739 3.1498030019969456 5.084448512665505 0.8153860297234539 -0.174533424566622 -0.8827288779444862
Ni 0.9903110725394308 7.7038597760032035 6.887012543680488 -0.058151925750383714 1.1189680070510213 -1.0356861190022293
Ni 5.4415074143304 4.962255486034121 6.879302591796591 -0.5626391327698826 -0.7122094596332638 0.5551471952682117
Ni 0.698526587655831 7.855576165201405 11.000228816735985 0.8910685081584332 -1.3325868276548791 0.6519772543150836
Ni 4.798217465082306 0.35364457292543616 10.522657943775608 1.0683594408655341 0.48455292998941707 -0.7981367557247029
Ni 8.183560596460024 7.64445943377984 4.432424404522324 0.1032886701880221 0.05966476285048434 0.30656985631129785
Ni 7.2884787894066925 6.545553102647602 7.026028033054741 1.0405077087605887 -0.16466398797170997 -0.1431831923901147
Ni 2.989264507684448 5.381511602914482 2.111179223599502 -0.7122467406291024 0.6060092722254015 0.2263774058211069
Ni 2.6908061873119955 5.8514467286134195 11.317974842308479 -2.0955714609584812 -1.2735553275130196 0.649952510575571
Ni 1.504952193002406 4.139252934473299 3.8608747513802095 -0.6513856434776717 0.29956719974121954 -0.14154951344143363
Ni 1.5433370532608723 1.2140242676496336 2.5159984189330094 -0.34108743047219325 0.7460377210366184 0.20006190785502964
Ni 1.3549122786078565 3.6829769559450947 7.983811829977535 -0.7309106355871928 -0.2300653961956554 0.39203435383370544
Ni 3.765325764743031 3.1425565999767913 7.124028520552342 0.25058999851156843 -0.2151982492758358 0.018015719851130263
Ni 4.38377090706488 7.1002555581726945 6.111539426962858 -0.06847361939136595 1.2059929070820135 -0.31110656783938684
Ni 8.590357665619258 7.765587028609778 13.315828949713396 -0.3194156019257144 -1.987913715168486 -0.27121795917456515
P 0.0888559129128742 6.05930212107269 7.94223342263408 0.5862937960743452 -0.5688432046980655 0.8085828907586912
P 8.873544491468833 1.9782952346956515 7.868100256480485 -0.2479913845464568 -0.3120005404085659 1.4206388833988048
P 2.2179028767147897 3.682885345300086 10.573849972206231 -0.10094716653903905 0.00721451547056822 -0.6260942159007347
P 4.40968755853772 6.485474841651176 3.6769819553357532 0.06148304700614572 1.3693446040002029 -1.0343473455861478
P 7.110781621284145 4.135460253769956 10.234074334828598 0.3498464076117459 -0.30370847560310277 0.4135411175572298
P 6.873106963874682 7.904789403699848 10.137495644541525 -1.259056362565896 0.1423612107094516 -0.6178052364190649
P 2.6793823398794636 8.77717925398463 5.732396863212269 0.33904417478991933 -0.1772557085937915 -0.04496550896709676
P 6.96212502762922 4.126729759300668 1.6337558437775876 1.0307290321072702 -1.7857555869060602 -1.1278748226223478
Ni 2.852343237655083 1.8024211184087693 0.5287738946684013 0.08805334129550642 0.096376259338905 -0.3572139037204106
Ni 1.911914161322657 1.3067892067850106 6.910704888692527 -0.7227527823667489 -0.0741938097045948 0.8155747486954923
Ni 6.950389704003661 0.9237284557474181 9.239525353851082 0.5833252003643244 -0.07523227827143816 -0.335494509765448
Ni 2.8403514042235 2.0955476992417403 9.192972488483678 -0.31096644271709667 -0.3902551504460956 0.20043960290942253
Ni 6.791225369366288 1.8808947969228558 2.4212693475686544 1.1323171746644176 0.4538053643939153 -0.13752136611864704
Ni 4.400480688714389 7.085350506229848 10.506930228240588 1.3802867048340035 0.11850600135840882 -0.4551014574975194
Ni 7.378348832159808 6.110448344180809 11.244619450531005 1.828454154215851 -0.2905968779218092 0.5520754983214234
Ni 7.890580592659066 4.152060102645455 8.147941461574357 -0.106297632217675 -0.0789961161892446 -0.8376299287233188
Ni 3.58836148178055 8.632526045516567 12.479429257426565 -0.0867356509253474 -0.2684339686715248 1.254775218692039
Ni 0.2643232779359199 4.8582865650142315 9.815391700585987 0.17608097155939997 0.457379969119051 1.9763938874543447
Ni 8.84583227135383 2.817879313002971 5.766024382675456 0.7619237961392555 -0.8934364941699774 0.8509302453766507
Ni 4.154579395383183 2.619377367399045 11.363884600947925 0.5794209802139118 0.16299379935813865 0.6264415719378243
Ni 1.24676591217559 3.710313572415563 12.434457591792004 -1.1203636018469674 0.7020410037406942 1.1104625406831714
Ni 3.228872149703586 8.3936879329155 8.08462842870269 0.7227607527865488 0.928881979461781 -0.49910228855850175
Ni 6.130969128662662 8.365700880865472 3.3065689699480028 -0.4789463824359171 -0.8216628638711011 -0.08716708203581117
Ni 3.656364063570191 8.93760781552312 3.6597399158387462 -1.130924408081949 -1.018937953009613 -0.15871574080807505
Ni 3.837121027236014 4.551244327204504 9.421848859546548 -0.7417154395121807 0.10374529810946649 0.3987552174973068
Ni 5.548059755539522 4.622260899214917 11.804301860718748 -0.4453808877756459 -1.0594821929805625 -0.6587320565404139
Ni 8.661200177404158 9.154761688450728 2.0249378784951637 -0.309167441835145 0.015390366413141236 0.6792180923089076
Ni 4.977884262072532 0.48919351549257706 1.4638739797806963 -0.7545493580520554 -1.3495594509534758 -0.2840415933017947
Ni 6.5008104636255615 5.843119320982168 0.2863418964636583 0.21078392225822407 -0.39354384849969637 -0.8362006524759599
Ni 8.107065707878116 0.1747885301435344 11.268847717816342 0.09681643220011713 -1.5505616112345877 -0.9576960754799959
Ni 0.27000863456513335 5.279997847180814 5.881066282357494 -0.5655887023165098 -0.4039748140250333 -0.4006840590889035
Ni 7.347659266082037 6.038753853397335 2.4172604657430927 0.9226213432640498 1.2437153613334517 1.8026364218217987
P 8.771820031251647 1.532591124601402 3.8045470301904225 -0.0263365810119998 -0.032940973702394884 -0.6379619138725982
P 1.7399151753196245 3.6652777793294957 1.585312134697213 -0.04586539507354682 -0.9256848126807219 -1.4062317068345394
P 4.558215897289633 1.1418808847056185 8.3383239557112 1.5156619711439252 0.24121704193710075 -1.3541846084303129
P 8.872271103503218 1.7590434779973518 12.341016566096465 1.190572458761885 2.9690374255438026 0.903258622466722
P 6.900205392668129 8.061471089857497 1.2228298828478286 -0.7643622303774191 -0.8488743912888864 0.6415331761636242
P 1.9862378776178689 3.5973118417978585 5.937448053827836 0.3397419721878923 0.5935072831036488 0.03867993306870113
P 7.1634394200349 4.212559772608919 5.809226130648457 -0.2710960888847202 -0.024954355952492506 0.011023347693697144
P 2.8495949183048355 8.650518376196192 10.52234921590193 -2.8844954398356646 0.07715726320829293 -1.5006824670159573
