# total energy = -340887.5354496018 ev
CRYSTAL
PRIMVEC
9.11678981066968 0.00000000000000 0.00000000000000

0.00000000000000 9.11678981066968 0.00000000000000

0.00000000000000 0.00000000000000 13.34334342715500

PRIMCOORD
 96 1
Ni 6.413670763134694 2.2129183957601826 11.507766425934019 0.36787035499299225 -0.06383200685429652 0.33191810526809934
Ni 5.072609212524833 0.4360706444965301 5.9541863789933265 -0.9565516774629075 -0.7404828526566603 0.5445473082651783
Ni 3.199118018975121 1.279413817770366 4.753739459705043 -2.746260078369128 0.9410998616842114 0.9996089136636978
Ni 3.5418728494740286 4.539167605913702 5.052630679288444 -0.17186641925742013 0.09664725361210452 -0.5293654583184174
Ni 3.933931279380801 2.7019612358927074 2.27798857150236 -0.05167608821805294 -0.18023304605456056 1.9298841739285795
Ni 5.248089183198388 4.720099416906397 2.867698093273513 0.34864570243542536 -0.12496358405829446 -0.224056213887098
Ni 4.742180281877893 4.750595078892216 11.134806759044913 1.6460377273567264 0.21453207644674663 0.20257901784992852
Ni 5.970020419572391 8.12000561512686 12.360032201415784 -0.8437219005536696 0.7070729097376467 -0.17734209766001072
Ni 1.7388179741612175 6.292499509486407 0.22216705139982648 0.9104348285001869 1.3432738750550801 -0.9696092819778138
Ni 3.141044067749511 1.6636318084221897 0.30593849812302343 -1.1044924391426654 -1.1247067093070113 -0.7800804124436244
Ni 7.834449524029755 0.13546091002992253 6.9837062524498235 0.5593974859041334 -1.7834817032702186 -0.5894153724224623
Ni 8.926832398410264 2.57621335374909 1.4639786695108472 -0.6348632203426162 -0.7486291359128784 -0.11042785233596465
Ni 6.998102575272487 1.1378665388490437 4.9587067754090715 0.3487336341635413 -0.2933826681970625 -1.724367927827198
Ni 0.9453746383502157 7.351989006155455 2.1911237979893907 -0.7077740495697294 0.3133369998318023 0.24850020586207522
Ni 7.7263335134199425 3.956641202850659 3.5755621229377645 0.8199150279420588 0.37130046372046377 0.39010525513179267
Ni 7.6709307816149135 4.0179880816257185 12.786952323958603 0.42865097661547463 -1.3907081572776436 -1.6719660171867143
Ni 8.262646908827943 7.751304400767971 9.065880765238818 0.3801417161611776 -2.1140330100977787 -0.7536031920887022
Ni 7.106245936251795 0.9190818164766429 0.333211374903465 -0.058741993925898836 -0.4473161571251457 -0.30938032917689945
Ni 1.5952741182668324 6.868024217958984 9.227922587700984 1.162951868831139 -0.1040584584745111 -0.4455675498651552
Ni 0.15311101514338898 4.832226815041997 0.9492374222017528 -0.23613654209039978 0.7196556314986639 1.9658068559671178
Ni 6.600601421836407 2.154798860585416 7.081005191924757 -0.2475967202111994 0.8917791610722124 0.05668485428655399
Ni 3.4859960445977705 4.785029194085171 0.10146713578582005 0.21711063580720028 -1.1692754970563215 -0.09237947947468605
Ni 6.411482733575173 5.991381058147211 4.773647793659732 -0.28802268943672976 -1.0809524470391965 0.003282270295697573
Ni 5.612332287329755 2.7364318182449887 9.260974597555508 -0.9942826163547779 0.7820280230882983 0.18068967397600497
P 0.33430447800424223 5.3172491508589035 12.144950719072872 -0.26964778647396787 1.9941589247472495 -0.4182092124568604
P 4.18225440080673 6.487297957812563 12.475318567227944 0.957642339423925 -0.5363377758711924 -0.9742244121523222
P 2.4392244697434355 8.36799141532903 0.893225688835991 -0.09214628041795743 1.3586290173549118 0.8847052849445667
P 6.6555574309397 8.01354886026635 5.567549703999249 -0.1178529411554422 -0.7069009029361568 0.47304595779108216
P 4.969926808654496 1.0127477152037887 12.613769784322544 -0.038313036647585626 0.8943327807320016 0.3188810695784831
P 4.00857955451978 6.009423185223424 7.991408736160952 0.8471928898214054 1.6241432412764802 0.18077323482874674
P 4.8570153665934 1.071368673819279 3.69454534702653 2.3464903035643783 0.0943484302755988 -1.3907076430570113
P 0.3062986113213612 5.719481918217447 3.468001324828679 -0.49323785935792475 -1.5947231362431502 -0.47410216696973834
Ni 0.6443482665883162 0.3188980148682675 4.700900369200586 0.040343436814053106 -0.7594277691902792 0.1391856411949474
Ni 1.9360597221621714 6.72577494622065 4.500309112615599 -0.08367063884677849 -1.4523274727513376 0.907739541056211
Ni 6.181894615252639 6.051597454983185 9.341288045895679 -0.20415099032273873 -0.7844235199036684 -1.301794524864371
Ni 8.59059607264076 2.71412303352771 10.366777386567742 0.6005742172527593 -0.23872281476033724 -0.16595802419278516
Ni 2.1838358361982206 5.660705974174824 6.873503408647618 0.665778421864234 0.8032424523823845 0.22024481056080777
Ni 0.5157440941905415 0.3799650081955053 9.110941410659178 1.4462169889782255 0.9273614290521964 0.4897190475713889
Ni 1.5010338617803125 1.3800996446676406 11.441530212772413 0.04380105634535037 -0.7391080837963208 -0.8925962576568691
Ni 4.07313554331547 7.040130976394946 1.4890106393507467 0.8058701198132187 0.17585908535658099 -0.6980354821257269
Ni 5.7122431870913655 8.054392078710736 7.776154034811244 -0.2768083087781491 -0.38751255470395196 0.5927128122268115
Ni 5.568042922329124 3.3159223302941974 5.063585413949777 0.2884682616145806 -1.0789796395835418 -1.2019123092547366
Ni 0.8241304503832787 7.947178630294225 7.0877835251643555 -1.5999638158167995 -0.9601622776323012 -0.5731927399160128
Ni 5.3332673505925605 4.3944841512904 7.150724018801932 0.03209945163770601 1.1228179769247308 0.3828724848287793
Ni 1.2070356232993897 7.4864707729574915 11.424036916444047 -1.3171679219966477 0.16514478426287044 0.7762587247046889
Ni 4.78891294655332 0.4530661641001066 10.378652917002041 0.6364758162453749 -0.25713551293957004 0.3272091298282042
Ni 8.60062454145523 7.197167681239707 4.771993096305343 -0.44010267009584203 0.7253498536699636 0.5389474455798976
Ni 7.220123758035012 6.215553803309931 7.139503073877524 0.9605700545936812 0.11623854548047077 -0.8008834652319045
Ni 2.8070687058581796 5.136508792452667 2.315910770484785 -1.170341219316675 -0.16542734850029575 0.8866595804574601
Ni 2.536728536989574 5.471569052333928 11.158411039597226 -1.117903827452565 -0.1625482271802878 -0.16100119440814206
Ni 1.602120827430166 3.327856208183416 3.5816740188406917 -0.9707133136752703 -0.025532597053465705 -0.5760875449653047
Ni 1.350935033997197 0.8926212456701733 2.3337377413209794 0.1069946582846996 0.5558843305445524 -0.34361585332100175
Ni 1.0040411809148628 3.8182483332109785 7.83360986768629 0.020435899256848675 -1.7581758775155785 0.1497644451520582
Ni 3.8420158043012718 2.532790083782437 6.897668371774556 -0.14683235910692777 -0.05777165959282954 0.12908994752184216
Ni 4.160702309645452 6.793038621596247 5.782578308961139 0.2571655948465571 1.119557303895588 1.097997061226309
Ni 0.5838720412421491 -0.013372507324603617 0.060850013729252 0.3329486034151427 0.8151808556911831 0.3544365980855896
P 0.20956764785292017 5.9845890497228655 7.863085360889982 -0.9365412957792516 -0.8709467977078936 -0.5415429742212158
P 8.68735256312073 1.8615117317113372 7.824349944254601 0.8370203201637778 1.8014850818261747 0.6188943557181857
P 1.8932928610633744 3.469649640430185 10.304050225812219 0.18921519494851283 -0.8051304134337166 -0.7897868410981108
P 4.021188074856518 6.40088902379116 3.6717943980024312 0.5172787023572123 -0.47156114571543944 -0.388256374848512
P 6.819641414324085 4.217208173020072 10.558200799298339 0.14979452705904525 0.07108251776912274 -0.27493397457357166
P 6.572257322250783 8.160812366411921 10.142502533358913 -1.3180397830786397 -0.9812880038673227 1.089107472046163
P 2.3656610925943853 8.473873812430167 5.702037852554168 0.9850850090159099 0.3635961530976706 -0.4020763114507398
P 6.932780776130964 4.023193768619412 1.485914577524025 0.12578016642231885 0.735507768039572 0.26928603225917497
Ni 5.183050004541638 3.271359461598627 0.4047845568323344 1.3310117698582755 -0.9287122866531361 -0.71292962562874
Ni 1.583322006797951 1.124009018305413 6.93868572090472 0.03916227202175836 1.424110129776857 -0.3045014038180433
Ni 7.238995512985877 0.9342430379661546 9.276425732961656 -1.053197131302799 0.05135572876415672 0.060293911794051004
Ni 2.97923928182296 1.6518529159601034 9.210603422058394 -0.7928567382726861 0.024792633563647623 -0.5885671654895541
Ni 6.5405035432682395 2.0333176360828635 2.506280282310878 -0.16615265670209448 0.2022118643184969 0.4072812526904469
Ni 4.252316930660547 7.222220619696219 9.913343815837433 -1.2186303933403657 -0.10927779789192146 0.15677250103877516
Ni 8.345691747401583 7.196383637314213 0.0888750256707788 0.2531528741427382 -0.09462096721069511 0.06012807564014806
Ni 7.534434204260151 4.107979914050836 8.397006510646241 0.43969823556857174 -0.5783783978820103 -0.15019459071094135
Ni 3.3076989858663324 8.401659720176156 12.134116326037313 0.1452228485279628 0.8431413454598511 0.382469850073722
Ni 0.1912009630587107 4.941491541170559 9.829694534097976 0.2602789436645582 0.907100107699999 1.4692587012890375
Ni 9.120892386760081 2.5679535421618995 5.425710687803324 -1.393848502678838 -1.1988565531475481 0.8191408687801958
Ni 3.767741317545377 2.576176886589765 11.363338241425996 0.1813357922004361 0.2810688838267159 0.26077336680247354
Ni 1.4846965744025584 3.449191564048667 12.60072001135797 -0.3862596561334573 0.2852111881298637 0.2851206852985864
Ni 3.009671126279959 8.431909228836528 7.783051797997633 2.081252473232648 -0.26171027679444603 0.6767364635376346
Ni 5.730649985760833 7.924496057193861 3.440314545789895 -0.49734699643029184 0.7522749601955818 -0.03071928346072774
Ni 2.789856206656617 8.488588311217944 3.3588131797347005 1.6764376798048224 0.20163927964447856 -0.8557230387796037
Ni 3.5928904053701847 4.158669265513064 8.88275727797067 -0.7834367305103669 -0.4268067243178843 0.7778458666861507
Ni 7.308884823832899 6.288451654801293 11.340774186593439 2.416843142256328 0.08637981024782543 -1.4340029634105367
Ni 8.071668395441117 8.795122135716953 2.64226176104017 -0.259658793582056 -0.008376396989153316 -0.421881261991809
Ni 4.906820389441989 0.4431151879992034 1.539621586420425 -0.10136779901622543 -0.9461477085207641 -0.01918274357603793
Ni 6.340864079541644 5.866882176210487 -0.1520634959917685 -2.8854634601758886 -0.3139779758499109 3.10538328329711
Ni 8.392944069097396 -0.16470483677189895 11.377335248854045 -0.8120759915136143 0.38999726879901864 -0.1753816314995302
Ni 0.37445755545839526 4.795148830797954 5.6231119796263265 -0.7537307188055019 1.7044843015293933 -0.6943652323629913
Ni 7.462967688772308 6.253643751225253 2.3578625905726605 0.22833093000305194 -0.8858386272180615 0.23634942943215426
P 8.502090276958151 1.6107179602411157 3.513142197999556 0.8482143891073843 1.119767620134181 -1.4110769507419827
P 2.0029587259445147 3.2157926275766346 1.4172095376760938 -0.3479142235860395 -0.11997950058014176 -0.09393551110789629
P 4.900721257044825 0.9292105699792571 8.228799914900126 -0.18235292061104078 0.7689537064028434 -1.2393550274822267
P 8.673303589990642 1.9038409868982302 12.432646520743392 0.012105782124598506 -0.8675300587168607 0.519757245804692
P 6.443911155005234 7.829417056042858 1.208018413243208 0.4619475338850754 0.4272242714712771 0.3514600319557689
P 2.077962555886916 3.0234465957151078 5.628249290696284 0.3775194480469821 0.6564116359373534 1.7825069980617756
P 7.348424341331403 4.124308084638759 6.080655399212602 -0.4084022536687676 0.5466478995479489 -0.7584630912841648
P 2.396339090376831 8.771026460192731 10.01364582588281 0.5424695998005432 0.3829933266773598 0.6043426831562559
