# total energy = -340860.28530679346 ev
CRYSTAL
PRIMVEC
9.35798356443759 0.00000000000000 0.00000000000000

0.00000000000000 9.35798356443759 0.00000000000000

0.00000000000000 0.00000000000000 13.69635486602929

PRIMCOORD
 96 1
Ni 5.642134134498391 9.191954167676947 3.128959697539038 0.5700562511695602 0.8022309803987346 -0.9920583550099495
Ni 7.640400501531355 1.564009142198909 6.487991034489349 -0.8235737077405687 0.12057959605798589 2.0758259029004376
Ni 3.224424230529494 1.368155905294439 12.171785975780946 0.5764086757501492 -0.01933778109666347 -0.3650141164911198
Ni 5.283442626516723 5.7961384691410816 8.12751255303463 1.3328321108964658 -3.2365766503152 -2.8221166204881265
Ni 5.718776019454558 0.5987031974784652 5.4019240557511585 0.12819006141539213 -0.041077229656284096 -1.0416407939237673
Ni 4.866067203936749 5.242838336061924 4.565049884132535 -0.6055958388370667 1.4214063576924487 -0.7571490004584315
Ni 7.021959445231212 3.6786233182257697 11.544588654309438 2.7718191577851554 -0.128413747390424 -0.7001455864901942
Ni 5.9718158935955525 9.394011747649298 7.858900058532763 -1.3444864073059424 -1.1901140310682279 -0.46653849568986744
Ni 5.020773387342774 3.6421646144664015 12.517139549864199 -0.5230575138225185 -1.285785036809992 -0.9603196291457721
Ni 3.9482174651979554 6.415571471693404 1.5221714695173427 -0.7279746928873204 0.310287157261885 0.02629930001616116
Ni 9.017165751656036 9.110904672487038 7.3949359150426215 0.365896261985757 0.2628991548962247 1.0485514050006715
Ni 8.603973347705537 5.516596785696563 11.964396216803953 0.9176017785622712 -0.28823300567532295 1.3844133254078674
Ni 4.0306238679969795 8.046855157353837 12.125739082116073 -0.2311961673659889 1.5353152265984784 1.4225872653744274
Ni 8.996054140854921 0.04033571632802986 2.327681423600057 -0.49616351764515193 -0.22093438042866467 0.16985710213687522
Ni 5.561851993956394 9.034094343827672 0.7248853113442104 0.8878456303457612 0.4045237445499678 -0.7219801658667824
Ni 1.871718356011933 9.312129391926899 13.515000983421519 0.06253771352290519 -0.031114976237249636 1.4304399286496268
Ni 3.772858212182863 3.4047900047230417 3.032317930222881 0.9220145629179863 -0.7305355116359612 0.06325993640091042
Ni 0.5301297659055961 7.313638433289667 1.9563192059443169 -0.8171593195737927 -1.6759373431296363 -0.06043660801950236
Ni 8.050317611252956 3.434576466238973 5.382873072919197 -1.2887173799654386 -0.7172539640357067 -2.9022589344666727
Ni 4.094576327312051 3.780363314958791 7.982441349451666 0.19015416182301442 -0.6976572728507017 1.138010625504769
Ni 0.6223236836589121 1.6017779636498357 12.224215949998761 0.5703951225662176 -2.630831430384463 -0.7848678065299387
Ni 9.317959415654332 3.424301400343751 13.127736744385311 -1.0398896155606154 1.0999336161273896 1.7021014031195136
Ni 1.6438327415488603 4.89750067055064 8.878757432332996 -1.9286896393998465 0.1388305718483738 -1.913305700744608
Ni 1.9295319781437033 1.8483982611021936 4.587854354150812 2.5099250471146775 2.050828609525152 5.286042318054554
P 8.195721959048917 7.201258409304489 10.868304030330288 -2.615798190200424 1.0613022769084368 -0.1009098855432004
P 3.7193024725486583 0.5552999341554864 4.1403939503809015 0.25434175224451677 1.1781990247981966 0.012754985672823195
P 2.3405439719361074 2.7027447237344497 9.49475137594498 -0.08648419703617363 -0.25783562433038815 -1.5860328075580041
P 5.245177831939706 0.21159336517019303 10.07269669439905 1.4057323986006178 -1.1223418086192607 0.8151901116625638
P 7.300237800901727 1.1519022643357026 3.823090931872266 -0.20280861736223135 0.27065694446477256 0.11361833424880431
P 2.704644394387209 3.4527777441681238 12.25255379566717 -0.9340820356054818 0.4862282608093111 -0.44395084019733866
P 7.643245328518739 4.420168647614847 2.5240465422025857 -0.15941610930920933 -0.484680713816533 0.7083160381161285
P 5.40606964244659 1.9448042072338698 7.020381689211235 -0.2056265464270007 0.22775114624018197 1.5760422720041953
Ni 7.226637260586679 4.806737588476176 0.3529138889618956 0.5371155345774814 -0.33229862853596964 -0.5080371291542863
Ni 7.6880419955865245 7.236229193685587 0.9076121047776163 0.02785738853190041 0.3991069444097707 0.12698498536369743
Ni 2.52533607233042 8.187421427674543 1.9485258772762468 1.5997347305251288 1.418503325113041 -0.5155120973750928
Ni 3.3332482207804417 4.6770452949954056 10.16331192033404 4.137494283353571 -1.6385573598192815 0.5038282332792613
Ni 8.27555491638238 6.055728931739868 7.121748302402161 -0.292263981211587 0.5662271072314572 -0.13280390603831965
Ni 8.132948605656248 7.735290454334228 3.867166098411344 -1.0647475551445598 -1.2125672178654214 -1.0480312708311434
Ni 0.31918771638777793 4.9037237295855425 2.4498948166587318 0.2501246288393757 0.2968181762411727 0.46241881709453914
Ni 6.111165626059811 3.3341465871975107 3.713493036384948 1.1692060772709671 -1.2875423858207309 0.2786875280787329
Ni 8.394092493517881 4.925200301743589 9.594543040510983 -0.7167338298661785 0.5654136101912263 -0.6321856735104532
Ni 8.824868548485794 0.19187235071883463 5.110986219986784 1.3323888527114602 0.3562047457296059 -0.5577586647491297
Ni 5.522314513621865 2.0457581333519554 1.1587420144839886 -1.5460809497554149 -1.062148941179448 1.8417500999938088
Ni 5.656143035814555 2.2969170528072125 10.084721703210857 -1.3928843389933558 0.006324913776763301 0.8878201764244645
Ni 7.608059310516885 5.515417679774161 4.874614786075817 -0.661393405422661 1.3737283348901954 -1.3678849887355409
Ni 1.9176660550515885 6.842744703009533 13.532779280495966 -0.15568569573249963 0.8290969515516432 0.061980812578170674
Ni 6.704499212599588 8.252272253406685 12.069077427754522 -0.28016719794805295 -1.335121678261591 -0.2240032491619755
Ni 0.6549587153556319 3.5895821051173544 10.774552944120721 0.21627656994167915 -0.633882858707218 -0.1819582562757834
Ni 2.212348955817118 4.766825788801201 3.9584242178135463 -0.353613587963662 0.3361429419827243 0.31154031294269574
Ni 5.582795161054307 4.995544263796765 2.1189768679397503 0.5042532366318219 0.6600273783130698 0.6619649616554147
Ni 0.8937800693498129 0.656200519767559 9.718577497160924 1.1284767178724049 -2.1289050421136047 2.5570248288159574
Ni 8.019398833732179 0.2376993317711964 13.657538980868019 -0.9561798959457855 2.29153708725695 1.1473051634328175
Ni 1.8211665290848011 5.5941463950533095 11.325940305370201 -1.8509068267924123 0.4281727514274755 2.160931217311214
Ni 4.390007866758471 3.212502159536313 5.677631773351166 -0.01130308371764505 -0.24635333472240156 -1.6083666951685138
Ni 5.7506680272604935 1.0564508325221618 12.053463632266201 -0.040512615402065716 -0.06494349475092041 1.1623144923574562
Ni 1.5864027967410466 9.049834472093394 3.9304569482921794 -0.7810558889830161 -1.969482247936176 1.2611248150591507
P 1.641745911225878 8.66428555143478 11.452261853190263 0.736495328763822 0.33891304852869375 -0.5714294773680029
P 7.631725650816536 8.046106518672948 6.0233690247583755 1.0914376628412366 -0.31368152765541457 0.9198867179417062
P 6.850334027637061 2.4959894360395114 13.394542212271181 2.009321748530617 0.06010622126327713 -1.1287356279607463
P 5.61813090679234 7.0350793381138175 0.34263040088151325 -0.287001447261067 -1.8841056821418842 -1.6242455711822994
P 0.44357871220949263 1.595901150004845 1.135521114199467 0.9668571731539737 0.710020679512061 -1.4358145626979788
P 3.612658892455804 7.266343184624409 8.02626946522605 -0.9500053917039576 0.017943728962614258 -0.5414956659230481
P 6.031379458643904 4.621524378823863 6.238045845495486 0.7756668567569609 0.3135205765975181 0.6989109427521447
P 4.419373219016402 3.7694331902177893 0.8012296124247229 -1.6267130588861853 1.5412081950441456 1.569163285496175
Ni 0.5358559160160575 6.650297772103115 5.420209555531909 0.21132951034904893 0.019226195219463664 -0.693906804669334
Ni 7.803154550756953 2.1614976734176294 1.8433243624424582 -0.6984921100471713 1.0604872372063092 -0.17656382473308946
Ni 6.702927071369718 3.2183789731813035 8.40402880041 0.8880232935742061 1.56330734093603 -2.243905601421916
Ni 5.206847531478112 7.279463077507016 9.5067492466046 0.8336614309938739 4.515428450340469 2.776238884119406
Ni 3.5384220092619985 5.306266748300372 13.091126441293063 -0.690827651523378 -0.14170532229300759 0.928160527914724
Ni 5.77999594758438 7.199967007579954 6.133610749511259 -1.105393610800696 -0.6282251462008083 -0.42061910744993364
Ni 2.9040723809929316 1.9085794530622797 7.132678427143163 -0.7435280672408873 -0.6915383044371575 0.567460722528242
Ni 8.881044523503117 3.9282100964511564 7.256821436401832 -0.12786301709327658 1.8488705130886738 3.7285983778778364
Ni 9.331668861498141 1.9943360139582884 3.7265726899384566 -1.0461775054518565 1.7179702518309703 -1.1486105125078023
Ni 3.798948270211898 8.890215347344027 6.344068991281551 -0.5354600012519294 1.053533174485979 0.7682700500722576
Ni 4.971016989014088 6.099608516423563 11.434127952742392 1.1522491377016544 -1.416066433536774 0.33447969534768845
Ni 7.513131925779967 1.013301170552335 9.175009666933342 0.7591742584185763 -0.6721784118533068 -0.19070386367889738
Ni 9.325034051188748 8.148286340630992 12.729227952362132 -0.4396175029293074 -2.0239670092476176 -1.1500225623639806
Ni 2.432925985157997 4.3395496196664505 6.298337461661004 -0.9870660440016807 0.2657857324154003 0.30127749756410693
Ni 7.675483581714587 7.67691535319179 8.589271955609549 -0.5931948940695525 -0.2713650262753907 1.7577837842834825
Ni 0.5173317876557728 6.984012822093573 9.807397861858476 0.8013357222779748 0.24180608167135131 -0.2560844459672364
Ni 3.226548492786521 6.735258904400677 5.860643049483311 -1.6042045933710243 -2.3228217563028446 1.6570191660688947
Ni 2.239019208823842 1.4233305760760702 2.575723198747756 0.7897421039031044 0.11916497509864639 -4.851025547122052
Ni 2.859191492073545 7.301173599252841 10.226958373588298 0.30612171303028574 -0.021387721647156712 -1.074251637980253
Ni 1.2482239886157787 7.278798660677725 7.648757180806796 1.1994062550034312 -0.07937329702300525 -0.3728369549696482
Ni 3.9667556305335068 7.806944534078961 4.0959220053409515 0.3725654464758164 0.041437955429812504 -1.2288685261286063
Ni 3.4474811255008233 9.362475343216785 9.061357892989003 -1.0811118554351962 0.2624720946611351 -1.0781021220745948
Ni 2.2802879161079317 3.7740560340722884 1.2838947501635094 -1.2303723643676423 0.40541797422946313 -1.0952269546803395
Ni 0.3163915509146518 2.0129490431619286 8.257435988708126 -0.18020142148567678 1.6493927598718883 -2.1223327882127254
P 5.885048670480341 7.066353719008019 3.5049793835882683 1.230437927498255 -1.4450119129265306 0.03738538262699368
P 1.6681167087602462 0.06837878551583745 6.70040696641017 -0.24917949131728698 0.008270981759540596 -0.14790142380139046
P 2.0310005933549014 6.890236469328525 3.778371936067622 -0.8347099268630463 -0.8269367106755307 -0.398491679423275
P 0.7309343118858058 2.938640772083051 6.047927180886637 1.6700551733172464 -1.1076209574693183 -1.1550709234211656
P 3.7158961665506065 0.7033918948158437 0.7327010991727074 -0.7705565321135891 -0.019061644617141365 -0.19714653398044757
P 8.472362667604985 2.0095988850649436 10.680280618229581 0.777834553832241 0.8279476684385483 0.6054657410171057
P 0.5506611817290186 5.321033646280938 0.307973108948038 -0.4641034038858136 0.2946090844049959 0.21133516677600378
P 5.718897673240202 4.519906035876486 10.023896681985205 -0.560366534685622 0.7603929613170259 -0.5617631579228326
