# total energy = -340893.4970839359 ev
CRYSTAL
PRIMVEC
9.04991766045844 0.00000000000000 0.00000000000000

0.00000000000000 9.04991766045844 0.00000000000000

0.00000000000000 0.00000000000000 13.24546927578026

PRIMCOORD
 96 1
Ni 6.410382509271297 2.0806303804642527 11.40525019506632 -1.0135028980369707 -0.9810614896788137 -0.26901195266218186
Ni 4.470686497266197 0.3031731481935683 6.118757961064292 0.8731900852161156 -0.6533761915451393 -0.7326908674160673
Ni 3.143850912414103 1.7257016578931692 4.787945842371514 -0.9591564620756062 0.1889061483485263 0.121911427495532
Ni 3.5878851247333925 4.653757282571545 5.13114949156074 0.3487022667049737 -1.8709855998201583 -0.5999394118822376
Ni 5.032668287067547 4.726998266578475 2.5801776929932183 -0.31690671946093163 0.33490547003119736 0.8416717028928601
Ni 7.446760985300654 6.176089189741408 2.5896611017589244 -0.04456184577077487 -0.2777375054606378 0.1772459384017786
Ni 4.839027197879819 4.605104924975937 11.301259400672791 0.7680533060757612 -0.9357709932721303 0.13957284933103703
Ni 5.891948923478516 7.853373787899364 12.33977094230581 -0.7465856231202884 0.3380622704926242 -0.15633901304578235
Ni 1.7152761526941105 6.546638070275664 0.45361264522092476 0.6055084213295829 0.2669450428308241 -0.6199716479427645
Ni 2.6754362217907643 1.815893137766277 0.1727783138965898 0.4418631044303745 -1.21730318988851 0.6239817975434221
Ni 0.4979563369959841 -0.06915675614552766 4.646006933046828 1.1513564506840557 -0.3537524275343714 0.011636298687347703
Ni 8.646997271342302 2.235311573921122 1.2029983209259816 -0.19853235858438065 -0.29212128498613565 1.6273902874588682
Ni 7.1200046565530695 0.45572851598094205 4.843616411149302 -1.4990174206087088 0.7905422312068966 -0.731466765200979
Ni 0.6934698541573965 7.4664898059030405 2.4773262832390657 0.05219622238758107 -0.04876482810852892 0.6996776457148401
Ni 7.543929951726257 4.082653175721019 3.9871113844992268 1.8639096668099837 -0.013122910535203208 -1.0911365866610496
Ni 7.480327130077833 3.6895971498481686 12.751731341277889 -0.07504793017477397 0.7687415903920374 0.6667613546027936
Ni 8.178709279566869 8.790881912974104 6.773229909836458 -0.7216819179000732 0.6812484924753751 1.2461877341333443
Ni 6.6355173120811815 0.8225995099588642 0.5288029815020535 -0.19542955128934084 -0.03970194657531227 -0.45540330500865445
Ni 1.7742725662294094 6.647689451397792 9.267020708360809 0.9066607061697354 -0.6604942906471593 0.20942483712716833
Ni 0.09886492100399157 4.704228673626363 1.3059737145527273 -0.7389967550294371 -0.5043241990790734 1.71323505113883
Ni 6.419287628295494 1.9446372670734045 7.000428998875427 -0.10094356699461325 -0.27969642895922153 -0.6498267836309841
Ni 3.4504530744270494 4.4976371521991805 0.28561178288213285 -0.3341719342992826 0.4971271671100019 0.03080053032062437
Ni 6.0418336605504015 5.844645003621329 4.685571363280547 -0.7304344672817227 -0.7469867152134491 0.7644583896356512
Ni 5.3389265522076075 2.8045423478061924 9.142314652334775 -0.5549253090653927 0.23233876561086436 0.46394733792392356
P 0.10104052122087849 5.3215688100445915 12.602626707112393 -0.15938474185064164 1.393488034015626 -2.194516252355511
P 4.084001613459439 6.281041085395474 12.471205612147381 -0.411460323768801 0.2640888043289516 1.1310737891756197
P 2.3729698721701533 8.478171056508584 1.5032682555189787 -0.21098523963575275 0.24412701649504406 -0.3768219077593252
P 6.37050857185198 7.792178244361138 5.972541155639262 -1.267433787996314 -0.05194348294682667 -0.36474003689412665
P 4.642182437823632 1.2179741247483797 12.710749693931174 0.9109379933888505 -0.9590531037285224 -1.6129311746107449
P 4.0129145098668975 6.087653393903557 8.215648328673637 -0.20320688124191458 0.15076331873021775 0.4552441537229708
P 4.94192476221428 0.9184127987118813 3.8801540270811747 0.4232377760197033 0.862599968405095 -0.12196439222065446
P 0.3580346543283031 5.575581900259159 3.680783434992818 -1.880608210511587 -0.36302793929902644 0.26966347020325165
Ni 1.6024870283053343 1.2504180797298257 2.6897305668097866 0.19801222441485253 -0.7823360412470204 -1.3504079149967003
Ni 1.914953536992751 6.332290769373139 5.00915841084696 -0.842327334198988 0.7791409313484904 -0.49403258734507816
Ni 6.046159521214594 5.561292080198991 9.174633718451856 -0.010260501385743621 0.06536592700031969 0.6484823537879476
Ni 8.608906167711366 2.303511753764965 10.069563790696275 -0.15427647408979883 0.16712736191053798 0.5882969425473029
Ni 2.4132239061331857 5.097936293574154 7.222515789401419 -1.0766795306954553 0.7354607168517204 -0.6853170061177939
Ni 0.8089938636773841 -0.04329571130452895 9.182051031004937 -0.795647670754262 0.44397963655274497 -0.060267943652122
Ni 1.466910211129032 1.169955261392298 11.419845902345001 -0.18422596926403756 -1.3529198827852764 -1.4009509180515742
Ni 4.2252527290383535 6.89098743904666 1.5575351820603298 -1.2568580693629965 1.1757359079696847 0.49347414373844684
Ni 5.516947483432161 7.680176462812916 8.31941287512448 -0.3805878025596606 1.4224576817750987 -1.2937734543321073
Ni 5.462014482947538 3.1754622749664576 4.594469461686065 -0.9621955060122461 -0.9462924616287444 0.8173089577777795
Ni 0.9261142786809776 7.532110759200242 7.171415429065928 0.6385293563402938 -0.8654724048568837 -1.2142032108069476
Ni 5.035410412132925 4.507329614063931 7.134407600584582 0.874312885966649 -0.019657626329927437 -0.40163768125142446
Ni 8.393916322651608 7.222187277388636 9.015846577331088 -0.8654016995199483 -0.08056603177952576 -0.00046974054756693294
Ni 4.664454285301829 0.38052369983148127 10.464159207571173 -0.2949507840151307 -0.5916843709622971 0.03407303042430906
Ni 8.22687294160627 7.049596296788592 4.944560098250709 0.5526115733305516 -0.3002256592608249 -0.6485926541135669
Ni 7.134068228670549 6.067417777909551 6.924373490461459 0.8553291457752947 -1.061728565812578 1.088227897654687
Ni 2.0870648719542966 5.3362387266484745 2.55215009785304 2.3065862682805887 -0.03240541291389903 -0.3117521718431857
Ni 2.0833363058588 5.262038451364549 11.49539823533443 0.378992947268715 -0.8245093321809608 -0.18246090694381478
Ni 1.3582749989680056 3.299382798135479 3.7577928047331577 -1.0620399264054097 0.8242357668046 0.8441283919634687
Ni 3.6390171597808596 2.8320902973078725 2.7587135645353302 -0.028666000476124828 -0.1441743526587904 -0.48328691879279995
Ni 0.8894946916692835 3.2278884482461 7.978819222202102 0.4159875222151933 0.5661497170263023 0.6026974342433491
Ni 3.5887991664218517 2.653182474147982 7.128420175029289 0.7209838633917841 -0.5474562543818572 0.07721768413258315
Ni 4.06654432220164 6.93689767157689 5.904287581280944 1.2300540617962752 0.20221135009786467 1.250704391056775
Ni 0.8927218923237838 7.450073255181605 11.478947294925709 0.19499632040666418 -0.3197819841261977 0.006276319927014997
P 0.2562294150611395 5.588876229371501 7.9072805277159555 -0.0765725943494165 -0.8557286952065585 0.09841617258706921
P 8.637874954293126 1.4791004502810563 8.02909875500152 -0.7079002907349485 -0.3036778794754834 -0.06941927113408689
P 1.5646855220410383 3.203806617226399 10.358738526179858 0.6004325494685724 0.49153090396914706 -0.31914075099777295
P 3.9039263509152784 6.282706270253657 3.823357648540573 0.5005588184993701 -0.10175552137294733 -1.6569014095441077
P 6.908815776930467 3.9282615796307896 10.352884134414865 -0.23586734758941313 0.37347356011238264 1.3052976529216231
P 6.660549384460173 7.629180176531061 10.160665692290758 -1.6014414288035903 -0.29317877971637246 0.7556821861049179
P 2.4022282561185535 8.392857482279828 5.709287194453548 -0.7340977750659228 0.7199063140568892 1.3497887933554624
P 6.825004489041159 3.8526947667730282 1.769038093827382 0.7869203181835932 0.5007688776276472 -1.140219717340946
Ni 4.989183432482931 2.8790955698807124 0.6821339272369615 1.5672614404877718 0.6159383584136553 0.5377940487017447
Ni 1.5408208890463178 1.0388581534812162 6.785547752828159 0.15289296347871087 0.2028240439811991 0.28988313968423624
Ni 6.776840827001757 0.675584501792032 9.15709588292646 0.6617505316517636 -0.232355992002045 -0.16164602708099257
Ni 2.645788691380941 1.4843675023868308 9.084762605665595 0.6962472798770526 0.39079199678617216 0.353347735896785
Ni 6.608041761921162 1.9442662204473966 2.7970589708538474 -0.011154731065238854 0.02081230875966093 -0.13310266822566108
Ni 3.99224449782293 6.661363877053848 10.36619565837085 0.03720257719222625 1.5174386034283738 -0.45167957630016403
Ni 8.1576772708146 7.148149900623444 0.4019638598723582 0.7651865260509274 -0.17965917582896154 -0.945847917892158
Ni 7.444932901923736 3.7740238321415887 8.276921701504149 1.3346254553514627 0.08818858132179005 -0.8686027229557491
Ni 3.2589025162297585 8.482370218324872 12.704669959215263 0.15072886594785656 -0.5431172606868712 -0.6783865975465477
Ni 9.105665200594645 5.084732463638888 10.103961622910774 -0.54972936668675 -1.2403958100419152 0.22474449820337422
Ni 8.623965230776673 2.2820724987158587 5.924447177966208 0.1369125288900545 0.23145173502022073 -0.6655647631915311
Ni 3.532246230667582 2.5711630699647614 11.172235628908501 0.5045316871041892 0.16932616933406966 0.38849497322187926
Ni 0.8343499231103034 3.0282563135359966 12.56116903409426 0.03838219932262422 2.1207988680667027 -0.1269757293923168
Ni 3.0231702597843726 8.340838555297024 7.965414484093729 1.2712225656147846 -0.10496425811823214 0.25480712191670957
Ni 5.684018014230621 7.8585865404988935 3.51419526480817 -0.459431452331441 0.5693412273804066 -0.2658965469616517
Ni 3.0359215938342627 8.426948522284041 3.683140938555627 0.7706853443819696 -0.29085116002446043 -0.708297011952735
Ni 3.251517783380425 4.026226938814654 9.149969977723561 -0.030827784014134003 0.7429572823390816 0.9751410104293207
Ni 7.074429270978016 5.872030054604273 11.561479829442945 0.8529778719342986 -0.22119971827490936 -0.36411937259099225
Ni 0.6049182193728905 9.1491953047678 0.1747955405535952 0.29312632921188225 -0.7980958751844385 1.032112799828674
Ni 4.345698083807688 0.5727303770625671 1.6897110401621473 -0.006214356340828007 -0.5880105216551358 0.4352473988860698
Ni 5.869541327234706 5.662624008770052 0.5451706626678676 1.2717558124104356 -0.7243944317352299 -1.2354094125709176
Ni 8.115549903886112 8.857751754914943 11.110471750538244 0.14881545097522755 0.03557429756018389 0.1385840030552065
Ni 0.20061043081428556 4.6598026276001665 5.876034643189849 -0.4045553691188517 0.5119063823017055 -0.16920018527916666
Ni 7.9068588015507855 8.913490198075536 2.5263614523537012 0.3014559321235002 -0.07125221057776761 -0.2506635320619812
P 8.755279536712736 1.6707234078200075 3.7178310831120784 -0.776610708727469 0.5999131866299926 -0.6811901284336139
P 1.9632348479623507 3.344288489800175 1.3658334902373233 -1.255544749868212 0.497961232975523 1.6767328424477381
P 4.788999252792669 0.9490920197403616 8.114929079531377 -0.3436672753842275 -0.2059520480872195 1.3067320713753046
P 8.301118466478735 1.4499778150982687 12.379692844288975 0.06859780367405606 1.2555077259826892 0.49313167279736353
P 6.355232310761694 7.796160208152445 1.332428433995339 -0.6329153525876261 0.11415903724362275 0.5995925700657803
P 1.9718051200313687 3.263083578210631 5.954898341068458 -1.0192187174748253 -0.4407351614735184 -0.6487667177975859
P 6.971902753269565 3.9113563333531496 6.056358778470965 -0.6292641289882841 0.5784143933262684 0.052701958379406014
P 2.5631900924644393 8.582389908828343 10.38552085264348 0.127821879442696 -0.4309747396526448 0.13193950115549535
