# total energy = -381171.3902182618 ev
CRYSTAL
PRIMVEC
9.18784116026846 0.00000000000000 0.00000000000000
0.00000000000000 9.18784116026846 0.00000000000000
0.00000000000000 0.00000000000000 13.44733425926594
PRIMCOORD
 96 1
Ni 5.416204627909905 4.850196879104122 0.3622104129540381 -1.5268190162020092 -0.013060432728383958 -1.691640869907822
Ni 2.3402808865830895 4.3362658123357285 3.8261963950839735 -1.1778768655720875 -0.1394152407072502 0.23025694338117117
Ni 7.134827013552341 3.7609324050493633 12.309232476998146 -0.7164363532304178 -0.14552186782562035 0.9984724860664094
Ni 2.725738374500253 2.0328373554724624 3.537482277581888 0.8152163369148089 -1.0412368736171291 0.6511262191686981
Ni 4.70445015942186 7.134872952756679 1.9380436448894824 0.7443037690646471 1.871854889798989 -1.1935263991838865
Ni 8.110621652892611 0.6577869288001116 5.882589536972712 1.7711869450632658 -0.3393838175175252 -0.7951175092824049
Ni 5.2317954738569075 0.7401017139167578 2.184021439380153 -0.08973458565267127 -0.18036854319116033 -0.7851097473374156
Ni 2.956638003343154 0.9404949547270666 9.077622609738532 0.1626032487879393 1.8280414921584645 1.2127793338762274
Ni 7.753269770189345 7.506530303690753 5.85284482094804 -0.615069839765773 0.22056234180122658 -1.692362578565195
Ni 1.1371147492930642 6.192099413494455 9.305339570504907 1.2044001086735965 1.1966497753042165 0.002550277225679479
Ni 0.8881628507135614 1.6970033960810442 9.92978014966026 -1.1465495162137156 -1.0399058135105317 0.1806567638555405
Ni 8.722485915468434 8.575664218404667 11.977459543270193 0.007093416511671655 0.17071739325464147 0.9433973994691366
Ni 5.112280039851557 7.890885250703808 9.872844018588014 -0.26231011516197406 -0.7009418571392444 -0.422749266419059
Ni 8.20658865075438 5.761309118736701 8.304817695037745 1.2587426879802193 -1.3616639475264936 -0.08057425930964188
Ni 7.584222686066924 1.4012927377583042 11.303936599416195 1.3192885678840764 0.5973238286362617 -0.4105275275418865
Ni 8.417348532415568 3.8948359978533285 2.756030685840631 -1.1671934177163124 0.3512741411972079 -2.6534172861047787
Ni 1.1584213522649591 0.3116258362735448 7.597998934663758 -0.1195051320468845 0.6435111258256014 -0.20884916712935644
Ni 2.626087052450589 5.146679316059739 10.8760423120999 -2.9877727971697774 -0.47550676062674885 0.23164456775731718
Ni 4.592974086175634 5.8135879332731735 11.160130351725163 2.9210020194021307 -0.024691846319725215 1.2426591521547954
Ni 7.527111067234109 3.392150848306839 10.048076357182483 0.4438683077858614 0.2583927823854389 -1.3920739272769187
Ni 1.4021196434363854 2.7585849056018152 1.8417201588020522 -0.8706650048014167 1.6003039727650374 -0.4441593566637189
Ni 2.814024337396733 1.0074559389699167 1.4448081896752891 0.8409065425920615 -2.193193162668713 -0.1366289362113647
Ni 3.0798469493772678 5.9560637816065825 13.413352770951679 0.058625522952692584 0.4859847773399372 -0.4854638718394607
Ni 3.2168100931901336 8.094248920466603 8.444427855804557 -0.1311979950037805 -0.9721433612535773 1.0595346434850526
P 5.170595265838023 3.9893053776536833 9.434823811851569 -1.0001136212142583 -0.2341917596592031 1.2795231150606803
Ni 8.428070742708021 3.2579532445951123 7.504566862097353 1.616732807745022 -0.36018301365106353 0.13810757763942022
P 4.418083535261439 1.5258706720816857 4.8506415706021135 0.6614278582050223 -0.5293896266881335 -0.3433366315176861
Ni 4.035345648241076 8.461220472558216 13.185944521638454 4.129055151447282 -0.42816580944894006 1.283221389847874
P 2.465180395336836 7.866399654791734 1.4632720746827579 0.2041479049989452 -0.3942439598905146 0.4445049129285958
P 6.0588940965964255 4.8624442709805935 5.576528775912654 -1.2505791783328204 1.374217101601156 -0.23344922506622376
P 6.4265087975487685 0.3585095506525809 9.728567353444562 0.18300623792432352 1.3618516380572674 -0.8486149669799127
Ni 6.114204898619197 8.866615575158004 11.85370392070446 -0.9503640605949568 -0.4343919928643099 0.033327153397220026
Ni 2.2726124385934363 2.5743411326844345 13.03284661047805 -1.6332950829790773 -1.3610610238351721 1.2540946476852466
Ni 3.1482596124771938 3.565966421839528 8.427229136484552 0.5194266019381506 -1.4666911976721773 -0.1382829268750199
Ni 8.84292932140141 5.468520193809848 5.989334790956226 -1.6208126342413505 0.9571098639592225 1.5737992416062896
Ni 8.13751446311199 1.1583110981745481 8.509916947940422 -0.7876651667694178 -0.9010780698756352 0.28727784085090524
Ni 0.3326953929510562 3.887981868566121 11.996850481421202 1.0833245468157988 -0.26507096573656286 -1.7700242922137326
Ni 0.7384773036513715 6.59184399396069 12.212357720458662 -0.2823132977567783 -1.8730651080570062 -1.311074150394084
Ni 1.3372075477070036 4.7941051106076085 7.369327357231243 0.5402108856733535 0.3240291894383258 -0.8033483818326294
Ni 6.534309734447967 5.589018726788028 9.82026476165517 -0.4446162416954795 0.583670499518885 0.043021754977164615
Ni 8.333233849272965 6.553595012428996 3.5857313051138444 -0.37839619422498055 -0.6253028303476909 0.9033959193755345
Ni 2.042438649179073 8.442017885144994 12.773568497547485 -3.0670841306065952 -1.4810042718607397 -1.2167581160183174
Ni 7.584094056294778 5.656870931595033 0.893556113302825 0.9701522989654777 0.28342272877087316 -0.21758911810551562
Ni 3.9434396760427735 5.71034416544429 8.413485964114841 0.631413571231119 0.983167480278223 0.6501965082655771
Ni 0.9673234500603709 3.931458731551462 9.520980952019032 -0.646425471258919 -0.32467916431749894 0.5142345162142499
Ni 0.8905627147481707 8.85461625498496 2.9624741198622346 1.609650189866628 -0.5603027713272221 -1.4511684194462298
Ni 5.907331473644991 8.806426029634554 4.897532635253843 -0.09017784383767696 1.413744470271817 -0.24268719872472397
Ni 5.7676027897309865 6.559613048197255 4.16584973992404 1.5740429821859794 -1.2628551674866961 -1.1824968808426022
Ni 6.406258796276644 4.166336695490021 7.73204218264891 -0.3310243898092364 0.656564873685766 -0.9168330187170467
Ni 7.679500595863625 7.754280432684777 10.037842940024184 0.2829115934624095 -0.11316247765830834 -0.23886448254452405
Ni 1.4405340061036955 7.438990485473246 4.826355350836866 -1.4609152144203483 -1.6011812331636681 0.17680473709930195
Ni 0.9296165511398637 8.366209010146672 9.860768439335766 0.49058602355737446 1.0340249292497223 0.5036407998588036
Ni 4.714437342444909 3.253203130866578 6.248815036385878 0.030739852286018027 -1.2338263843545139 0.8735718940355665
Ni 4.7177817165207045 3.7601973777799578 3.9680254194203037 -0.4983368711473869 0.4143312175586929 -0.29453889328869276
Ni 1.1267968039987832 6.173613477668904 2.70580535373806 1.9080699062669653 0.19560875717968249 -0.5792446025370475
Ni 6.418570503039188 2.7550383990269336 1.3331226336572817 0.7010357024046313 -0.5543406402065162 -0.6054369446616992
P 6.740999402604821 7.831035655292457 0.20277748551544314 0.0514292623145695 -1.4222537932944086 1.118651247141551
Ni 6.231432560248522 4.725527066372066 2.4235190497069263 -0.7590747567262347 1.0538414497550173 2.061757340622514
P 8.77116309638482 5.364284139167267 10.490130944843878 -1.3818087979054847 0.3332702484206196 0.9602473811469397
Ni 3.1847996556075198 0.750230389689167 11.429601455314211 0.7555695717864537 -1.5367334471022436 0.04326549555685452
P 1.3041864476289569 2.466135930787063 7.840534963965437 -0.16597987856965607 0.1346098488988069 -0.8543287295352384
P 3.727626481904422 3.8877613603852996 12.575462110329113 1.9983750197111263 1.6332603730864004 -0.29323842930971433
P 0.2013588828854903 4.515208201072522 4.4061935503947165 2.282212467421915 0.983809484737596 -1.4731752627346242
Ni 5.358440672375492 2.3769128081220905 11.174465221046745 -0.3607640829655142 0.5388392021368075 -0.8836213078517685
Ni 6.3569660300221305 1.6704964751781048 6.61245783373117 -0.3317962349782544 0.23301342308038578 0.22967201741197862
Ni 2.8707316912313745 2.7837687774198248 10.77580572458697 0.4100724422823389 1.8036219256635193 -0.9626289940052388
Ni 3.692675935244186 5.325502262865253 2.214117130925965 -0.8598941394381577 -1.995907274896924 -0.3166930607882288
Ni 2.2752769124450314 2.7597609492328647 5.7654372156385 -0.8801739727331164 1.212598328213673 0.3974760936745671
Ni 3.8810450487111057 3.1252532589447983 1.4850693083569808 0.42653984380974275 0.23959133340821961 0.26189411067047796
Ni 4.708851135197427 1.6191180690466533 13.26346876652675 0.32291667310043737 -0.4170936107951785 0.3454775891200889
Ni 0.35035442309852577 7.373738439631763 7.254930469373216 0.8454532814224794 0.12276631929665953 0.6010120761211263
Ni 6.818618282254052 7.950661343388218 2.6374119851039555 0.2823132977567783 1.4053621597453927 -1.4804584266595988
Ni 3.741564436500526 8.660725249156629 3.5933967207496584 -0.8254920078092042 0.8693833098755156 -0.47207048125169027
Ni 7.280500230507664 0.7109321567303967 0.17917667867891612 0.04542085133696048 0.38489414324449844 0.6784362198375606
Ni 5.162601844283238 1.9852719033010524 8.637786885646653 0.5062095890272443 -0.8450151654437963 0.42209440644387947
Ni 3.1319420070963893 8.436973760508698 5.897126538793381 1.5520045143287013 1.379798452343675 -1.2980430282417386
Ni 8.619453467979504 1.5004019771967816 2.0457968050161695 -1.7435730400007392 1.214219922977496 1.068986532926572
Ni 4.918563602999711 6.86135093012912 6.182815100297775 0.7769099851354426 -0.5655321380469616 1.4142550913596483
Ni 3.4392293449122677 5.013575065411253 6.122288361014485 -1.5183914542599464 0.5842785654165291 -0.07246062906357198
Ni -0.09767961139948356 7.496019413738252 0.9284965533381069 0.003455048428135985 0.24404011320819266 0.009698458234686522
Ni 9.344585432770732 2.4763344341500657 4.357837025124609 1.1840536838067608 -2.671256628279045 -0.5256160185783141
Ni 5.151723440696035 8.94126678220701 7.198115617800423 0.9624752420361941 0.0043811597868311635 1.2598780871362432
Ni 3.5401945282059946 6.363369955106827 4.198337945231768 -1.0828638051292965 0.5235419096581048 0.3235339949694621
Ni 1.3182530319972066 0.5654022700926086 5.080120759246888 -0.04225222380099175 0.3842850489055898 0.42433229463546274
Ni 0.8653071777713943 5.041993057214647 0.6324358382783125 -0.16730451091835055 -0.27988257682809864 0.5771617518660898
Ni 6.776335838581495 7.360223125715568 7.8279751854994695 -1.2633038249883406 0.5801357468927493 0.6916172373042089
Ni 6.415088311350379 2.0725931429064377 3.7432935881518024 0.6258365913639737 -0.849663205738769 0.046995137802615834
Ni 7.544797660904181 3.4135125783239393 5.328089558853562 -0.4064446157217646 0.4810045505165264 0.47751273531318417
P 0.9222387149232051 1.1075758409038268 11.958754018047909 0.20156574609406575 -0.05840415097050587 -1.192307953395753
Ni 6.838482394209739 6.163883554190147 12.065499272031424 0.8667569279962621 1.18446017521656 0.3723160494691717
P 3.1318317530059785 7.330564775395052 10.836144113132477 -1.1763791979806386 1.2039892463884232 -0.05190645906130416
Ni 3.446166164767283 1.170944379367457 6.920307467408143 0.16164139909530226 1.6335676199141738 -0.4743150543114928
P 2.523376179392024 6.904359213230215 6.957032186139908 -1.6421443058395913 -3.9902541472852637 -0.037243457732490694
P 8.221169754211214 9.361858573601761 3.679688003393789 -1.7758182731876901 -0.06608763565769264 1.7892160346508346
P 8.662526065966674 3.3272938796226628 0.3637034370950182 -0.9569594544242872 -0.25291273310747414 2.351939499604408
Ni 0.6788371910118012 0.6103804262757108 0.4975234205470883 -0.35071415492867986 0.4092951977966822 0.5348293096464659
