# total energy = -340850.047176406 ev
CRYSTAL
PRIMVEC
9.42789199285444 0.00000000000000 0.00000000000000

0.00000000000000 9.42789199285444 0.00000000000000

0.00000000000000 0.00000000000000 13.79867291746547

PRIMCOORD
 96 1
Ni 2.773139024480784 6.8302343840886985 8.416072765566835 0.6433681724898339 -0.4195747253458194 -2.3777364060628536
Ni 7.687918007896554 5.867505187017708 13.613909123269842 -0.7386190599750441 0.8131707672396898 1.451640473986642
Ni 1.0679633281752003 3.6328307892960936 6.216992431505032 1.2686789732573247 -0.9471910621836138 -2.923237850711185
Ni 0.3960638596005767 1.315209797285387 7.562610951820657 -0.822706474644267 -2.1483464386676676 -2.4411554937494473
Ni 4.3202655383969235 8.783146799891265 1.1395643971667817 -0.451477487591687 -0.7130106153783204 1.1681457543272527
Ni 6.353003916218783 7.721085332141726 4.694198364190474 2.3283601696225706 0.256217629110991 -1.9102923678395811
Ni 6.107878722820694 7.853924331179383 2.1632317173165365 2.565465503384143 0.4193942339038971 2.0955076976000813
Ni 0.30527043075513033 5.145083530505328 4.546193657995119 0.1881733839475598 -0.03003922667456762 0.3694328143841057
Ni 7.056041826668607 0.7333438694566758 0.7916949789558853 0.21191932141424796 -0.07671169103044206 0.280689131889794
Ni 7.571266699515226 8.889370859661122 12.383646518967357 0.1455036129931752 0.09043238305064426 1.0412451011472454
Ni 0.7044200394249067 3.4787036100010185 8.629441990160199 -1.108562238336665 0.7600065245118847 0.5945298108308923
Ni 7.9493723103317775 6.371180892098457 8.649959911636826 -0.12888014550388124 3.0510088223112874 -0.25705555163125404
Ni 8.87337172684587 3.6648761943868666 0.2564744898524194 -0.5491832643752929 0.04922736956724426 -1.9401768141038394
Ni 4.7211395085233345 3.546593860680235 4.637954388565283 0.8084916165964656 1.377056370822164 0.7709892487756335
Ni 4.979265765063575 0.42066122996886945 11.613377367492875 -1.0044006786253863 0.9967804430759671 1.6564625222344764
Ni 1.673111435430703 1.8066198148041768 11.263331991795967 -1.1897558763978606 -0.9830636077105069 -1.5754712299920737
Ni 7.62150793626978 4.776716932180325 4.003463852870824 -0.4297686351596856 -0.6017232432555378 -1.516767288392962
Ni 0.9144225637658703 5.80845829908493 1.6985610872406567 0.8552517555701401 2.4446727628740863 -0.738377119167567
Ni 4.030329574067254 4.194290044774414 0.34694548478962683 -4.087223560123476 0.19073343136525217 0.6370869674668125
Ni 7.586417322045639 5.057752966411233 6.4987195302234815 -0.1896437978454992 1.8489322195645446 0.593863638001803
Ni 6.350345250659619 0.9916351141078572 9.911945487121844 -0.10513523647845764 -0.2959658555432064 1.2088064652714086
Ni 9.148986723145857 7.7097812895692535 0.30309447326911965 0.016761021508422746 0.41750164486687447 0.16898858348899284
Ni 3.663122606464865 0.023329318887060333 5.907584098927501 -0.47767548614329347 -0.5164186683497622 0.04955647077188885
Ni 1.563691320254618 1.5743825498435962 2.040092133623802 1.270466918395683 -0.022693842053089948 0.20539566136311724
P 2.9775357242065743 5.819743485873296 12.893493722186504 -0.6775928980006588 -0.6836938686920742 -0.20318502686504364
P 5.775008138078145 7.478977064200846 0.263620832029179 0.42249061344103367 -0.43076828006879364 -3.0394100617300945
P 1.8882276484216325 7.832155328427222 2.8740570666027767 0.7011783986300828 -0.24308829081788458 -1.9424666385792806
P 2.3115588574201307 0.6236409175189777 12.892224727916066 1.8123994147458338 0.04642435290081037 2.3937440943450192
P 6.3409267864979 1.8923099256809164 12.90131792980193 -0.6158758806068362 0.20861493963136332 -0.43645350337902894
P 0.7994852461599176 8.019713812944975 6.824299526040849 -0.6182996595569803 0.16451486398835538 -0.49909226125617273
P 2.7498898426761804 5.057554980678103 6.138657019219441 0.39510553655986147 -0.09033365268925088 -0.6065605167431811
P 2.6467958430681775 3.5562668779274063 1.8690164327836603 -0.24874471777271354 0.007146895457426401 0.9746404166438183
Ni 8.070680997387669 8.714577740984177 9.407327935624924 -1.737061978355099 -1.4509971839756883 0.06002008930737405
Ni 9.373936227548873 -0.008070275598029357 2.8913327360021097 0.7385943773846957 -0.38830034071256997 -1.6358219631659892
Ni 8.241052434691394 7.0997306784457885 6.519983197961561 0.2643382013355963 1.4166256484743538 -2.0720078147059287
Ni 3.540889985987703 1.7951932096350045 3.8127385394122095 -1.3818080265745365 -3.678429213222613 1.4173406722635074
Ni 3.2024286612572657 6.339418323769296 1.488462398400745 0.857505070380691 -0.6134508161051112 -1.5603762833321642
Ni 0.6070035164116852 5.664334113258908 7.005572434926351 0.7524834766619621 1.5918476144675682 1.234802632224854
Ni 0.8578938658006551 7.4128875409039 4.626654117149631 0.5906731560889634 -0.5592100524836756 0.8763849380043293
Ni 6.09954446624516 0.9479274065465674 7.684688012078932 -0.792590371985177 -0.9261473541394373 -2.28902537657869
Ni 2.5505182094150514 3.8769377703523737 11.586358914445174 -0.8341591965658989 3.2330400979168514 -0.6091053946522219
Ni 5.594407437896078 3.144145432580844 11.160201223408954 1.1833952242871555 0.12050606250757309 -0.6578013171960284
Ni 8.107789180511318 4.462409866891654 9.461184768982099 0.25008734784353703 -3.7719320076684646 0.8708853483423389
Ni 8.342854813088032 1.6067673590483051 9.00182675607852 -1.7367868703168412 1.6951352562143258 0.9528510886828685
Ni 8.257126990643076 7.3411601381587985 3.142482352422558 0.4714125359527171 -1.3571660596561401 -0.17837876645464118
Ni 3.8891374626699555 1.1301874157300995 9.292509409458848 -0.43268272348268705 0.43439276419525835 0.013953891076930808
Ni 1.6238224157735797 2.7776172732063262 13.684295879764898 1.0516002191293243 -0.1007957285628393 -0.1215185629324875
Ni 5.745536547518053 7.951314456094853 8.4744691289479 -0.055952346995903644 -0.3729392848754674 -1.6864169025047213
Ni 5.972824169150401 4.237054963130326 13.560355868036796 4.03483913298449 -3.0094325415313974 -0.418316427458686
Ni 8.344919521447807 1.581283766826958 11.605539960828574 -0.4306114427759551 0.4065448887450547 -0.24397994939421858
Ni 6.225689661924638 8.073245384026295 10.767311735062883 0.17355100604869464 -1.9033138796392186 0.2338300054444102
Ni 0.3164500251524939 5.3247697251581805 11.973674633009054 2.3101122791559767 1.1216926050710359 -0.1227542351118015
Ni 3.690934888023494 7.843006832181114 12.807582998635706 2.4119328494389043 0.3370495129573937 -0.8905977391696017
Ni 2.405686931684996 5.613734616606312 3.6048893456163276 0.5696610726136705 2.252514169026534 -0.011969256546734225
Ni 0.252479891989236 0.6738303008672362 13.55196692968735 -0.7145879871677694 0.04435770017976877 0.9097758547599493
Ni 7.084994883165742 1.7394555118131008 3.549557047152736 -2.4071218012035063 -2.5379439009251064 -1.22941617110196
P 4.16501643994745 1.9913876432740125 6.303937394814128 1.0068344848778594 1.1479286559494295 0.14319656212655338
P 8.351085362850974 5.298993868283166 1.885906501397994 -1.8778900402494756 0.6364729880318974 0.03112397509831414
P 5.786727007900985 5.651106780707465 4.156781176238479 -1.8165779716035555 0.17136582547191778 0.8917611633500835
P 2.5156821482763614 3.1500944324667746 9.47730080765882 2.407910872763705 -1.2118622213785968 0.9648257445462414
P 5.337082552180408 0.31910963350086313 3.272286513008105 -0.7939152614441874 0.02763858765287498 -0.8155726918129632
P 0.13282108604275394 3.3412826554252293 11.79336714026986 -0.13531947337132177 -1.5709702567979267 0.9354601468999308
P 0.19086201789339427 0.2974924198107679 10.153698323532298 2.481303526723243 0.9470398813177302 0.9208179715067237
P 5.129565220184818 7.84669313797414 6.2235325602227345 0.20516117675480797 1.2438318323066577 4.383744002618573
Ni 8.588347694276216 2.6242726089517143 4.6651246306750505 4.526687053973424 0.6578509394870412 1.3631546731394073
Ni 4.292509824190617 7.213223642989104 3.322954833272695 -0.3903682789851922 0.16129198617568352 0.5186213324280359
Ni 2.3626014649992557 3.607300057614477 4.256931787947296 -1.2784725623089788 -1.3894190061525746 0.21971233509610547
Ni 4.330513657059375 1.4071034611335087 0.6623763548111079 -0.386770791441921 0.7881346502066685 -1.7257727785945245
Ni 3.043596963827359 6.1269984879057455 10.444698696874838 -0.005858515663306039 0.18574471990140914 2.5195759399408804
Ni 2.172393742814393 8.595852296351019 11.397124150720261 -0.48169103506058975 0.44465069447784067 -1.825826486785017
Ni 2.1738173545145125 9.028309704857568 8.06688344246841 0.44007027419600986 1.4174028929600104 -0.3061389394214663
Ni 8.83466080207308 9.116658481293472 4.978354087901976 -0.7529431899072 1.1422076943052524 0.7810368628196227
Ni 8.021731381844482 9.194570581225848 7.1104841321223216 -0.1579186988280764 0.8664237130265595 1.354440690305177
Ni 5.173433201911022 6.016880708717681 12.587521856262573 0.027536000636739673 0.3879342156224028 -0.4547854689189974
Ni 2.1841880357736625 8.177018191862171 0.5473117606624293 -3.161064121799182 1.283733553597602 1.216077802121841
Ni 0.3107272946758539 3.7643970229064903 2.4059226289863402 0.9347937169605255 -1.9046763072043844 2.0636517294317493
Ni 5.5380097876304095 2.82663288399389 8.650636834286287 -0.5430285576278068 2.1414466262240412 0.17013503838861022
Ni 0.9421443375607832 7.696440822313165 9.610154891323763 -1.1658366465781018 -0.4228958192992523 0.10372755749765361
Ni 6.766530117481357 3.1893616028707372 5.869238033577192 -2.7163890018413093 -1.8437938698967151 0.3934314912915482
Ni 5.141472647848733 5.172075585455279 6.64497159128604 -0.9285896450323426 0.5446213560362233 -0.8243023583764773
Ni 3.9378325251276913 2.5232244619193795 12.511726318096267 0.30546042529720296 -2.156728492083776 0.3273410274203782
Ni 4.940102301472204 2.516568370129416 2.388743124085956 1.5684042958429636 1.1725737081916192 -0.5317612122441036
Ni 7.135839505011737 3.166244411554887 1.8229979488799908 0.1097853336559593 1.4172866790971204 -0.6409842456386896
Ni 7.469238051709299 4.7465571055003055 11.639001435305822 0.003628083670890526 -0.6916270074962217 0.6445935602565028
Ni 3.5088162972207684 6.984795246418247 5.472333206005418 -2.774403887793196 -1.2663690941772254 0.015012414248432209
Ni 5.7721891983540665 5.6308462406839075 10.36443150950743 -0.4194214875974067 0.5099531152300767 -0.6256280748975935
Ni 5.325929355880794 4.8936699331073745 2.1657706486466175 0.46876532813785715 0.7641537139110388 0.6272650962803842
Ni 2.240189714573072 2.211736336354786 7.353865165490462 5.0308613577381935 -0.4532137535565034 1.1645258981864783
P 7.077782545744606 1.074902256726777 5.606691038452938 0.7914223198190047 -0.9054070362682923 0.5818689275337721
P 4.277990870427807 8.473035146566522 10.019878823721049 -1.7518975007060347 -0.6085767758422616 -0.259286754954618
P 8.686435483203667 3.4195530152556493 7.021136941917924 -1.6772432064252532 -2.1005786843650855 1.0525723532346065
P 6.258376163675067 4.904757134162611 8.471019463245426 -0.7687109942644181 -0.013618876335015255 -0.8873038989096783
P 1.2482057684592252 1.5426294094064898 4.835717623442039 0.1968842814579964 0.24639704347614338 -0.11636092999094798
P 8.659726265015328 7.05854964595491 11.974267647419236 -1.2243115028855431 1.7096902712103652 0.42790458536775333
P 8.88327101350233 1.8048662268821751 1.8173270718096466 -1.098629038383353 -0.3817183166196781 -0.8625084371325532
P 0.6834533502865219 5.545778370682718 9.487374510318276 0.47485035798967257 -0.017180111323712347 -0.034991685583836515
