# total energy = -340862.4755916258 ev
CRYSTAL
PRIMVEC
9.29270544966137 0.00000000000000 0.00000000000000

0.00000000000000 9.29270544966137 0.00000000000000

0.00000000000000 0.00000000000000 13.60081374664082

PRIMCOORD
 96 1
Ni 2.493223530984432 3.1709962824888374 8.823283333126103 0.45862952525543593 3.0838780622354824 2.758274072110869
Ni 2.1014895403670657 7.661361566374022 13.093176396691177 -1.5385561021332792 1.6435129040523437 1.5934416984275652
Ni 1.3596993422640826 0.5396422633029401 3.002896819794642 0.2569820180808413 -0.455056720302513 -0.22123597082948349
Ni 0.39012821114687196 1.9981918285961573 10.614700388968751 1.1196406076380134 -0.033734930358599965 0.6963490955622395
Ni 0.4848896438576188 4.6591022261608375 7.995768858186536 0.1117969647693494 -0.48424259783784984 -0.12876290319972664
Ni 5.015226570187153 8.99422357582105 9.965982209758598 -0.036152538661157085 -0.24882365063976503 -1.5483779733197076
Ni 2.7665777491792 2.3340952459569904 12.552272184012699 0.32653935745468926 -1.4238936428906768 -0.5738882233211406
Ni -0.13646709395830314 3.072558655573649 13.1157678924708 1.3040596667494637 1.1952986605929607 0.2702147147210314
Ni 1.7854074633451442 2.392509191278323 1.4642227618599803 2.259504484301438 1.316672470417468 0.46668813389385433
Ni 6.423006369513369 4.051823936827547 9.871048862000373 0.8502141931462325 1.7038708363151107 1.3276860479191521
Ni 3.7085978677146914 4.8485619011865015 10.729341706061604 -0.810721791478565 0.45733343215183175 -0.24732392616578694
Ni 0.5256901956119684 3.737646864385783 5.357713869231118 1.52290194053579 -0.8148417271842096 -0.47615365018212835
Ni 4.877322823994252 3.531283758475693 12.375597412896214 0.9061575412810716 -1.6889648657375558 0.21952670144786068
Ni 6.444611909263942 0.4577354297908887 3.7304450178022592 0.17591282141265188 -0.12261462421014367 1.011248297674839
Ni 4.036871974049624 8.261995571439932 6.6322595067621375 0.46107978656814136 0.29189168547383276 1.603276168019484
Ni 3.673508612618708 4.479762307173184 2.6019444655503654 -1.0785448660389683 -0.5106038614401981 0.5926601046120051
Ni 5.586495626602823 5.7893460899212075 12.107226872537243 -1.961370417462319 -0.5510334302101542 -2.0757405422754833
Ni 1.7756315374020897 6.217879193404064 6.20546599770565 0.5856448496364365 -1.5807227081990003 0.38779769004453857
Ni 8.17691156199639 8.540767436806565 12.854917938486082 2.502602802421651 1.0912281179335916 3.0691484693347917
Ni 7.043684739844649 0.8000164307778803 6.1874177055320745 -3.8489023516769323 0.6392081275748733 -0.6289252575916265
Ni 8.05179457825372 6.022843895216963 9.199386064210376 0.8822161999741258 0.4279575500928759 0.4103773751172674
Ni 7.097210722194454 6.639795890735348 3.636939029573363 0.055786510842000696 1.1873305547858197 -1.4954782971071987
Ni 1.1763821454212695 -0.11250957050413088 9.14388166490879 -1.0793804745663862 -1.3613340749909006 0.225659810928792
Ni 5.969271449340812 4.23355208106935 1.8522266605823445 -0.08290830675945722 0.18345926630134213 -0.3947759211345846
P 3.5725433698703344 6.615105172835448 12.170279736328892 1.6777270880402073 -1.2078052777004038 0.12027003523736708
P 7.27236892381103 4.173316765515281 12.010238907644029 0.22762387663369832 -0.00036355398700582545 -0.30059332701288877
P 3.3407182515230107 6.099090541949628 4.357850377477814 0.7534558678775605 -1.1054869418454512 1.4176607746070877
P 7.413385726269067 5.939506914364002 5.567398188004371 -0.8521762019686098 -1.3793012009922825 1.3773307075294732
P 8.055716099877264 4.05357096541813 1.1462626291031812 -0.2231568420012802 1.1251965044592362 -0.3979152380945147
P 8.55668584093247 2.4785596420698495 8.977557108920985 -0.5441595859084564 1.1207035016848892 -2.476154892642768
P 9.745910505035585 8.128431518607686 3.879047455571432 -1.9035522209022702 -1.1652717752135673 0.2589039176939025
P 0.28226871035938045 7.227949792624907 11.072653268062934 0.828912603454979 -0.28359833511678906 0.22395696930507233
Ni 1.3657581860995118 5.5993753161057445 12.501636233001573 -1.3427897363298102 0.559706789614436 -2.4630965167969125
Ni 9.188171627491672 2.454287095907056 2.5300096340625458 -0.033352607318516754 -1.1165239163859029 1.241722756383455
Ni 7.937048253591325 8.928877272368997 2.2050595284023577 1.4791728750789557 0.2946209114795378 -0.28035771669230425
Ni 4.39477122478233 2.5192709838536165 9.987104528835179 0.25645108527803573 0.144511424283235 0.1376640623440984
Ni 6.695951708676298 6.132246914349646 0.3418916366362179 1.0837474932858304 -0.0637672150546321 2.8220651984249012
Ni 3.7478130839501387 3.624963520293121 4.940291124167953 -1.4111245161504664 0.07079609687695548 0.0864299467594705
Ni 2.2010608773250793 4.03453021232182 0.19274929269091232 -0.66513847428739 1.5543578450522262 0.7888643292838414
Ni 2.4149603672083804 0.480165232498827 0.6751317646669378 1.583123347220693 -1.9952791543946216 -0.5411539663129132
Ni 2.3216244354859077 8.11777278566407 5.027445548345445 -0.43313652319065404 1.2405014823818443 -0.7766487610542561
Ni -0.173594239319792 0.8354086280656351 5.81185859770604 1.8837107606963106 -0.8995315513241217 -1.0329077849261437
Ni 5.11516961535593 6.466013009498594 2.087071908142114 1.552459599588249 -1.6555945178072262 3.20987548687493
Ni 7.554476870369255 6.67529402486317 11.973530863290176 2.6099813264083305 -1.3083150995917079 -2.6533812906605205
Ni 8.902272257183668 6.704789071387178 2.2712951437486604 0.530202866618048 0.791582756656269 -1.2452042871741524
Ni 4.243104982085947 0.7462878674532099 5.171709222024492 0.8893620669902876 0.8992286753717222 -0.5390217504612588
Ni 5.872729534300513 1.3001423941946555 13.722948608398763 -3.620140247673733 -0.3961514613258726 -0.3298745924755093
Ni 6.978208338518829 1.8259050729077224 10.32526142722376 1.4504857915569085 -1.1440696872146554 -0.776011127470257
Ni 7.5866760941265605 1.648061279468388 12.55948053548991 1.6402177782408396 -0.319292703194605 -1.5547561089319093
Ni 2.739117805109118 7.677382190257888 10.6168089037943 -1.5711808301468357 0.41463846438646657 -1.5392927231889877
Ni 0.8233903723411554 0.5602060907928504 12.493285808046792 0.11336456636678542 0.07311163238400957 -0.608543608611481
Ni 6.17566243336671 8.817448443487656 11.912979595756958 0.06598093487649927 -0.9047038395536806 1.1335600459325832
Ni 8.302195814433901 2.8424619804063713 6.671144831960533 -1.5154868790186415 0.07926351091801834 1.4001651889254854
Ni 7.970780773718025 4.214585669615191 3.3300372160867493 -2.5591480458065474 0.3740523154339881 2.0040746411990646
Ni 5.849776552285927 2.754701671845337 3.7257113137381985 -0.1800497263991609 -0.18791215986637316 0.1264260275364339
Ni 9.198653799035174 4.55787678766493 10.562078586841626 -0.7491554407299936 -0.4823014149510791 0.48009592265932804
P 2.265793862229375 3.6674218906674714 6.750001799603279 -1.358081372381558 1.2642715882182485 -1.0482906951401172
P 6.303715911974403 6.918000901080568 10.145105608713482 -0.5277186667436137 1.1181059161610423 0.1370086881482866
P 4.66463138579593 4.464104098794811 8.759944254012167 -0.6925927138436008 0.27491083464512006 -1.9330386603971612
P 0.45805509885214446 6.9184190728176755 7.871103499919943 0.1870788653318004 -0.08229946953086473 0.7013164668698438
P 9.55290101659714 0.9912157002299129 0.9308177623336357 -1.4456546887168522 -1.5162096161172791 -0.5847117962992059
P 1.7704276224514142 3.815891442751297 11.25193928936003 0.41695862787921095 -0.4378161880545105 -0.037885205081547656
P 7.964703344472057 2.1017683215251375 4.277592069880495 -1.2698243997156775 -0.15335961870248427 1.329537242195278
P 6.531173458845267 8.562865489936398 0.6512996927338979 -0.7525881205606264 -0.7651502734963532 0.1509589796807916
Ni 2.5779637103330204 6.186423386068285 8.725016691987864 -0.14521102145342088 -0.22116192305843846 -0.6118317924444495
Ni 1.8919483292549557 1.5004931197956617 5.1240794611679075 1.5224849076030296 0.7070644250972146 0.7557084113571629
Ni 5.872339240679212 3.2514339392978497 5.9465201190305645 0.6551237703638653 -0.47263715238843756 -0.35225990214924496
Ni 8.143048943995922 8.81791307875111 10.629117091923174 0.7851357154793446 0.17141596198356285 -1.8102594855846954
Ni 1.1171225639204525 1.9559750685588024 7.708260920596458 -2.14899512799526 -0.2812774002930962 -0.7277893163493917
Ni 3.852727726437864 9.080153221444078 12.13452326499459 0.23131855187646616 0.5861942943820033 1.3670478375462263
Ni 5.033328760051288 6.016840807613148 6.7878398369178505 -0.773551610186171 -0.5777939861334501 -0.21605571218012468
Ni 6.845536385392411 4.639596837801074 7.488240325752425 0.7800575296254889 1.608862918078642 -0.08848451529565407
Ni 3.219792277856689 0.9185393108616221 8.7201343046395 0.650740296584189 -1.359161492819614 -0.16973214652323673
Ni 4.0074419764625 2.5360629022748142 7.105880816210491 0.8411600533637643 -0.33420355886816633 -0.1261198091499247
Ni 5.58176563962087 5.108274428046284 4.306507251595712 -1.0206312815516358 0.19330427741622191 0.29301217223152115
Ni 4.86365325454346 1.177330001358714 2.207507226970229 -0.7214564321528285 0.3866142112593987 0.08023230258919085
Ni 4.543500972613689 7.561167618162981 0.453218245759597 -0.8288280141609726 2.5258178070855335 -2.4479735451125455
Ni 6.404142177817171 8.005396100845287 5.423582422719292 -1.179267061051395 -0.1915451286332701 0.8853907410473654
Ni 6.216485287613705 2.4172277872940313 8.162392639284004 0.2684805056387441 -0.881700693790288 -0.27135448475242946
Ni 8.6515364836138 7.624646087855952 6.025051841988892 1.6915817345351125 0.5700531658457667 -0.18386781459367044
Ni 0.2402006336063306 5.694049397386962 4.3167756909180275 -0.5437605506978248 2.8685911099005823 1.9473926151259882
Ni 4.631066134364073 7.874852177225485 3.90876459775137 -0.45762293836779255 0.14945642699333614 0.13788877676039477
Ni 4.10853731708464 5.147071472544624 0.3323220087501364 0.9945392124502742 1.3629476993349237 -0.16907265856236686
Ni 0.6342754566809738 4.672808966432706 2.433240047743155 3.061578370297018 -0.7993870831920362 -2.4578401534939798
Ni 8.186176389149644 0.0944454807315986 7.994912070760728 0.7169490312007782 0.3322325511847246 1.495976834010172
Ni 6.897027265288291 7.378658886678577 7.817271787566787 -1.293282887848934 0.8625423756942822 -0.35625565357219935
Ni 2.8046313772560145 6.850554446237705 2.4373065355688968 -0.9130799794325178 0.7616204059662238 -0.6500193592577643
Ni 7.168550820545054 2.125000084697796 1.7582588249015758 -0.6962115415431106 -0.7647908332744054 0.05198590614898788
P 1.3333173520052115 6.154763139216586 0.9929422848689049 -0.10209722098308223 0.0432554682545255 -0.3343794223243983
P 3.3676578040980254 9.021785739649092 2.445807502349036 0.07267531617753936 -0.6817089770515615 0.5522601035284037
P 5.683743787243571 0.3157884275354189 7.942099768175588 -0.3767938827348672 -0.9605145187653973 -0.8212085499425018
P 2.5600194964584593 0.9208940823768027 10.953047787815347 -1.1185178068874801 -0.7860474286603366 -2.4449586695456214
P 1.7783914708670014 2.988654819699276 3.5637125120531437 1.3005048595186701 0.8497169417948398 0.4733933138281718
P 4.267535504238315 2.976481375796803 0.9589960325210164 -0.09527608429619075 -0.3480147537196458 -0.38726135792509436
P 5.378208930702037 1.4769175265280476 11.527763508615312 -1.2368687707252635 -0.5795603340052534 1.8878450945796583
P 1.9662342151758483 0.20236259629175837 6.926608733971301 1.1561803544352605 -1.5154143739094934 -0.1721412701853616
