# total energy = -381168.1272759159 ev
CRYSTAL
PRIMVEC
9.20805168462924 0.00000000000000 0.00000000000000

0.00000000000000 9.20805168462924 0.00000000000000

0.00000000000000 0.00000000000000 13.47691440457846

PRIMCOORD
 96 1
Ni 8.016713999513376 0.9292949969664022 3.554441485567936 -0.3446890317805225 0.9887753133833035 -0.7177252472451704
Ni 4.739531555642562 7.970913150194984 2.3204014124823376 -2.265491298012492 0.9911944643477575 -0.3706108938526069
Ni 6.9425855568435155 8.18456757454856 2.7104093644255376 1.3659926568088345 0.34920388893174054 0.5449833673613325
Ni 1.1493398092224625 2.443651184924375 2.6522430224353166 -0.09564838003394495 0.5084857866559308 0.2522822986123268
Ni 4.100253356048921 6.7571077707919684 10.227454882300778 -1.243284187333304 -0.33348467842427076 -1.2558561104610435
Ni 5.047918416222037 7.79633769739494 11.930869867629141 -0.43139948589488925 -0.42248495701407884 0.11278735370707674
Ni 7.195355784957552 5.051620053018578 11.2865521013222 0.8643249215160019 -1.2807315335464846 -3.3244998937907453
Ni 0.3267237747999511 6.303786175939974 13.176392381225403 -0.9910692516238029 0.9167461154301954 -0.780287643358424
Ni 1.9735985600740853 4.00099976642227 6.809102876510941 -0.5724946854077237 -0.34513280418616044 -1.3488292576556706
Ni 3.5438936623081414 4.7922016115535415 12.715832336906342 -0.10463824223738108 -1.0987601646445786 -1.052373349849923
Ni 8.29995367081088 2.801365578635863 11.656681711184872 -1.9064493399444074 2.2666722056944706 -0.5664955304014954
Ni 7.581136320350275 4.457719132363627 -0.14839327850331693 0.3330596750717103 -0.4940004485555622 2.177090086459263
Ni 2.3454749373504487 2.649524805563827 11.062660165052222 1.1435097009461275 -0.435637692345953 0.28752595230596933
Ni 1.6467311396671043 7.397490936593532 9.891758781892497 1.1336945146279185 -0.10720008942728634 0.14605897127601297
Ni 4.835359750024653 4.362673622378814 10.529769032762546 0.09410648946812179 0.5213256187330764 0.05296292535027653
Ni 8.732465068746999 3.6490219889402478 7.005502332722631 0.6406201774310515 1.3631073648412395 -0.03828244051996633
Ni 2.783023139584347 5.627804682139836 5.038237070630288 -0.41165624182969107 0.05563970085149127 -0.8512863431644887
Ni 0.41261371894695087 1.2620739865857693 12.172780119529644 1.079525484784683 -2.9279972197730415 -0.9602424960509334
Ni 5.196407458463374 8.845024293127382 9.854427498557829 1.0568380704894962 0.6149603107711022 -0.21889035341544238
Ni 2.5884477984209036 7.300539359900053 12.549999008421313 -0.42660977781572984 0.3863452738687282 -0.306718208963704
Ni 6.053778363345746 8.661894560267672 0.27601411310286156 0.4355412759774048 0.11944753933607169 1.280254593910066
Ni 8.687474527981081 6.551841881566873 10.080152757927786 0.540093900479515 -2.164244340844847 0.44952010675500004
Ni 1.8853946325266608 6.864132956081009 3.102116201913419 -0.05349822902845625 1.7870524513406125 0.07876008891903855
Ni 7.686181774516786 1.805634488418112 5.699805201053249 -0.22093335198740013 0.5373716164523455 0.6040107537381341
P 6.707927566487679 1.0125173685264421 1.7257325403128796 1.4312426270565801 -0.2155538328430417 1.2835852009451958
Ni 9.093098414857748 8.483341229119107 8.287750239849547 -0.6315706656342737 -1.6961287304758468 0.1992772071702052
P 5.717794971723402 5.598504661526421 12.591521796904699 -1.957553871929706 -0.4213048206630486 0.4575943991227022
Ni 4.440831565485876 4.4660155869747795 5.949451137214383 0.7226049439349748 -1.2861928137713718 1.3365666382382337
P 3.324622326397627 8.68422408571944 8.895477970986304 -1.4225348148699373 -0.129991376290189 0.5569677934167182
P 0.5039824538749004 5.036785881677217 11.389906036385417 -0.9444813765619346 -1.041805858746722 -0.3664027693085303
P 0.4812588238089714 8.225699941638478 11.85572295743867 0.2878213720592011 0.08987136834085167 -0.69548237668657
Ni 5.363358644428752 3.9970126800220163 0.731525382656889 -0.31055249510812966 1.2433530928980263 -0.24601394910511176
Ni 7.469691270229544 6.171982123438269 5.8724442005739075 -1.2687566205727956 2.2459154327630935 0.6620145839464276
Ni 5.263709108577595 2.202059531613823 11.416266846885756 1.0722508055001403 -0.817669940661624 -2.172073349970962
Ni 4.001073430836132 8.45064343741633 6.906271763225312 1.067847277115806 0.8009569987823173 0.24171300773691273
Ni 3.150820349943129 3.4729087915008447 1.444779228260604 -0.5506541924938645 -0.5756694835912795 0.13210045221339184
Ni 8.380993734110273 8.676719523557301 0.1656316721520833 1.2155440411055582 -0.029484639722678258 0.5635058516455521
Ni 0.5663679251690391 -0.013395873660715422 2.1903082159925655 0.8680440222388018 -0.4581289314699336 -0.6700325691548976
Ni -0.11312644036711947 7.4148020738509866 3.897900894392049 -0.42028126449454073 2.5041467498700034 -0.09233808471378936
Ni 8.77298970442256 1.5750740810833215 7.970799891158672 -0.6778659491563874 -0.6599597582999279 0.8345435764885112
Ni 4.006515389410151 7.897571018144119 4.522879910449998 -1.8469861515817676 0.9074083829690374 0.22566752423827585
Ni 3.8324003391967416 1.6488858237725534 9.527882359961492 0.6653760442194928 -0.30334415028514855 -1.5302794639467838
Ni 6.431455813213702 6.8302289096012485 9.57298892217924 -1.2215475669871607 -1.4117025001411236 1.0767998583234035
Ni 0.7950489691451881 0.23937711686884003 4.538459013176534 0.6710743801558507 0.8841748663623934 0.013084343987783915
Ni 7.206561983916234 0.6892539795676353 11.871450309798103 -0.4038259471519949 -0.16713096145496378 0.330417866573489
Ni 7.511882563268723 5.404785669174118 8.08709205971149 0.26090475017401515 0.9698260259743103 -0.5908374495809695
Ni 8.900825086627476 2.004942768172157 0.8824315384780567 -2.3328742554428405 0.4297529514304018 0.1851597939322166
Ni 3.7083678823574258 5.605134458773957 2.6468388168734016 0.8872892436216591 -0.9200561536400349 0.4936014133449306
Ni 3.9653646062167653 0.20098874919526113 13.193778103701892 -1.6507320475086023 -0.5378202739539899 -0.5577419525785814
Ni 2.976631635315858 0.2188219829859592 11.061043231167963 0.16648124368610684 -1.2283375933258007 1.1805479846463474
Ni 7.9617050984622955 8.547097779316243 10.231511949894202 -0.5010352439151565 2.3392199951552097 0.43656174682211907
Ni 7.058754337503115 3.6761765334999463 9.427910542299692 1.0655625948466874 -1.7146548143044924 3.695042910519894
Ni 2.8300947000418515 0.7306460137164172 5.258287407717389 1.3197359398341402 1.1838996747273998 0.5801066934270268
Ni 7.107133441306662 3.626176812591447 2.427178901179768 1.1939930544076598 -0.8201310006076069 -0.22483217282117407
Ni 3.001042180459216 6.145997001448622 7.869493826800805 0.4058818012397591 -0.05889368901241469 -0.1478649141365002
Ni 5.8237704391149165 1.1084100192706614 7.154826545256122 0.1317140154082506 -1.4952713233027153 0.03269183380606627
P 0.6811812806135872 6.861407372768133 7.299636050025077 -0.6122760790707197 -1.760628195710813 -0.21163855694903552
Ni 0.8802814583984739 5.281232031024902 8.72291908151572 -0.5373569611643262 -0.8316210035250774 -0.8568905767251437
P 5.126545969967465 3.9696095180655346 2.8827933009132014 -1.318680244876116 -0.24352897789972894 1.7672295030774146
Ni 7.186967249829072 7.05226266103157 12.244234600975307 1.4732027735384499 1.982761224433269 0.1121054971487037
P 1.585672548627646 4.684789688091728 3.154595651153531 0.15417928639030223 -1.0370364623825366 0.4739576709720741
P 5.010754719428905 4.920396107776033 8.430336000125058 -0.187587943757735 -0.12147768239222305 -0.02510296571521483
P 3.957012903295217 2.4639181067880225 12.904819311473217 -2.067632568456368 0.679828729309713 1.8043649744771313
Ni 2.933316959965291 0.8657474695435982 2.8740465725723205 -0.16763155524046613 -1.2406745176245988 -0.252626569325623
Ni 2.157262359934293 5.699691942016937 0.9864981767453838 0.2011271158947504 0.41012669255904205 -0.5216832591828112
Ni 1.8311960400280556 1.6032783435405467 0.3331491532990213 2.8115797255125448 -1.4831989655192133 1.4064651630015843
Ni 5.354288713472053 6.476814676048926 6.921325086197911 -0.24487983550066858 -0.1596004574058735 0.42793003928905005
Ni 7.010587018889421 4.00853195273961 5.381668855299203 -0.6276073101111513 1.8169965471982126 -0.026486990546935027
Ni 5.447851727127903 0.5470273333097 3.762754319111378 0.02206083645478136 -0.14111448278654404 0.04478707440770351
Ni 7.792203282166963 5.746164979111816 3.664332216556189 -0.9630743090727736 -2.299101529867769 -1.2811879043576129
Ni 4.652183976906278 1.456317837886836 1.3764913958058118 -0.4099228040783521 0.9521813163093537 2.1418778002241887
Ni 6.380028844286636 2.149601260892696 13.441713183851093 1.7082561098669997 0.1734093382645078 -0.11045047804378398
Ni 2.008174794330331 7.712010359626977 6.018169906490265 -0.016763078390951775 -0.9239524033706474 -2.39971985231248
Ni 3.0172943917674115 3.589501142540148 8.76508827523074 0.04458498569922644 1.6336606938486122 1.0996412816979513
Ni 3.8660005199693224 2.360659014657652 7.108789049008199 -0.017294011193757314 -0.5276405052075106 -1.2199316286502926
Ni 3.1800098739357523 2.9905726256391487 4.001605656226281 0.5720043760348664 1.1329666353229586 0.24315308261754895
Ni 5.53082548129116 2.461118859061285 4.943911630290973 -1.8205359278100386 0.11409064589953254 -0.20586000259404547
Ni 1.132820564414019 0.45775527176128367 9.753377418038133 -0.459993238372182 2.163528802835061 0.6492318303594624
Ni 4.432047084132891 6.502026321693028 0.5687316320488204 -0.765548023155404 0.8804102571136385 -1.0727477997412171
Ni 2.4247286386136992 5.11591067021621 10.504904530668766 0.11191909216951049 -0.16719986701968623 0.45048581310237895
Ni 8.38231969355978 8.957813718801086 6.08175426612 -0.7323622804320549 -1.7859461056503114 -0.1515145950739455
Ni 1.2158495668876723 3.5404866831670465 12.88855236728225 -0.8375245134937062 1.9668548376156576 0.40267100761194524
Ni 6.151788865988483 6.1542750399563095 1.99909841773742 0.9115213766961463 -1.7007842269699869 -0.5034654506232038
Ni 5.219040849622323 6.050877827049948 4.307801000493376 2.1606129147398465 -1.433595700669789 0.47850492402312433
Ni 6.378058321215841 3.2051570632177246 7.572745943611449 -1.6042588436477274 0.29548248814888467 -3.4059483281752247
Ni 8.801240007138448 3.3128083960245873 4.281521220848283 1.827044161242202 0.30204394341648627 -0.5995776576674449
Ni 6.8678990492396785 8.27118771719796 7.92131213792651 -0.8463811925533876 0.44037186459682864 -1.0193979233651669
Ni 0.4505960115391182 3.0801209287395457 9.703486352140079 0.06847721893579174 0.39834101277802364 -0.37410013795278796
P 6.003465568678335 7.891005677258712 5.285147294621641 1.0363985716882216 0.9251307399494647 0.5840808475834263
Ni 0.1563168070192955 4.6588874385676755 1.398243576413942 -0.7977243507776325 -0.7166317570706755 1.7509407932197198
P 8.235396020112999 6.872797732761469 1.5792112587268183 0.7841980341564235 -0.6713497453044244 -0.09377327449841914
Ni 1.681160045095627 0.2258339143804016 7.40313823472119 1.049903805263508 2.1099022757588566 0.17590279411032286
P 6.682596216171052 1.207019045276024 9.768364443038257 0.4500286709603024 1.0789212755417805 -0.6554808965929679
P 0.8359364020590186 2.018561476684804 6.208208440565013 0.5364853571926502 -0.12333813263972952 -0.5108859114569911
P 2.6352799495333574 8.329723302062662 1.3805484633992342 0.02411771898381008 -0.1690456619791734 -0.38940257263781325
Ni 0.31881221675122506 5.706082329919423 5.356979306188346 2.1757711105375237 -1.325488268936885 0.4567528770580134
