# total energy = -340857.80925521883 ev
CRYSTAL
PRIMVEC
9.36985070844608 0.00000000000000 0.00000000000000

0.00000000000000 9.36985070844608 0.00000000000000

0.00000000000000 0.00000000000000 13.71372363083537

PRIMCOORD
 96 1
Ni 9.335988198273087 4.641992763057747 2.0009560083246183 0.35245659154108333 0.7650893383514308 0.8866940332398213
Ni 8.87326748442974 3.16146263195481 7.8289179646681 0.5068302533303788 -2.3460611864467595 0.9451051261888627
Ni 6.54643368582804 7.548932766816366 10.733402130521762 -0.6354517458562347 -0.07848806620457452 0.9147339700961732
Ni 8.887153603373442 2.6344741112053485 0.6838323279170985 0.22995740986288138 -0.9611143571329254 0.6877682958717639
Ni 9.226895024952212 0.49117976179726824 2.263792505170437 0.47034887057489316 0.3111667316533609 0.6240581593073123
Ni 7.917027357034573 4.603023553417489 9.834755665279944 1.3444786939964588 -1.5643524943710931 -1.143460849986063
Ni 6.9103586924228 3.8994601936031907 1.9301517934730745 1.4971114618352475 -0.17620052785639978 -0.33931516906311887
Ni 8.730536546596113 2.1066704134328758 10.015873008031628 -0.09092732040919178 1.4401864665134294 -0.736073410735055
Ni 1.1080598205428205 8.641063840932537 6.283696509401117 -0.4129885874878694 0.8540369093264325 -0.3022357477123182
Ni 8.130875462737771 3.331853369465771 5.51018815005723 0.3110320058477095 -0.2536095020641826 0.03673309375497545
Ni 7.16454400598878 7.696020685290221 8.418923417236641 0.7774761420515578 -1.155261699275733 -1.1188615633801442
Ni 7.0676128990571945 3.052116472661277 11.872614831134776 1.0443142269908725 -0.5038542014211903 -0.90754567987785
Ni 4.024950605892676 7.438049951985202 1.0185496354758856 -0.6457081334769201 0.2849677046604899 -0.6813744765302782
Ni 7.555585360912202 0.24109375797344118 9.55134766091665 -1.0265936697826576 0.12470133153584331 0.17704950612025636
Ni 0.14780283809288686 8.35131057358093 8.31007760797792 -0.49969467072686197 -0.05849799623589281 0.3807716364356927
Ni 8.250125554368346 6.168987984472305 11.592923846599392 1.9157315365772813 1.0294167410537498 -0.8135152950633022
Ni 3.981268361280298 0.3502703229667853 10.141737277369598 0.3758307474906495 0.995476379552563 1.218786973522888
Ni 3.4950855409355785 5.783231225422195 12.491460684586391 -0.6214384622962782 -2.334301217697354 0.2041857002154161
Ni 6.8541021079842075 0.11063919870934419 4.715161928261106 2.021366595510293 -0.7245350710781522 0.14614793144539348
Ni 6.382470665992774 8.133592719481141 2.8191435644101754 0.9699658939862844 2.1208191797816767 -0.051071621864834625
Ni 2.6624150064078607 3.9880240237353655 1.9791233188841846 -0.8803282389227935 -0.38231532677372865 1.3864406402505411
Ni 4.26055550524451 0.6733362210070198 13.335691741079522 -0.8139053314128691 -0.22119303340669003 0.3899476465080059
Ni 0.6749871887248879 4.76315430425952 6.771220155400927 -0.8273665991240976 1.307428840332013 -0.993660923610379
Ni 5.89575376415022 6.2778656512238795 1.8838544234914738 0.950930217511072 -1.841862200091641 -1.331096616262598
P 2.760967097534629 6.89455175405706 6.448028701359448 1.486695408708246 0.49568169291272696 -0.05434566463041608
P 7.165302963906756 1.4802396657269212 2.0811394438662076 0.8988964888432842 0.9738048081164004 0.504057318570932
P 4.609226394673043 7.811307330015811 9.898675850719922 -0.1922061592560367 -2.2706486738437155 -1.1695187234153792
P 6.278755787053603 1.3235008008886833 6.283148373127024 -0.0747828494388454 1.126559189134718 0.5311893989010336
P 8.307225425382466 7.6923851831646095 6.500401482625189 0.4595222122730344 -0.45781911353899857 -0.3742245793457942
P 0.22915563101920883 6.845884748798223 9.760770386068488 0.4257011499585314 -1.1229933261603304 0.5720748242614857
P 4.516689747785045 4.344996601007435 8.162010540091368 0.582106754576191 -0.024732726859989666 -1.1082938151666268
P 9.28838935600992 0.5845240898276061 4.451158884985807 0.47499536820796906 0.3477746126843817 0.8836706730324653
Ni 1.064780479516528 6.526972505635009 5.3471321317832 -1.1262588842854797 -0.8323799931782891 -1.7214921489412998
Ni 3.8127609637880178 2.3726617390562548 11.807968482254758 -1.6568633572173206 -1.1639219460538923 0.15480483578944304
Ni 1.2003903307123562 4.611250282454312 9.187070347930334 -0.242985189581117 -0.03072082612262451 1.172401187169497
Ni 7.195680020327462 7.029871139876872 -0.021826130544846403 -0.4579456118145339 0.6964514254680586 -0.668751645559945
Ni 4.841551846231155 0.8088373819331132 7.7950318991081105 0.728233602975662 -0.6972649225082895 -0.11367824095246229
Ni 6.083132041232662 0.3165426078859795 11.87271134059842 0.8985113375897236 -0.2517295114326503 -0.5472611076519155
Ni 8.222493864243527 0.10085332649287745 0.31758078735896345 -0.2436400495562965 -1.2018554878748722 -1.9865749417524046
Ni 1.5313990513089857 0.521639272905359 0.08344695458888451 -0.08653947575414128 0.9942070259218362 2.2676872772225463
Ni 9.178368567455964 3.8644075816137216 11.505718644838904 1.0560106894921943 0.7381842864304706 0.4342492966388586
Ni 2.3878408974157685 7.879847788904604 10.702231447734976 0.054087011652390715 -0.7507163574592104 -1.2952734359164015
Ni 2.083442553202484 3.2398976533298036 7.409936651527248 1.28443366498842 -1.6132939572668021 0.65726061420121
Ni 3.9852880272903177 2.461487925011928 9.114538332584042 -0.668941392973248 0.7846780591166357 -0.4070832777470279
Ni 9.359759509852152 1.626081394039162 12.263086499127173 0.1328273030770874 -0.5968409754625721 0.041083400303871184
Ni 8.251100018855622 0.4186702340929889 6.907095173375505 -0.48843349599074587 1.7487849232189818 -0.3869371418164562
Ni 5.264413214604521 3.4092951866518084 13.30159860181599 -1.0211691563329768 2.332325582028222 0.6373129674346895
Ni 5.125720682482594 7.1113419929237685 7.6497345591296275 -1.483940214560612 -0.7287807337283836 1.040008914747299
Ni 2.5212300939627053 8.958495647663156 8.25588145373887 0.8886210750592051 1.8262291215400743 0.20049462451707406
Ni 4.258466028507367 8.57684288328062 6.151661256300446 -0.9869878824655777 -0.5306908619980601 0.39620056939625314
Ni 1.6220242486257859 3.6730002686704215 12.781903572959763 1.3748452221034582 -1.1816643576389778 0.6405209328490259
Ni 6.700192938099411 1.7541953645636255 13.715369340905156 -0.710872228879079 -0.33449152242223035 0.9161287935611707
Ni 4.1630622072625725 0.40979042645267344 1.9840190659476695 1.137690266050873 -1.3894693997745362 -0.8775072245342308
Ni 1.5861377199116269 2.6094472396138295 4.9901633024514656 2.373006861797668 0.12385929525052217 2.0010111717823924
Ni 5.087294924191011 4.702306492909716 3.2851774575102666 0.020441555683803507 0.2609857399235957 1.4623349775860106
Ni 2.378068142990477 1.4143133952222677 2.720212931309503 -1.0898199247321554 1.1753111617274405 0.24737174868458686
P 6.533119127785528 5.250789451484316 12.312990324696784 -1.9872791669082808 -0.974298202813051 -0.03530381750761662
P 6.075102079063462 1.7519840797655728 10.221208604247408 -0.46900598339375354 0.09669250502774314 0.43636865697470656
P 8.225548435617108 6.964544539825928 1.9125570875672135 -0.38024970249395157 -0.9388015525683381 0.5400699892201151
P 4.257791399246945 2.9289591532307533 4.079325724282756 -2.7235094149361743 -0.29784276085094513 0.6894163729981482
P 2.981683303902965 2.374873023854308 0.5592461062335962 0.1108086327141511 -0.7639289994947425 -0.3319168197165187
P 2.285222291024785 8.316904481299366 2.1726650838486554 0.02129901858809235 0.9339164565618948 -0.2694356704631618
P 4.155069724496729 5.166676300500764 1.0881142190614028 0.4019369576593981 0.44080638103108594 -0.9937095174601273
P 0.13627979553083133 4.664536624176876 4.258317047879024 1.8881708533501935 0.14350226629243026 0.6899761021563601
Ni 4.007307176762452 6.756983604035838 3.5962593163271563 -0.7541678063429205 1.9733928958444915 -0.7628167402671702
Ni 8.195227598301438 4.714168724072151 13.67303541782854 -0.07173120709671518 0.5618138086551099 -0.7289473412132349
Ni 4.405919371163952 7.716062796235283 12.142624885783091 1.3435034745673828 1.716725837900908 -0.17624500794109002
Ni 6.198259398493985 5.7121890163593365 9.427719037988913 -2.458492185255682 0.5762613515390075 -1.428614959625746
Ni 5.16766950468972 3.770456087249003 10.712310596282709 1.9855333878617674 0.9897883280288502 0.4282701962372883
Ni 1.7155728394044185 5.560163186493219 0.45497653212474426 0.1374789429164858 0.8440137207624755 0.47891655763924623
Ni 6.300578169658114 2.8750262918002836 8.411723623851795 0.8614825669712003 0.5592236793304305 -1.2000703709499911
Ni 2.80827547442178 1.1403295868330459 6.484342495271874 -0.1119139499631879 0.24621835180643406 -0.16902252205072182
Ni 1.9463522655740615 1.69832294400944 10.144754369339822 0.2286327775141869 2.9281424871016535 -0.9098000231296655
Ni 1.7460342244826772 6.363590416551775 2.881171039980635 -0.5686814823092206 -0.5694397006314839 -0.05559933453185909
Ni 3.136885513203573 5.126470270549731 4.9212658522457 -0.677937168713955 -0.9129072013000794 0.6313369523569128
Ni 6.2998566911434954 2.4635305524948747 3.9139787774785404 0.9003843862427203 -0.6290949504002714 0.8086016598117688
Ni 3.7775022150800854 5.305340723070173 9.919300766387183 0.2627811412611216 4.991146041426442 -1.8499416346656656
Ni 4.668706207800323 9.213524247804664 4.106011996457899 -0.2600161769214748 0.7805396114682299 -0.5896218320063136
Ni 0.4815494291047324 0.07339216765333258 10.322224029159802 -0.16161877338748296 -1.6309314678429072 0.8216230117721012
Ni 0.4257341646406663 7.624931626973165 0.622475733666726 -0.5788064865583644 0.23974688514947745 1.6326034562286915
Ni 7.586562087786617 5.48971127803323 4.196673736192972 0.06966275460346068 0.38678133296488226 -1.6432190269610085
Ni 9.22042982787316 7.778569071183625 3.6950531496055765 -0.5888433019690762 0.5433049512176449 -0.02722464004390795
Ni 2.0971506449802426 6.813858598629818 8.493348142452454 -0.11867517994642143 -2.048137435846234 -0.016010773605959525
Ni 6.273518040434488 4.7497741572611325 5.906404473599146 -1.32743382269903 0.19375447757976308 1.2078813823539778
Ni 2.3090404518580465 9.016701161076304 4.413295317744575 -0.21418266352712792 -0.4485914242931435 -1.1258181972036354
Ni 0.16093468404403405 2.689999847278483 3.4762914941222993 -2.408726426686465 -0.966703935405561 -2.677830167731504
Ni 4.872284956983751 2.8161929983809095 1.9379278326845315 -1.1386654854799485 -1.659269395555652 -0.9207140989390079
Ni 2.117220865477822 7.805451173241308 12.944589482125647 1.254137327997724 -0.7768570204103201 0.014649374482058643
P 8.253217605145284 8.55687573114227 11.469665332779805 -0.16853529800165815 0.698643548023371 1.2675713420154429
P 7.738053836154899 4.849431890786929 7.62469363276185 -1.0308285337996117 1.1688972877812966 -0.8106076344982039
P 0.7029946098683587 1.287089560527529 8.119333680474037 0.6686143486511323 -0.41234272637375435 0.18127717104835875
P 2.709826451654243 3.9664077778493176 10.792947532604916 -2.2933353168079536 -2.8321071560419355 1.467954894875949
P 5.94496422075773 8.896664001975235 0.5679347689167918 -0.5742201527392626 -0.29844439899068603 -0.29162274808316224
P 5.865742131912244 6.742048061798144 4.473787074762489 -0.1992818351558955 -0.009104533404429481 1.113518811010992
P 2.242505141048845 0.4708031471772471 11.850083150821737 0.24821815584528223 -0.5797523954114016 -0.4109250200906214
P 0.997636128402778 5.775201263252996 12.075427126519557 0.8248237780975858 0.6587785935076332 1.385848258082181
