# total energy = -340877.6794851412 ev
CRYSTAL
PRIMVEC
9.19406715519593 0.00000000000000 0.00000000000000
0.00000000000000 9.19406715519593 0.00000000000000
0.00000000000000 0.00000000000000 13.45644663217839
PRIMCOORD
 96 1
Ni 3.924846138684191 7.8528182602050265 6.803068172730458 0.8496948303076527 -1.876687535300942 0.1151226867084727
Ni 4.750905491402013 8.17980525898528 9.612464339374249 1.4168261945209342 0.5816434417865274 0.1871734819281357
Ni 5.868205309756334 6.783244844512545 3.1084258459838354 0.4397964517093329 1.3244698549746996 -1.6036944865038252
Ni 7.581335844909559 5.8494402186692955 1.6475805138822093 0.07257427182330081 -0.7024870901391772 -0.36810818203541124
Ni 2.9023371528175517 0.1634125915990602 8.43782480172869 -0.829460762648965 1.1655630812017412 0.19455100533912945
Ni 6.599768040135806 5.872829925541135 7.513756693014874 -0.10890678770574791 -1.271466563304791 -1.448293926111912
Ni 8.417048968152315 2.132977612316173 7.346856791739521 1.4142759172952546 0.64860705229127 -1.0631092482101885
Ni 4.022275668448687 3.234987696972432 5.61797222249632 0.13491606728531605 0.5647021859464985 -0.9662354804095746
Ni 1.7570230118065904 2.703579808809918 6.2593337987176785 -0.7863693307761297 1.0775295374005764 -2.4632438410080546
Ni 2.394024761377546 2.5397507259682106 10.346984801161216 0.38514739690588506 -0.5421947488726017 -0.854592010498954
Ni 1.47385493714237 3.834578787242478 0.21547583574338566 1.2400181149875225 0.2889331170661411 0.26402838340466145
Ni 4.735045725539622 0.7633319100669534 0.8736588772527619 1.372799652428339 -0.13604760978659794 -1.2455308172756356
Ni 8.589722743608295 1.8329935888042348 9.9467633797721 0.6483892798535091 0.9435421525771169 -0.4750120803785174
Ni 6.2860204980754615 7.303518717336302 5.383198039770234 -0.03614199713819582 -0.19291295551507423 1.6566926359674112
Ni 2.703414315600919 5.576238512813674 2.481556877837194 -1.4808376643758885 -0.28700710368802185 0.7074935422148331
Ni 0.3918116081518237 6.305842906886659 0.2794536715289126 0.12851736284782384 -1.6424188996572164 0.8036543431088224
Ni 4.1327699676569285 0.7195874578949709 6.160414830072193 0.019809064306127173 2.113451426562696 -1.196700426036494
Ni 0.7569291616921309 7.154105931811829 2.86821429193542 0.5628769598123016 -1.2252281011625414 0.1628557311183776
Ni 7.708241554010187 1.6363324921105866 1.4538477275811241 -0.14564939454242012 -0.016688516399274482 -0.8388720286605359
Ni 0.8205971574141432 6.828957746464897 5.426392686725653 0.7263338148497879 -0.9152996127916558 -0.3034235973728323
Ni 2.511129594878574 8.326101255740275 4.740382881529835 1.8552715315190111 -0.539524144018974 -0.9519645723128574
Ni 4.988847949673711 5.8402369574355255 9.298324210645891 2.976483597409203 0.20786469172890007 1.2123463601038669
Ni 7.030344593682179 0.7213775427723085 8.450809582788082 -1.430968033238955 0.26612820335648363 -0.4737437551890551
Ni 1.9506316782009263 7.743739847340442 11.3268158466472 0.6916807435522927 -1.3180405544095881 -0.2772790777669805
P 0.24927230724110339 4.82938604873614 2.207125925201397 0.4370430573339118 0.3020642551314604 -0.5415553155163898
P 3.7628742574101373 6.517729378808203 11.291209982731093 0.8414256483203251 0.18388504098485106 -0.2894578792213595
P 1.265940302236799 8.177028650700965 0.8418529212966138 0.058727081527563375 -0.23266323882981868 1.9401251349302973
P 8.829853389865644 8.300716436293282 10.376831501404162 0.41115616226482093 0.5166104726455941 0.9173564953206846
P 6.794103037836304 0.20573288276693596 13.411421632786437 0.5354515166114973 0.44536597537731043 -0.23762238260730692
P 2.573943461760809 5.061462692155545 5.163184931880129 -0.9382911885908227 -0.9170842154959045 0.6893551807429096
P 1.4007804913022055 1.937401415548184 8.059980820416369 -0.5070642237180557 -1.2133596318597297 3.044725303295421
P 7.544596352511812 5.391125164481279 12.879501635082743 0.3931149884923939 0.6187737709799215 -0.8204058515355483
Ni 6.784173445296372 0.1278738443732711 10.565611443722597 0.6958348749299823 -1.4282213237317534 1.9035715041759793
Ni 7.365072997016712 7.264131333594573 9.111589028865309 0.7784138233744787 -0.1483256558230026 1.358751401865389
Ni 5.62291679181852 4.374316500257934 3.5441051068076743 -0.604694667179036 0.12564338373413844 -1.1064536766340944
Ni 8.00461230912565 6.050698348946247 4.026869024405123 -0.5191882606750994 -0.23981733337609665 0.30194418461382844
Ni 1.0021533211597786 0.5921098778165803 11.36488388175052 -0.20861982472736973 1.8685026854973046 -0.4797776200879608
Ni 1.2948740316101002 0.2684961822797546 2.7820530108903117 -1.6126732929636678 -0.5930388281076625 -0.568889998775601
Ni 3.321411928338505 8.01524984483741 1.9038853630990478 -0.22850627923865163 0.11760817213448778 1.0116123658824772
Ni 2.6134595624428707 4.6638008990656115 11.745863039966652 -0.5430974631925292 0.2516621485298246 -0.5244425670955032
Ni 9.24564588340812 6.354387581526325 11.317127138667033 -0.4175774924101325 -1.1633922988026673 0.4882149522220366
Ni 0.7633833968430865 1.4762178124041871 0.23664793361464015 0.869092518107974 -0.39083030622327525 1.0837145831653658
Ni 8.236311995791224 8.31298132189353 1.8224470743574241 -0.28408350228332363 0.6103284684260456 -0.21753743893197378
Ni 7.18986165902275 4.776262728647506 10.414159414100572 0.6146548637155415 0.24426688450701806 0.349388751249037
Ni 8.432274343380211 4.391307136381818 6.1883914570534495 -0.7380544457208257 0.3547659564005503 0.2165694185917496
Ni 8.943317372768698 8.44491618573429 12.87091621516257 -1.6181793103835618 0.423321079762129 -1.1638239870234472
Ni 0.8163743223645222 0.17633945003530466 5.8399501025399285 -1.858529890555309 0.8804020295835224 0.4122835910010448
Ni 6.152596195353713 7.582806895656216 0.7841371646582604 -0.8582013251167672 -0.6564753992957533 -0.18975692638459576
Ni 0.8721620831180388 4.395637542017288 9.87035700399076 -0.4834560973808125 0.658834386446233 -0.7901974462729682
Ni 3.958174632163128 4.023765107329678 0.7385548184596737 0.7550190985996222 0.11679313243236016 -0.07395983931691778
Ni 6.894152876743282 0.45829482724025006 6.045779523012113 0.0033542611842135783 -0.2786013961228298 -0.5083132656338084
Ni 3.3071151538944363 1.208642875654526 2.4885544823576957 -0.2433700837243615 0.18070690036718556 0.9032064290725478
Ni 4.987781437882385 8.519829445007776 12.156056346604666 -0.2599236172076685 -0.2617763541456911 0.16279608152503575
Ni 6.421265226096199 3.345003904688009 8.766027256188366 -0.08385164450933301 -0.41179431006945205 -0.3249319037582533
Ni 6.907088929246694 6.9794002675120295 11.40211801496183 -0.05603847895180672 0.7770537098021585 0.6557120387671675
Ni 6.1456822568444265 9.42511407450022 2.4974359512406346 -0.17213355687587775 -1.2794277271333965 1.538219287619151
P 2.1644580982946233 1.2852754254881662 4.497722947394953 1.0078719250034385 1.3222098552959294 -0.3187260320578575
P 6.133509311915844 8.177469965924962 7.694611349435697 -1.6212162974376725 -1.0257557472623946 -1.4924693350775458
P 8.2640688845672 8.094741749559864 4.769799299429383 0.1823385224333376 0.7586960332305772 -1.049751853066676
P 5.575208777291015 2.020359483592447 7.263601755325777 -0.7627200667883058 -0.3501467124609841 0.4477357611610676
P 3.2440530471987032 0.38714010262447246 11.08957857332718 -0.20235893141932249 0.33933110990271886 -1.0763098060608625
P 2.9249545580473963 2.10865011059334 0.5494172269284571 -0.704156250311484 0.16967198270926262 0.1739317864268811
P 5.880966674983579 2.9377986698791414 1.8084252025216372 -0.0032339335562653984 -0.26238004916796104 -0.32833630145411197
P 5.8487690517661335 5.016577256248187 5.538780963770214 0.7782418165729887 -0.04241677440331404 1.3360938123668733
Ni 7.788717223919467 3.449283014491626 3.222455264017635 0.027142364742746807 0.22330210932989283 -0.5934100954041522
Ni 0.6656762062501581 4.519858583505267 4.284666990129817 1.110128040161888 -0.3407794123134712 0.14081854881268005
Ni 8.465152327567983 7.64954662921859 6.928831978688994 -1.9551763728364653 -1.5016111494778137 -0.9705721601117154
Ni 5.15629949497906 1.985320893620521 3.728390989095074 -0.09581755862195757 -0.5060082716497157 -0.6785218375728314
Ni 8.484515033020852 3.626002179500911 0.49560527120904363 -1.294118496376352 1.0602951758001609 0.2343123443974674
Ni 4.670108029141901 3.9061178238658196 10.911617289843687 0.7647635795808958 -0.3486557297377544 -0.8260090566549387
Ni 0.8841971170391228 2.684851493991547 2.6048989665040465 -0.20347761840479797 -0.14350663716780448 -0.3174587353096597
Ni 5.353723699247536 5.753803532002286 12.661722685514123 -1.6335064276589353 0.7983416726466573 0.5515443084083017
Ni 2.7590935863618697 9.148832356143785 13.230190019611785 0.5837332344360205 0.823959887435394 -0.5916661161298519
Ni 4.348812157937776 1.873291185195458 12.30052456280694 -0.17958512805791652 0.5562800233210743 -0.5453582342022478
Ni 4.1200086024296825 5.342975834729777 7.0159623144134615 -0.13874341145120622 0.18813327473824373 -0.48431767405015946
Ni 4.601143331325209 1.4121719405216273 9.737138648373543 1.0360203624131965 0.9491001062808687 -0.1916387167883409
Ni 3.5977120348292724 3.122838465674203 7.8651585371560415 -0.30054010517745017 -1.2130097047194786 1.4798724722491416
Ni 2.9078627871846807 6.37600283343501 13.419131777512352 -0.28741539487003404 0.4974243866354465 -0.24906250612344846
Ni 8.09661733926185 1.8487430258606268 12.33689721192474 -1.1874261998234195 -0.484652688792075 -0.2867008853015127
Ni 0.12402888548419753 -0.10106118629530539 8.30180685265924 1.0616979696849587 2.949670848091733 1.9862892921911857
Ni 8.254019769154102 0.9463269453241625 3.664903197089527 -0.08082031388217693 -1.8917642271284065 0.01382199348475684
Ni 6.165890816476621 3.65816302644969 12.88256969529624 0.5418023985301894 -1.8787439036093387 0.22129202087839955
Ni 3.1122560943654425 3.3832328359667465 3.26779028980944 -0.022745521226631798 0.3792569995633791 0.8850287297222563
Ni 0.7757990651448677 6.863417110205327 9.062808986106177 -1.9773541944850852 -1.094531985495844 0.24231233188380844
Ni 1.58153585179763 5.216805651002478 7.235289544892938 0.06646018850576295 -0.22278737447700342 0.33352504474390304
Ni 6.353918684100829 2.7816558271887146 5.4754411962460505 1.8298147820088033 1.237519774045701 0.1385060986294195
Ni 4.235329786900389 6.124480737958239 4.505864293870981 -1.0428399564381912 0.7228983068056776 0.4222288751392148
Ni 3.0117557461672995 6.948085274742578 8.886785811981403 -0.6111504501067088 -0.6357420234031438 -0.07630802783412019
P 0.6557291449826098 3.065127306069433 11.603183989235 0.39297254937725873 -0.46969246793781694 0.8198839175938073
P 8.54691516688059 2.4614448559102486 4.986259819766312 0.7536160476045086 1.2393447430695816 2.130226074917873
P 8.54155502572246 5.091867472275503 8.25784450109541 0.095822443717964 0.1944319632627619 1.0613004771362238
P 1.6239113073685054 7.885052659691139 7.359707339418282 1.1111477396756542 -0.8807797246379155 -1.585646884973495
P 3.277675750826972 4.814123897239578 9.201598946426357 -2.648820667873032 -2.28417524757524 0.13037369933027224
P 4.4277891948989 6.195891057641248 1.5314107170120244 1.9582992347361632 -0.5749549740227582 -0.732966489674957
P 4.679522753920503 8.395534850982463 4.446009997209675 0.06792854552117332 0.9577091881061183 -0.7187038091083557
P 6.4958015286158535 2.175426620424381 10.73937471613782 -0.6914079495068802 2.806304850266851 0.45030223633666316
