# total energy = -381164.5418488747 ev
CRYSTAL
PRIMVEC
9.28684305844752 0.00000000000000 0.00000000000000

0.00000000000000 9.28684305844752 0.00000000000000

0.00000000000000 0.00000000000000 13.59223354451879

PRIMCOORD
 96 1
Ni 4.854650767009237 7.159589489459171 7.157996795877134 0.8575148405727039 1.507432127034965 0.09743503962072253
Ni 7.003579813163868 7.813002479188394 8.244450633324186 -2.893558064258565 0.9215013707269938 -1.2980160316585452
Ni 3.5576316938052006 3.1702867572851225 12.700080116054188 0.5932249759765397 -0.5822157693502295 -0.09497012301999773
Ni 0.033385272058693065 9.04467003789216 5.838706944369402 0.4976082205114785 -0.12956611582731234 -2.3247179448842927
Ni 2.1612619737169956 0.649621171714379 6.3181866507285 -0.03416019082147666 -0.9827820719143462 0.6501641123657448
Ni 8.905580989622932 6.904526345257105 7.52803105696329 0.9044169044408811 0.7874921315266632 2.405482980048502
Ni 7.255708314964045 8.081503685275054 4.788026955011945 1.2239443493541113 -0.9816515578543287 -0.06955708226353181
Ni 2.5345652035546222 3.387180976576557 3.0176389181717287 -1.3459642774030498 0.3640119004788505 0.7359772514768229
Ni 6.95074696308684 4.19469055293403 5.737363340968002 -1.7398061167591394 0.6986466333471645 0.9910718227269643
Ni 4.185784470454882 4.590328640292354 10.67582972381749 0.7425962994552372 0.2509196139368453 -0.39721255560053526
Ni 5.507682996173659 3.4909057265344257 3.6842020776511846 0.29930520432908453 0.061045702358410996 -0.5936229827459066
Ni 6.558730744515656 3.0729327816554024 10.085179076747885 0.6509410997410854 -1.4304895509406397 -0.492120715034346
Ni 5.115230295979408 7.189576705648083 9.645375549925449 -0.26053271154657714 -0.6858913905640253 -0.22345354730609257
Ni 0.7426484071699228 8.552903838185916 10.276924525076303 0.044557217785084556 1.4883319158704045 -2.743942228869229
Ni 0.6889258775292852 7.594445914992094 1.1380041744997116 -0.2188034501285909 -0.2159011888801314 0.14776926909890037
Ni 1.9261655420594208 5.535162764740705 1.9786213463088635 1.6000234654101413 0.42208412203123435 0.021293105050821395
Ni 3.9252328020138427 2.2117916867191227 10.086592534259173 0.37264617911508086 0.05244896182833548 -0.10364811040996988
Ni 3.457018036267055 0.7216471403103359 13.590955825048585 -1.064284499465212 -0.2638052116502618 0.4511481292767262
Ni 1.4484131885064966 4.958394090653194 4.297728076506647 1.085152344053157 0.7438057463823061 -0.6530800004609592
Ni 1.973649170543133 0.611704848934543 4.140778571695296 1.0116144227650061 -1.7990641310895081 -0.14934252712329119
Ni 4.165446284188633 2.889768376299592 1.6523123283265326 0.677923027646568 -0.727421905707644 -2.086906586194632
Ni 4.699068285493956 5.148616496722406 1.3716332849563422 -0.13628158017427497 -1.1749674052347763 0.17874257755196313
Ni 1.698805050657456 4.099611853850077 11.278454826307962 0.5093972427266066 0.9957867117041302 1.71495049116804
Ni 8.529612435831693 0.0015388298923823863 7.755293107828989 0.4262806766110852 1.6667775310072392 2.6581969668816092
P 3.9876682477983136 0.26162244144400676 2.4886974857605573 -1.13049863339844 0.10103149872272922 -2.0101157051868217
Ni 0.16344843757350636 1.7224214925182186 3.53183284382911 -0.9942617904191715 0.5197891274838919 -0.9075256252731919
P 2.809901526121629 7.475435021383884 9.658179320430143 -0.34745425323048545 0.05035299853125522 -1.0002131229066
Ni 9.170776079585947 1.8609068959895896 9.873506849300062 -0.4693674804982303 -0.04261834889115886 0.21051292798502452
P 8.031800501303838 9.086860165840822 10.742526901874827 -0.2631961173113532 1.603994020022115 0.2992015888716847
P 5.231343694557905 1.7626706702706945 13.225596560750754 1.426931658386052 0.5463326823003752 0.3262182266698446
P 7.823933093451123 3.2972750490680838 2.7667539246551365 -0.46054808243438744 1.152042678117803 -0.5047013799128339
Ni 8.99173503254165 5.180860415770997 1.6358792595602647 -0.6020508017982857 -0.32661674765984394 -0.15992081685976975
Ni 9.05774591289804 4.40287371345024 7.205121023535045 -0.010666221464594533 -0.620418505672196 -0.08764993520950067
Ni 8.772277644570085 3.8125555353616067 4.6425494874127855 0.30336600466201946 0.31411064477303324 -0.8828661748532989
Ni 2.0197769199424287 7.818556011328676 7.336992337390515 -0.20838919677380244 -0.3116295302223923 0.8610678480312848
Ni 1.431585428910861 2.799983177750691 5.199355163693022 1.667875134946792 -1.1454634822383885 0.13683616712616434
Ni 4.0484042013057415 1.9052051373092274 3.8621240601086857 -0.8569126882123306 -2.1359534643199534 0.49032917035156204
Ni 1.8389713727197814 1.2594630799343058 1.9740540768998491 0.5572608991771048 -0.6161910978544098 -1.701857662539824
Ni 5.207105034213198 6.666736729116785 4.931058268153329 0.7260764474233431 1.0348805923817983 0.07149569404714137
Ni 4.8840250515572485 7.269387834767782 1.724637333268505 1.2423611612984022 0.6165564516136285 0.7300580577789104
Ni 3.9455802751231355 5.397838216649827 3.7184408105856166 -1.2540429685117047 -1.0972218736231814 -0.8725673640304521
Ni 6.192067607454453 1.4712959697667878 1.8325866681270662 -0.8785312949233709 0.21912715201659677 -0.35252781109865094
Ni 3.8564637292733988 5.52769614293337 8.230546371918786 -0.7066458495025572 -0.9967745295386963 1.045250622762213
Ni 5.371259271858045 2.244862134798626 5.7436291739697545 0.23695569555758544 3.7480888825022802 0.36924846628744146
Ni 7.467801236401758 2.742228300860371 8.05830515135127 1.1943393820034849 -1.0073404779800006 -0.7801660301788951
Ni 1.892249991262918 4.0416805269419225 7.073466093122499 2.2971197235510505 1.5522683095130492 0.6158697099592491
Ni 6.7284663748299165 8.563713723489073 2.623260126730164 0.41629374060170243 -0.40492149420901874 -0.5503199490828974
Ni 1.8541460742535945 1.7773438822801344 11.558862693861272 -0.2587357675471544 -1.0784757033639298 0.5542077141730778
Ni 8.379267733793197 2.099485893788645 1.1407456505662854 1.959000888788878 -0.15543167074016456 -0.721319649464648
Ni 0.3510008762675829 6.2452069233519305 5.705652486710133 -0.08966568008794881 -0.026108267051277615 -1.7064244559748998
Ni 5.200780694100268 9.001170465074301 4.074951570831175 -0.9728095340826666 0.17195589364743288 1.4358960666681917
Ni 1.999448020519224 8.577244653804108 12.124340424175948 0.05275183778073495 -0.22887960341767036 1.3089082530910165
Ni 3.8832005503969285 8.979216368118406 10.94681794647132 -0.035255480768184445 1.396745107500343 -0.28067370527082625
Ni 4.347765586827444 0.44324244480160857 6.126617652417917 -0.24936383941395115 -2.5083690154814673 -0.4271365968534773
Ni 3.4344138602980823 2.3316569698873755 7.278926351258223 0.3383708028719785 0.17520011161634344 0.5749156361443906
Ni 8.074445684561653 9.104663043956073 1.0132354382042537 1.5991996839572653 0.8624971242786437 -1.0260691647377553
P 1.6129574735591892 3.512219031320289 9.359571097879304 -0.33817128526666274 -2.474701962246325 -2.2925760700444258
Ni 8.030453909062464 5.480695430287943 12.219758093031004 -0.6258077950085674 0.11004012997924273 0.13335052257040905
P 7.8464629746757435 6.79869348192826 2.370879951483495 0.43995688854659715 0.8320102685436962 -0.23610594596278045
Ni 8.977247557393088 8.091867802112102 12.460734025019702 -1.0648537417051207 0.857571404842252 0.8020024093276962
P 0.6742665957844115 4.926150171604602 13.074437402577303 -0.15031491833888952 0.10474134347414864 0.2097104866883872
P 5.5152517732544775 1.3212112993335243 8.196225914765568 0.42989950431059515 0.8724300671216394 0.24538814259565478
P 1.745982213320718 7.707364639563472 4.897431538175494 2.5404252725860634 -0.06338643467644567 2.041125009084143
Ni 3.53359734400746 6.817239307487027 11.602384555102436 -0.013290546461319048 -0.5794083818084216 0.19696732809010595
Ni 2.074950054466531 1.0451320293230018 9.148320493105677 -0.849707428713143 0.37472054514560627 0.7688174379352952
Ni 7.038173303502579 4.037064965949079 0.8128467250548306 -1.1176001801692172 0.3512461161727499 -0.24560977168815767
Ni 2.934410230811856 5.341494939902187 13.292769225171941 -0.8682461109472789 -0.056225398151632196 0.22813244083900064
Ni 0.8003243458943694 6.553818004545406 11.202079829114524 1.058879783509873 -2.5719927629796997 0.6561406416641539
Ni 7.450267676734782 1.3061480399162386 12.653322718696513 -1.3877781281150423 -1.2290176501119607 -0.3632338846622454
Ni 5.72518086026295 8.844269251846779 0.14933336483100793 -1.5156141486251253 1.9749417283888506 -0.3915586997488676
Ni 8.793163754575927 4.645427480072105 9.91281619853649 -0.5488132826303839 -0.6795744472070618 -0.3269139671852886
Ni 1.2587572798629656 3.4206600457499934 0.9891407239267275 0.2516109835769151 -0.3033480069398905 -0.9695642876724916
Ni 6.684743917779003 0.5453540701227435 6.091168843834858 1.7490942269292844 -0.8228717965775376 2.0476563824447576
Ni 6.017335655582548 0.41504758932017877 10.487916955613308 0.06065695156042456 1.4057293132768243 -1.4175928974836296
Ni 3.0216136869945394 6.118970865855528 6.094077483076222 -0.47222423322073515 -0.5707715320690299 -1.4932267820688605
Ni 7.233317736385083 5.375076164349108 7.883875950562596 -2.5847104676566843 -0.7283590728099327 2.5610540045800088
Ni 7.11373105850815 7.206655210005906 0.16150284395579897 0.9478040131772645 -2.5349917602753176 1.5344811607329572
Ni 0.8111676638324845 1.919126115032107 7.446573370571898 -1.7444958089253246 1.3157221906890568 0.5707753887237719
Ni 5.357719054699966 3.5578174306660797 8.188926456133023 -1.2084061445091963 0.800908404932569 -0.39375185074544444
Ni 6.112145036218226 3.4776534015107097 12.116198648879317 -0.7170863281095908 -0.10687895864244173 2.55741717915837
Ni 2.9365647783980524 7.671731022803838 2.8881998285094688 -1.1054375766647542 0.07224594194960461 1.7199482014929475
Ni 1.5069945944277285 5.590456628224378 9.013051123380425 0.3525766620587153 1.4710073085490278 -0.6231045371447914
Ni 7.161307555422302 1.8000316398365024 4.088013515572489 -0.33545954276245454 -1.0281769551093776 1.0017457575010424
Ni 6.245086194392359 7.674517075717023 11.674464387388047 -0.7917223675579268 0.19842257247939377 0.8248458895847731
Ni 8.615552881360399 3.057108001108513 11.985006203250359 1.1814283303687716 1.218066807527412 0.18077014950495318
Ni 0.24236617239237807 7.894782419033411 3.631627401810779 -2.0180992376129305 0.2950181469179564 -2.27276160642166
Ni 6.500966580782292 5.361266628742754 3.381230896238298 1.6530555534354563 1.7327065295998805 -0.9863942147456367
Ni 3.831342818839516 0.020898182901798942 8.288068149048703 0.7737254167598739 -1.7044333936868 1.1119026155638077
P 6.930102311000142 6.596816087838891 6.24136309901604 -0.2184578938637141 -0.15992441640419552 -0.09672824336168502
Ni 5.342312182090055 5.667407409686541 12.745940404373819 0.44520271032656866 -0.10808763423856223 0.0773531812691829
P 3.6969993473657468 3.7303855481087442 5.202712357453411 -0.860136337355951 0.3782234160925421 0.45379353731937333
Ni 7.747428080455069 7.049336088841406 10.129924943902239 1.754435693746856 -1.8814271068684567 0.1832461218492715
P 8.328199383894521 2.2106122576525413 6.207532058491236 -0.009431320616228919 -0.49040938877019413 -1.3694250795291512
P 6.518778745740587 5.155173007911434 10.316912742539245 -0.6682703350481524 1.1464628700371804 0.3009949333266816
P 1.019463195149526 0.502634592120577 0.0024805157770388378 -0.6027581122779554 0.22210448947736589 0.5283550147760321
Ni 2.970777508171961 7.630497439688704 0.5597291744704724 0.1448801204765634 0.010580603729323713 -1.3370289225866328
