# total energy = -340889.90764893 ev
CRYSTAL
PRIMVEC
9.09831932805466 0.00000000000000 0.00000000000000
0.00000000000000 9.09831932805466 0.00000000000000
0.00000000000000 0.00000000000000 13.31631000881801
PRIMCOORD
 96 1
Ni 6.574327342005593 1.74075416159425 11.376350280129333 -0.6800809545298352 0.11114519011796344 0.13300702318806126
Ni 4.702520987340822 0.5166134952218736 5.913906719704204 -0.3941719690019986 -0.28051121155103304 0.838746301715949
Ni 3.012153318750221 1.8374511004968808 4.800317003230604 -0.4488266802324012 -0.0011215151989529073 -0.539914180368541
Ni 3.53881863727842 4.454200555136315 4.759569269831157 0.938611548044719 0.6577133854679125 -0.9609384936766935
Ni 3.8071462739096202 3.124799611613739 2.5554931994126986 -0.8759470791359625 -0.6157339557123331 0.2619810139573295
Ni 5.31722164467424 4.7988721901051115 2.7856524762028725 1.2546163245166715 -0.7244980471926297 -0.8038191508214608
Ni 5.0915560278505705 4.535484940924432 11.819197330908144 1.0500292750977789 0.11146760645438866 -1.4129276307974763
Ni 5.736062779636851 7.956134605445289 12.296759929304278 -0.7266446612219872 0.3370086324171293 -0.5076442645912419
Ni 1.771397301434677 6.808081364802582 0.15415191627148922 1.3965838993321302 -0.4172172808572363 -0.31090679312375485
Ni 3.1088502576528523 1.7988742261134452 0.5427675242555116 -0.9900091857904048 0.07880791143783847 0.08828268369749312
Ni 8.323688513780676 9.332601155379542 6.193416190914942 -0.9220168769108313 -0.6961886587249753 -0.1345432573269296
Ni 8.953856314145188 2.4562187066155325 1.0032334706106258 -0.31015988765540137 0.4706496896447636 -0.40130060962697983
Ni 6.621538521528152 0.9411756534421026 4.58017133680515 1.2068341720363862 -1.332628736636408 -0.4648148281305415
Ni 0.8712295933277211 7.4246198826608705 2.3518200403153595 0.44761466220217105 -0.0710714620255292 0.03189582026733217
Ni 7.924845484925328 3.7800150853691945 3.921946138982233 -1.0102856766512538 1.0476137236777505 -1.0769057877736485
Ni 7.789826424583303 3.9580146066988022 12.333592655852971 -0.8090572592919485 -0.144637408338138 1.3225145310205417
Ni 8.000852845444012 7.1453014761581635 9.065291620692566 0.8503226936996388 0.5506436509709033 -0.29165822930678803
Ni 7.291547862676878 0.7253225741237483 0.47420986768615647 -0.35792532796513843 -0.6690594066083511 -1.7789393353151752
Ni 2.0709867636275483 6.7001570997232625 8.964473143088119 0.23310726834577272 -0.18148105952904875 -0.1344758944241039
Ni 0.19031864583790326 4.9990534142051954 0.9553562941057874 -0.03718123703598758 -0.14739620203019776 0.29178241358947815
Ni 6.474627957691044 2.0410896859803858 6.795312783314442 0.3130014708692545 -0.5994830410711095 1.4135650072711592
Ni 3.923322714712 4.4199180875238655 0.4671404734890033 -1.1879082816661606 -0.0014660430225652173 0.3913558397094421
Ni 6.286747661460396 5.895501729329145 4.678099278326667 -0.42574871536701514 -1.3726286740681133 0.06258425049012448
Ni 5.338138681043938 2.8005537037654173 9.437855063706142 -0.45953532489915694 -0.07467640576796816 0.10119862042821282
P 0.3657497115924065 5.71318050627026 12.105271239587669 -0.20434742260426098 -0.7265310184622585 0.8258622466644292
P 3.9809605683014024 6.433348882436882 12.650707300932016 0.4608581574756386 -0.37472800134477396 0.623859670143261
P 2.513929346760376 8.50906677216806 1.3068198245291207 0.9698422239242266 1.1786700508973442 1.1972437001344736
P 6.503533318520331 7.808032161762844 5.461724793190155 -0.47917855305138124 2.1485019904089255 1.175726137777672
P 4.599382438281712 1.4007499644930717 12.448246947814702 1.7146177904189697 -0.31896977263754744 -0.14296619128330218
P 4.192232643786724 6.275056320992775 8.05752627717383 -0.1278167372363734 -0.8445012019218552 0.9208488247446591
P 4.865135250514207 1.4692421131625302 3.435554531411175 -0.6393652219780278 -1.478839145888621 -0.46349842331196306
P 0.30699003521727836 5.610642446293533 3.423783125732569 0.6105084456473356 0.3033693470961291 0.5141440133829726
Ni 0.9984040826571524 9.130527480838008 4.160934424947333 -0.4210685362825264 -0.3746207863429484 1.0249234811690864
Ni 2.157111455352455 6.751471621308776 4.622304744253794 -0.19015544737459508 -0.3112358943283995 -0.2899780133908877
Ni 5.970972289001455 5.7833649423537095 9.453834442121149 -0.7081234624893482 -0.8049339811521944 -1.1448353617360862
Ni 8.614834735542455 2.3869168075167995 10.028366929002813 0.3895594099306517 0.12163143436126794 0.2358040984516455
Ni 2.6135104529223345 5.495284854239858 6.811132941139423 -0.7778396960385636 -0.47047125508537035 0.5443591035137721
Ni 0.5863484743254779 0.06540326922295475 9.13099422462477 -0.01662218193771331 -0.08980477676897437 -0.4930069742940413
Ni 1.526925458349083 1.200386774004387 11.367920687177387 -0.8178936266366559 -0.376493577885629 -0.0006995971701858918
Ni 4.259378241180534 6.728443774831305 1.5741612033341026 0.355013296524666 1.8047568105989114 -1.4310305110457744
Ni 5.774293917881943 7.786250785047292 7.567552661243158 0.9779738518924255 0.8771228446116185 1.5547766777571996
Ni 5.544297501009568 3.008868825435971 4.905728312483342 -1.3172375988923186 1.1879841292094186 -0.7706573193575115
Ni 0.6942017725132431 7.460294393146119 6.454854580073705 0.587017304503931 0.21643135035198852 0.9988242129788734
Ni 5.507840535053336 4.243265117469906 7.463285920574721 -1.4746896424966216 1.286910408663687 0.011141104218484039
Ni 0.9300120155014244 7.392693879780805 10.963424872460145 0.47074199224825386 0.49069221011793557 0.11980338001359368
Ni 4.375500092066334 0.4935820094166309 10.436817783176298 2.623981497342165 0.361139721137378 -0.22076494473033592
Ni 8.318884601121606 7.263779791776347 4.531246943733912 1.0969128270231947 0.48861655853582947 -0.4239756826269924
Ni 7.53252595110133 6.154758341488579 6.905438841695835 -0.4571938212501739 -0.13500631300627716 -0.4417690020546714
Ni 2.5271674015311065 5.44486196795849 2.39354038406188 -0.8354228937696708 -0.5081415159426346 0.20758649836684895
Ni 2.5744149743313853 5.30895127231232 11.534867570063364 -1.3565471951252186 -0.18378271107903188 0.23080895922989927
Ni 1.2369620181132104 3.6598444823370193 3.3938751301020904 0.07052664526565273 0.21813290642412755 1.295254152642692
Ni 1.5749827815786368 1.621165851005599 2.4435693131119267 0.39428278354825 -1.729824580066395 0.0036154852654002247
Ni 1.14848995997535 3.6862841986007613 7.875691814204453 -0.19112655303861278 -0.3138288518665563 1.0293246955605757
Ni 3.5784691133546027 2.803738115565937 7.203377868744095 0.518141821688456 -0.18760285615607047 0.058806785725563235
Ni 4.1579137828965544 7.201829334777099 6.123172615755198 -0.6090645141119575 -0.11221502614337447 -2.5028357443680638
Ni 0.7559538861489166 0.24562641982126832 0.36094488910139416 -0.08282474590671542 -0.04711777942340918 -0.18279052236909166
P 0.3725743609968913 5.810623507366156 7.916613325505013 0.027843761685145598 0.07380608734787289 -0.7114828658798843
P 8.385984706918267 1.6840443365867133 7.856929259875792 0.9122693106057643 0.03096302404041764 0.04602454635923041
P 1.6277803292312494 3.3303306475386956 10.23080089699378 0.26460791005721523 0.7057287370049266 -1.0306326157387218
P 4.27663775313935 6.398939038352411 3.7252777760140936 -1.482299079412763 0.3101364906166336 1.136608860061236
P 6.933965712436832 4.031920255429144 10.453170192687939 -0.6535032040413067 0.06298688524518184 -1.3087421598267976
P 6.119247600753072 7.849402220211307 10.038912791054189 0.5833555393816275 0.24869818080549427 0.9228712544913268
P 2.3924576840497034 8.955312045253997 5.868032083305921 0.36756645059932824 -1.0681293271325993 -3.257974656375002
P 7.329396871505908 3.9945443592104755 1.5204292582760233 -0.3896385999080193 1.0479214847261564 -0.18979497871138282
Ni 5.741348903225712 2.7090519052573483 0.4954935663288855 -0.8337462773981965 0.8571348315254657 -1.112394981819194
Ni 1.26797818905027 1.2202666019590585 7.013234820471191 0.6874407373290161 1.1776305538892364 0.4096752068439203
Ni 6.933547189743049 0.47401698331423925 8.957948738224827 -0.7102119695872607 0.47817710837006044 0.13138260021076084
Ni 2.7278854264775636 1.7906584436681048 9.331551209317315 0.09587849376688004 -0.34407633789718806 -1.738862264788631
Ni 6.853673043466591 2.0674657140081165 2.373020034419332 -0.15632744308155658 -0.39957771339860215 1.498266144264981
Ni 3.943530082166154 7.094478263821873 10.56555991294353 0.972194526206487 -0.09431192061070853 -0.49735676662230466
Ni 8.456314716112596 7.371340124078465 -0.1613668835795233 0.09860746266226889 0.579143558182809 1.0464693256606623
Ni 7.728385473472137 3.8158715622430432 8.189850415300672 0.25862906676596104 0.3509326986973892 0.07875571804366437
Ni 3.1833927887432973 8.822631253005495 12.48792926800889 0.10384505691212437 -1.2224263700476883 0.19755816759656944
Ni 9.167284691335432 5.03904052810029 9.937482906384043 0.1017506362769409 -0.6993472589586149 0.5296127984425331
Ni 8.96410102182343 2.5658989473448535 5.614755796507861 0.04333928621758343 0.1511654392646429 0.6365732610551875
Ni 3.3394562619270416 2.8851498778260747 11.501962588012624 0.7005140255732065 0.4464718068469795 0.20464798456381528
Ni 0.9544682981294139 3.519866837905614 12.248861826664749 0.6410824617794508 -0.2690988559490333 0.8091580465358709
Ni 2.901581442716755 8.692215942295078 7.808417930506678 1.6793988193156755 -0.0073608112404453885 1.744154623535822
Ni 5.76383085053738 7.991790919291677 3.1835301733666914 0.42461434465225584 0.04531775010019292 0.5825371572453903
Ni 3.315200142326513 8.580561366249436 3.5685846991257897 0.7663440366941382 0.8159640137141108 -0.7056819429273912
Ni 3.581699016752272 4.7010470595931535 9.569047370895884 0.2827071907610873 -0.671482928448179 -1.2915947015132339
Ni 7.432790173509061 6.314652207152377 11.3307813472639 -0.47019640415742886 -0.7724095261619278 -0.28394826225704
Ni 8.053586704860615 8.768105024661171 2.4062707526084135 0.05133901659360836 0.8655886187197738 0.7874723340323212
Ni 4.976016469408294 0.31680803171425137 1.304616211563161 -0.48816198749691414 -0.1188541287264469 0.15883992509076517
Ni 6.166613451705942 5.594101701569692 0.46311446714120363 0.3590476144950397 -0.08028809552779076 -0.7125035938349148
Ni 8.210296158723892 8.805781165421033 11.037649872202481 -1.3930450329409363 -0.18757123158718664 -0.015379053559231578
Ni 0.3701305523979783 5.057664787973613 5.681869549783666 -0.3045664527280239 -0.2014947836468143 -0.2995170632295745
Ni 7.601700473728043 6.361836091716644 2.359011351992876 -0.3070969324593615 -1.462831457606455 -0.036042495445854056
P 8.603834867351518 1.5444124282936498 3.609292399919745 0.4708286384247891 0.3870998926465656 0.05593769170788431
P 1.910119377784735 3.510604748725817 1.1905296547338649 0.2470513892306907 0.3272122151519978 0.32496275699618876
P 4.826913210588543 1.0211407829128614 8.171633760137816 0.05733945715141738 0.4409750453984663 -0.5933854128138039
P 8.55356665250046 1.4256793597314241 12.171067556210003 1.127033300557659 1.279472464328403 1.073725333163138
P 6.606016788580477 7.710352604361767 0.9035104306655584 -0.23195361435730374 0.6552232720562071 2.028972689992325
P 2.0251858236166482 3.533750873355879 5.86275869736426 -1.1563127662480666 -0.8649227030010007 -0.17706827517333376
P 7.033164689182728 4.159897216532306 6.0014744048907165 1.1346450514666457 0.14423657335529352 -0.691849407919673
P 2.5574466085943315 8.703661628138088 10.089807880113979 -2.4708977580088862 -0.3483651950805291 0.06797456826776035
