# total energy = -340895.9849372237 ev
CRYSTAL
PRIMVEC
9.05899456220648 0.00000000000000 0.00000000000000
0.00000000000000 9.05899456220648 0.00000000000000
0.00000000000000 0.00000000000000 13.25875423899893
PRIMCOORD
 96 1
Ni 6.281660916913964 1.9901705421655782 11.331077517310346 0.9461312534605318 0.10482798965068398 0.6765870824439638
Ni 4.603645213575558 0.3450915316998821 5.90506491940094 -0.1378404400209626 -0.5927827462327985 0.2760297787409117
Ni 2.743081708356418 1.6018295580445259 4.758500574606249 0.07118536189557419 0.05324908913212765 0.41286903119086965
Ni 3.5155965390438038 4.5136441013883175 5.357743108070024 -0.21596238113537 -0.3952094091275774 -0.9297471556755535
Ni 5.0308402258970215 4.364107276136703 2.7361561069203693 0.6195479301417846 0.30800041811023726 -0.15419368456800545
Ni 7.42767809842973 6.144743271257401 2.628865903378387 -0.4655072262118757 -0.17903285509887232 -0.8797435700639172
Ni 4.9506590639474215 4.828000275923743 11.507033994658878 -0.36753096937570257 -0.5271090581840728 -0.1012091619511741
Ni 5.6086500838375155 7.873181339007903 12.522084384126112 -1.1099550049191336 0.1816651505153968 -0.09469835741584981
Ni 1.7501343600190933 6.330189951437069 0.6319862697497115 -0.15186837886893845 0.706413678887093 -1.3661962881792085
Ni 2.755827713877047 1.4855301842891355 0.27008124391600746 0.5671087385054621 1.1971100027700867 1.0649789544290755
Ni 0.6246602607486221 0.0011758575100054263 4.818482896108553 -0.25824083018860683 -0.0871781377794047 -0.4101835139389064
Ni 8.657101444002661 2.17225633531742 1.2264782664011067 -0.2116714670695 0.5687347041446592 0.13829346839798118
Ni 6.936309167765598 0.5703841999978786 4.786688542465517 -0.7990314996248303 0.11719396741520462 -1.252559956208275
Ni 1.0209758778901505 7.563671726628509 2.8071695662495872 -0.890050351306564 -1.100764596669117 -0.08073829569133192
Ni 7.526892208210774 4.046834105312974 3.814278840976677 0.3929797484661103 -1.3385458734517914 0.09181152278635801
Ni 7.398480958562646 3.920479247458153 12.652457812022831 0.8863420492170412 -0.3976581277783861 -0.3200460364208617
Ni 7.851104568962578 8.888658407124762 6.763118401494144 0.764849968647115 -0.259424823194379 1.1159449039539815
Ni 6.95257912221837 0.5539539013391973 0.2603274243395603 0.30496291683549415 0.36867408184121025 -0.15204861320054458
Ni 1.8707276972547806 6.776617209473028 9.198831137915036 -0.4056182631657273 -0.2636308908559266 0.6760954875195259
Ni -0.007031591673853712 4.730190310318746 1.1895528981689563 -0.5568605784148926 0.15005600825054802 1.4963763834414356
Ni 6.352076482594027 2.052433012629887 6.991752027031663 0.15125697053718468 -1.0884323003560095 0.24874883153777164
Ni 3.513694150160128 4.2525548155958175 0.5202082402411911 -0.7598206337533236 0.23901437785882707 -0.3032472196959681
Ni 5.870183260369538 5.583013128881311 4.739832704260578 0.5043388543670927 0.37897186422279244 0.3413856784389024
Ni 5.304304098428098 2.8858877005576935 9.138463809138658 -0.029710382580239156 -0.40466078434846436 0.3896028615740774
P 0.08408921225635106 5.601248885180547 12.409279064620408 0.01944551031912135 0.07389556173788564 -0.021141152853989396
P 3.7723284483932167 6.296381783275743 12.772728649047762 0.23401383932044215 -0.5509483266955156 -1.3559476138680067
P 2.440284811037994 8.408894048651053 1.3940125963917642 -0.1313903135202447 0.6421291578764102 0.32607013112775457
P 6.246113421773277 7.691965209345742 5.701529238635918 0.8523746911326611 -0.36779502167036654 -0.7575765749141533
P 4.712325972801561 0.9924219266456428 12.687262469599418 0.6614831369229898 0.30773225205051513 -1.1620190726042245
P 4.1529692870327235 6.2617673645875245 8.178901573910908 -0.5522338782761586 -0.5823733779740163 -0.030155697647773868
P 4.875632469973116 0.9745575891284571 3.7823250490272 0.16232814074968174 -0.46009171162325924 -0.3073926093229093
P 0.2157290876099169 5.463742404869512 3.579704326725279 0.8562367451912286 1.0115735422247418 0.27807560552634686
Ni 1.4242189082666645 1.1989217104713261 2.6074006154742433 0.4113433385749625 -0.5703341874212952 -0.07147769632501239
Ni 1.7917876175769125 6.444088691601154 5.088762532008143 0.33553076232002216 0.46713679139549874 -1.0225704075558775
Ni 6.203925683529091 5.815004923748252 9.18734886215285 -0.810551584449288 -0.7954944330058494 -0.3844118042914412
Ni 8.542740695109684 2.409321167207497 10.133997500458314 -0.18995541554864703 0.40651274995553865 0.6482383560979416
Ni 2.298420954283873 5.384494319372383 7.299395486506119 -0.01673325359428086 -0.7322481234516937 -0.6542547374953507
Ni 0.5799822048657581 0.1629396078868459 9.315189395135876 -0.2695752813648196 -0.7016193428222434 -0.5960573032190122
Ni 1.446567448152515 1.2241328926773747 11.374260839070324 0.047260475648860545 0.10672289268055168 0.5941572579828219
Ni 3.9569507600566265 6.644491772004391 1.6087243588986486 0.4969836995536021 1.640190267437014 0.7510225758457195
Ni 5.7407392853274155 7.878707325765248 7.821060413092525 -0.5053744947204587 0.10889907439626405 0.48631105033110444
Ni 5.156071768411004 2.734366955470245 5.023450803933143 0.14409104891636473 0.6396164187568856 -0.6212728832526914
Ni 0.9155744747398182 7.715554831503324 7.186112757980557 -0.47656117003319215 -0.7075249096734009 -0.5101384917680053
Ni 5.120288739408529 4.444288438086302 7.258916274659367 0.1198154641984517 0.5578095725917231 -0.15431658329911488
Ni 8.205936331746882 7.193956035578113 9.032513430910464 0.28435758188031673 0.4365329504667127 0.22262308098499725
Ni 4.629517702393551 0.44309535979112025 10.39734247592717 0.1803772849419087 -1.3655473417413 0.43456759921022575
Ni 8.23638361288038 7.122987871222315 4.702959878197596 -0.11692991512054056 0.2526360824073198 0.4718887042581873
Ni 7.3837872691849205 6.0686477159103625 6.83903821234431 -0.6472320263206144 -0.20877126270356944 0.20780941301093242
Ni 2.300114986289813 5.156841782959159 2.6995749804862172 -1.0410196154000007 -0.4483913924671955 -0.22252049396886192
Ni 2.345310310769143 5.301966877799582 11.434548448693482 -0.6874206827243581 -0.35721544638230734 0.38978052480252223
Ni 1.0617957079370262 3.372473482028583 3.7983150805442305 -0.5437952605905022 -0.29538015824306546 0.2414222159693713
Ni 3.8266461805195076 2.4709042130704932 2.6628751812217026 -0.5706121236730302 -0.3270312094894432 -0.4297354679289051
Ni 1.0299714596115326 3.2325935451102947 8.323209547430821 0.3538550145505067 0.4664667619116676 -0.7412305294559621
Ni 3.564352048434013 2.593209700301489 7.1836858533046675 -0.1975522540592985 0.300817784318869 -0.3745655076249807
Ni 4.18853490016278 6.83365264000457 5.9629392128402365 -0.5480908026420626 0.5948761384267175 0.13488290005453546
Ni 0.8350336707012571 7.434119043650176 11.413785232877363 0.5378801806576479 -0.48082303063333964 0.18456869731543699
P 0.18284493690637532 5.538841470801292 7.864841628501655 0.40113425925244467 0.4476223755116549 1.2400078305748774
P 8.58262744870409 1.525643412750646 8.07004688198697 -1.0389318796330367 0.6397976815297562 -0.7534203866539346
P 1.7566206002129596 3.2084060293035574 10.544183344360777 0.42281174422587825 0.8693375442392446 -0.6834946081970744
P 3.9416138820563247 5.9846889531774625 3.6775405634148597 0.5110710308846037 0.9151630872137917 2.1400237777345854
P 6.783719461305418 4.031669348211671 10.449343823112718 0.11695485482120503 -0.003101778853775303 -0.40137542872897325
P 6.2405964940106164 7.77594209006801 10.204944829126337 0.8079534847048087 0.5479553055054627 0.4638331809435624
P 2.5201126721949114 8.48852261192492 5.801142850082533 -0.5948421998649884 -0.1139363797098554 -0.05904049900292413
P 6.8779873599889045 3.97374613620108 1.6495215414588136 0.8326129351247016 -0.2870646963988346 -0.3508915610468086
Ni 5.343547663399928 2.7991025314833324 0.5737523342214536 0.04999587230215261 -0.37791591215445236 -0.6029033796065681
Ni 1.3707708396300544 1.0848689673976102 6.873576535477181 0.6427508506208092 0.6555161207062775 0.856593357199699
Ni 6.841887266172482 0.6489465195974168 9.221542943487723 -0.17119716110453745 0.004283200756386172 -0.6431827959519052
Ni 2.844388445909505 1.5629211758760106 9.292026451627917 -0.5754758795232348 1.3703272796284465 -0.6718048305639721
Ni 6.571122974057287 1.7994243500956688 2.5069517647177473 0.15691905391896843 0.9784901294072116 0.7968190653545438
Ni 4.0707226742951335 6.889437929269696 10.290132897437877 0.34094884801179987 0.6365884305638392 0.68912403856871
Ni 8.320659440427226 7.376358893543901 0.3634396195332026 -0.5891384646119918 -0.7431688841292556 -0.16991572328895252
Ni 7.499380041354946 3.7754266245752035 8.21594652087289 0.9955157174309307 0.5857687768088106 0.19186625941811472
Ni 2.9899302545053996 8.463583199559396 12.444547542724822 0.605654459989144 -1.1162017571597938 -0.628434433998137
Ni 0.18563329547016325 4.915274630711049 10.116575241881716 -0.4185915354969436 0.17195589364743288 0.25277440775739696
Ni 8.548701513611869 2.174484848009726 5.809137412891314 0.12987490531698276 0.9968092394313736 -0.13640165069190702
Ni 3.848505534692413 2.694425847907734 11.208274691271189 -0.500394525007364 -0.059993349834496675 1.2391516532221691
Ni 1.0936561922412564 3.3555875159372874 12.834779139036462 0.32099940147306655 0.11832293881332524 -0.9650219197174476
Ni 3.1359884257982924 8.58842520530196 7.995373588805347 0.48420248862853377 -1.0699116158440027 -0.4636956269244337
Ni 5.478653510119657 7.808101521196818 3.409422403646912 0.2947024154497505 -0.14029404376777774 1.2514194148459288
Ni 3.0986291317207706 8.510083019273246 3.5512246592371812 0.6240543026525704 -0.23003608561961675 0.2520233885239853
Ni 3.428666426054497 4.392027097753318 9.40446125825104 -0.11678927577761823 0.2703103597586312 -0.5291176039736694
Ni 6.954517747080783 6.153086605361523 11.499900942244563 1.9751736418939982 -0.2533562484027959 0.14848609266026686
Ni 0.7532780554755485 0.1546325097614609 0.28149920081593693 -0.7874088277842375 -0.345197853096141 -0.18705135452797464
Ni 4.833752737548192 0.3391669491764342 1.567635476709653 -0.819861034775672 -0.9153242953820042 -0.11791619029320984
Ni 5.77189316804628 5.512452619286301 0.4643577262143385 0.6424641726183258 0.6269200542361396 0.1963777741352231
Ni 8.128436632223796 8.859461267257679 11.202360979541364 -1.2474974540837032 0.4136704440462424 0.5994868977258514
Ni 0.1148019219340968 4.7027777924044445 5.786981829592237 -0.2273189437987698 -0.3919747042403636 0.1708606037007251
Ni 8.101141881240387 8.905798025067213 2.4544077837506175 -0.014339556551123692 -0.5439690671642051 -0.023247657674030933
P 8.593688481213462 1.6611116192577424 3.638374905797314 -0.5725594772073882 -0.20701005703808864 -0.2663259211895865
P 1.9793450435179936 3.147592997988716 1.7301484059468746 -0.746024865520812 -0.020331255358184343 -1.2180606368798248
P 4.784806989269614 0.9165437871710246 8.114052760464268 0.7495238798130058 1.163879522851731 0.49769255269516866
P 8.536018921054028 1.7412656042232895 12.275484960330944 -0.9693657985084402 -0.51297930365091 0.9009155761558421
P 6.301427643314826 7.578166118123184 1.4393302172993307 0.6749163796097603 0.6414678701433275 -1.234638338732848
P 1.796679474706365 3.2148107385452667 5.9652728098708785 -0.029699841057277885 -0.21315345093166516 0.5017384406297681
P 6.869924854719992 3.945391482839624 5.973029121119466 0.15917545405331296 0.29307439292802434 -0.09465901953748213
P 2.4747633448059503 8.722779155462902 10.178984468059907 0.23864208212107288 -1.603780104239096 0.9726606672096282
