# total energy = -340856.51890500163 ev
CRYSTAL
PRIMVEC
9.37451959947070 0.00000000000000 0.00000000000000
0.00000000000000 9.37451959947070 0.00000000000000
0.00000000000000 0.00000000000000 13.72055702478360
PRIMCOORD
 96 1
Ni 0.38127109355409017 0.8665581086650332 2.139433215352905 -0.22184583649934048 1.9607947474645069 -0.5119657747847312
Ni 9.233123888028667 0.042945612517042674 4.605634066318776 0.7796911474250057 1.3820895623706972 0.43479668450189635
Ni 6.344524987826987 0.33110053865052796 9.606777246817884 -0.8509976082794765 -0.06407651876493482 0.1297707756389507
Ni 7.398333504180221 6.598715091382817 8.611804153991361 -0.4422891362241995 -0.18739665368253533 -3.7669880333996284
Ni 5.490815595958326 6.699978653935282 12.232905530151145 -1.4674933818584983 1.2318929147772268 -0.3849555926100532
Ni 9.158371467384956 6.304158305698593 9.789123843214549 2.2836651407080413 0.028493993674634795 1.3740983166351044
Ni 0.8363693426506191 1.8241034313109692 7.931538377094064 -0.8068178284384686 0.12249635346472451 0.17300053286186334
Ni 3.277350860532002 7.740700340689993 6.051863730040199 -0.4109579302110858 -2.215934827240603 -1.1731812598686313
Ni 6.759309989557809 4.494313518957361 7.024184233295184 -0.35185495340134243 -0.8693547706304253 0.28551457830289534
Ni 3.373505309809971 1.1131960990943806 1.8814173702790544 -1.1748460491655637 0.24955204416535728 0.1673559329815763
Ni 7.480126189170987 6.136860625888254 11.79187187306512 3.4127185570195224 -0.5485183770977844 -0.7952211247398047
Ni 9.103746140686825 6.081635329924861 2.484655530584532 -1.5288710136350314 0.7267991845219806 -0.2186746378602105
Ni 1.170727526921123 4.522558947023513 0.3278691416859071 -0.7606585562735867 0.5775525595466053 1.5173429583907738
Ni 6.3731735202432365 2.045754576746117 12.465963591242081 0.650268499154093 -0.8588471862308821 1.61474123123629
Ni 4.5338458688262495 6.1716213451943585 1.534822625353141 0.0018334536643129715 0.14413218656694532 -0.4094301807126497
Ni -0.0744646228867794 6.701928554047382 13.719939666074207 -0.4241142650873857 0.13045546041080114 -0.17747862323787497
Ni 3.7000198333891547 1.9650680850881779 12.641270860743665 -0.2108320018873401 0.7378140475752455 0.6433985115071371
Ni 7.180985263319372 8.623958218872797 4.358993263533497 -1.8629930685329852 -0.4406210044931573 0.13401052475191114
Ni 1.6155672390336526 3.4035037730730604 12.23707719144867 1.7199867680403669 0.10028279348216278 -1.9172405170226399
Ni 9.24710129700531 3.9192711017632553 10.397438305975328 -0.43814246104567767 -0.060682148371405176 2.086131141481188
Ni 8.005239914071588 8.370330586503151 10.472750385449288 0.8833351440699174 0.01623934467699784 0.9697612341746461
Ni 5.945526677388364 3.640538505450311 4.347536662922928 -0.14347758370208194 -7.330730104789292 -1.5573518946835438
Ni 5.585188886480049 0.9232195810571463 3.1299065386899656 -0.5420330264837568 -0.21285597429590436 0.31617755460439095
Ni 3.7025228301676685 2.6740255171926655 3.7171320817767928 0.4261225537666661 2.2478262766325607 -2.305514632482965
P 0.36340138396905897 5.468804223539034 11.8840609004805 -0.35146568838272374 -0.04064091344981388 0.15812927217698575
P 4.164114809108679 5.463151388117896 13.22668618406296 -2.3619837712142875 0.23041712310811932 0.9789012488027012
P 6.103552957146455 7.126463056338708 10.030715529651859 -1.5181150606701082 0.8750657049722735 1.6800192265084937
P 9.291639640431228 9.246491953220279 8.939752979095312 -0.19123839602612872 1.1557471235525838 0.713145598294288
P 5.032889054247273 8.770275723438512 5.376578635496552 0.579857296420382 0.151425634904565 -0.5016165703399232
P 5.5554341607309725 2.6563826709860616 6.299739157079149 0.2048405601905956 0.20077744586481552 1.061308961776656
P 6.461659612349579 5.414432008874686 4.4507566877513325 0.33871095982021665 5.364637342150638 -1.8323691729995408
P 8.281563258803716 7.169126495810683 6.445492315554729 -0.6453252962162047 1.8150057420204289 0.8184584980011905
Ni 8.804239608564192 1.7022721723837493 10.199203773472949 1.0248250079180092 -2.4837635582279614 -0.2571902774369055
Ni 7.88336178254552 1.9732426663273697 5.53860502284038 -0.98687681080901 0.6996347082920467 0.5547548449257995
Ni 0.7701167990821104 7.961029678837611 7.526960352488508 0.34170860899595984 -1.646496669271016 -0.09861671863364951
Ni 6.179655308637004 8.766863398242336 7.278919933901611 -0.6428022726840349 0.42609452874220816 0.4963954311503
Ni 8.262411114914187 5.3749559061244145 5.359332331476207 2.165248099519013 -1.2327393219379221 -0.053567391703494845
Ni 3.7203344177301276 4.703496553098787 7.931484004879399 -0.7204845551578624 0.3617087062669706 0.40570130979783686
Ni 0.605928647479386 7.043489181856958 5.060196092884477 0.10389802163724687 1.0279890074682878 0.6760862315481453
Ni 5.204245901117899 0.7290892133099514 0.47309545215042836 0.7272748386068185 0.7058799178708102 2.6388491584826164
Ni 1.3756732781266385 8.470984805270584 3.1741411476753445 2.786523553874866 -2.363039466172311 -0.8286804328395148
Ni 1.2419082555325713 5.1169972456211585 3.953798395527094 0.9820058558699539 -1.2644939886416997 1.1945496982420782
Ni 6.3858009983730435 4.707940075469633 10.313057316076142 4.439334081179052 -0.2928195966047409 -1.2660538769296519
Ni 2.4510338154304483 0.05881761193914761 12.140895556063366 -0.6731747143283052 1.2374058741756562 -0.35288776554123097
Ni 2.696308750685279 6.715512233193699 4.019176296401088 0.18184101397162875 1.5749528955947585 0.27592102107718935
Ni 4.8806187296277885 6.837399739239538 3.814904573167015 2.1257078753325453 0.7998879340878546 0.6736439406552398
Ni 7.251172292835231 2.216642697628257 8.382382469119095 0.42714970947959985 -0.2728387826074398 -1.5056596085155747
Ni 1.7900832990666724 0.30702677188189914 6.278335253540935 -1.3861866152582063 0.38053406650358984 -1.626537709650586
Ni 1.928479334426979 6.3375972177171676 1.8235718960400265 0.9259236681644053 0.4906122488096196 -1.3165158902349454
Ni 5.995342875444632 6.721849408558026 6.176624526395456 1.6333153946940517 2.115995533140788 0.3761837599546941
Ni 3.368358698456398 1.842243127065368 8.646969852551518 -0.11544690281711086 2.6059976591702343 -1.4800023129587865
Ni 4.468214855918474 5.601266187885111 10.098727670581141 -2.2464108843422728 -0.876630221245916 0.8361255762636502
Ni 9.045736612351828 2.3644038782385093 12.655485445070484 -0.6159105904995136 -1.4567878225155362 0.11021213678073277
Ni 7.186544353542813 8.079392365450037 13.247637298296299 -0.024948699525537677 -0.1390671133392121 -0.5833611958085824
Ni 5.3339705056912186 4.119998319072399 12.14117022949262 -0.6952962288176928 -0.6868172448124042 0.896788698471662
Ni 6.996222853178054 4.575309369767701 2.183229096813061 -0.09781324889574768 0.689966074854031 2.593082750880779
P 6.01221701103012 3.4231058939115346 0.7199659306700645 -0.9245098185360142 -1.4995321554615983 -1.3690198736709327
P 9.36567959757244 3.851352706031668 3.1199039260956796 -2.7864394788014915 -1.470673836469009 -1.8022918939981862
P 2.1835600173609317 0.8529622426430151 3.918110536215765 0.10460198968280696 1.7232335571124389 0.6557953425095931
P 9.208722013068098 3.536800069678642 6.57607093887907 0.19244115808497825 -0.585849509448075 0.3472457367641052
P 3.4418643079707354 0.09924616589802174 9.678302957756857 -0.07928150864014732 -1.3935808508397483 2.21047457545698
P 2.1451526098644083 6.309258044453318 8.116972002850893 0.16174887120744402 -0.20639170672779938 -0.5149963340809388
P 5.344882446703168 9.201419262167489 12.44697362654457 0.35741753509078444 -0.9392126719638277 -2.271857349439836
P 9.360551735258406 9.163714943653693 12.505465005195731 -0.4326346438535711 -0.13442524369182654 -0.11090170664858966
Ni 1.8823941952390588 5.016924247079449 9.903209873908029 0.6742309235069613 0.6710496975655024 0.13762601001731134
Ni 3.46639742620808 9.171477046023018 7.5963730466713875 1.5772979987881675 1.0325061786123508 1.4502999007983475
Ni 5.281529442099432 3.4020132244296755 8.861092321159607 0.14920394466289788 -0.36834523774688177 -1.4594543136041058
Ni 1.4424292334067812 8.620630264354547 0.4653933467076303 -0.025849356962936127 0.15488839664218487 0.47432225340034445
Ni 8.586919491262652 4.420029824302137 8.399039115845925 0.18228967147327316 -0.06474783380034656 -0.8759136547948657
Ni 3.5819758804489 1.7256241011301099 5.563246885507053 1.3645237855727919 -2.0862419560274392 2.348577010890078
Ni 1.8225753845885055 1.762306596989006 10.428693892339535 0.20922814773532997 0.10645498373114569 0.13017803837969838
Ni 1.3153857414875996 8.091185511320338 10.760360651984154 -2.673594532383602 0.14486263697506666 -0.9509554143220527
Ni 6.16465607700546 8.036991412531613 2.0138071508229047 0.33384386153590245 0.4932368309166602 -0.3280048862566222
Ni 4.85125773370904 4.949652693211971 5.797730811054964 -3.4712816021653956 -1.4748518791060987 0.38974118692415455
Ni 8.320092535057245 0.10917284488217326 6.86901905697081 0.771624054146155 -0.4630510513618993 0.6311006679763905
Ni 3.5478338794475968 3.638635477937059 0.7144237145822089 1.0973604560835746 0.5353990661070069 0.19246146979995238
Ni 4.809353630338412 1.9961071200457052 10.624513548549231 -0.1339686157703822 -1.5451448110943906 -0.2641965335514095
Ni 3.4210903721610464 7.48267605854835 10.904810752211741 1.4464311618715604 1.0170957575945516 -0.935304338048357
Ni 1.7744091020117085 3.0392005603021546 2.3663847142658505 -0.02588560951751026 -0.3570771210322302 -0.47950971113855484
Ni 2.2518815174426168 6.365364545275064 12.580763022890038 -1.340528451099459 -1.1578073485157223 0.3188864688951218
Ni 4.193007079038941 7.040067482141012 8.35057847334836 0.6129188548610411 0.895949233289502 -0.5796464659611567
Ni 8.04697527608636 2.648114344549173 1.1024875851614349 0.4092229497978501 0.04772815931389845 2.409897307066114
Ni 7.955554959292097 0.5557712169035014 0.48929274740854245 0.5316056605028457 -0.9439990376088775 -0.09697069838979429
Ni 2.439409410916001 3.2299064159774726 6.695261395587161 -1.02588224553793 -0.8344026800352726 1.0540006010407008
Ni 0.8735102525262541 2.3380614776856095 5.059771427138909 0.24149472107851958 0.4177433285640354 -0.9667396737395026
Ni 7.89193009361504 4.641221618268569 0.08017183052258206 0.7147335116066982 -0.021992445110691157 -2.465769692753702
Ni 2.521333339183543 5.27500477633971 5.9496449039232004 -0.6579429849802152 1.8986771521981556 0.181409582861165
Ni 3.6665809213705804 7.941661920993379 13.276368326486521 1.5096260493624905 0.005682395096757956 1.8176961443683985
P 7.478241910697274 1.8432087026016488 3.432691340376069 0.34894060796802484 -0.2846874544159097 -0.8396994096578377
P 8.77270372405887 8.360740452778732 2.563260878853595 -2.623578605476791 -0.17391533136664888 -0.12260074025307272
P 7.03287722547764 6.34012833805499 0.9023406506260364 0.0013667984405395814 1.7405705057289893 0.13569613998445018
P 7.010350254471014 2.5993668417466536 10.546718158788272 -0.959999783912508 1.0279159881385072 -0.7396624136378939
P 3.3216829645229855 3.589353627507666 10.625076019735413 0.4025041430167778 -0.5299190168290423 0.0018337107746291001
P 3.518725995562631 8.360365471987942 1.7439100393929166 0.5229086469494801 -1.4106681453393384 0.21623877472520825
P 1.9141550682188542 1.9268012953881999 0.25651967171860407 -0.6420823637988748 0.5365612047359082 0.3212066323878661
P 3.6113275018478785 4.977438769809408 3.1874360916127547 -0.3481875318520842 -1.5240417105671882 -0.3144885969377423
