# total energy = -340890.9724016726 ev
CRYSTAL
PRIMVEC
9.08857946076017 0.00000000000000 0.00000000000000
0.00000000000000 9.08857946076017 0.00000000000000
0.00000000000000 0.00000000000000 13.30205472851231
PRIMCOORD
 96 1
Ni 6.524972893171302 1.9735032182704324 11.600190132830878 -0.38124291964515633 0.27174529243294493 0.05097751948913156
Ni 4.729987551364863 0.5535999126374166 5.9558351452012905 -0.03007547922914175 -1.416848306008121 0.6012187928152936
Ni 2.6510386349610813 1.43099682564177 4.9550416809017905 -0.48030263935349543 0.4794377202500388 -0.2836407583189502
Ni 3.5459546936060002 4.328826745477266 4.695904469778078 -0.7674028169759558 -1.052601149590013 0.23058861568897704
Ni 5.292352489970199 4.666594710089211 2.723701827218979 -1.3168413918951645 -0.5030820991418561 -1.0966354049920919
Ni 7.477465102279484 6.094674101745392 2.2877672077106266 -0.7639894204190327 -0.24038117629936662 0.9641192053975203
Ni 5.221770582393609 4.558831424210301 11.546369383373365 -1.1043983367669625 -0.4136449901249456 -0.8159136200921496
Ni 5.891962426933617 7.755730137596562 12.437368264299316 -0.7111319102983689 0.48435444082536583 -0.3172137091783892
Ni 1.9894627636869262 6.414583007847423 0.32465950655146153 0.5027283153468632 0.5782369872081397 0.463918284458201
Ni 2.7601106762727796 1.4795661939252225 0.4141465681262562 -0.536690788335237 1.076340916409114 -0.021353268864795483
Ni 0.7355778112768415 8.889085076652481 4.639144473744429 -1.916548118941306 -0.49741075978869176 -0.5038218055213581
Ni 8.789928675460029 2.4074737957716636 1.7287486840382933 -0.40135074613862487 0.4007735334789162 -0.3147343943999612
Ni 7.055373298046679 0.68036923574581 5.069958587622 0.007950108085012115 0.2144899103549016 -1.4524688834252084
Ni 0.8072730698292397 7.323777224720879 2.496742731440994 -0.6411012308325281 0.6088390283647127 -0.5510120900539155
Ni 7.662344984319527 3.68278325638807 3.8180358595031576 0.5319015944767097 0.020473437363003447 -0.17194046702846516
Ni 7.20231744969467 4.269896396684245 12.69864674472834 2.058260640323165 -1.044958802553407 0.818963205551751
Ni 7.788194543193212 -0.07221058100405837 7.357006888702533 -0.10848821211109058 -0.2878594243859881 -1.2705144838041666
Ni 6.901921723552328 0.8229654110115395 0.5363443357992872 0.5036901650395003 -0.4216318649851642 -0.4164091831336441
Ni 1.77294553677512 6.770900763003254 9.211100715458123 -0.40039455287294273 -0.5788249985011257 -0.11081557469268657
Ni 0.20649797698746522 4.9838315738493 1.1856324477322695 -0.46156701061720506 -0.6113036878551215 0.22945887295990805
Ni 6.54329546923033 2.1851307894680736 7.269226662337999 -1.3302982887310186 -0.3280303401779189 -0.1494497421251168
Ni 3.4515152651192196 4.3555199031584975 0.4045372131326009 0.0030429005913818565 -0.37453028351167117 0.27810388766112104
Ni 5.8149912480427925 5.310629623132255 4.757772247431357 0.8106647129883846 1.222757785245178 0.5710574387405649
Ni 5.626457757086217 2.893085681391641 9.527823165624492 -1.5965658458788439 0.3163426194273455 -0.4378899787152395
P 0.2373246205772509 5.681270979413594 12.320988096296615 0.23616893799023195 -0.1229637800194463 0.6326916666125942
P 4.0789998750851355 6.086994252157159 12.510156878952856 -0.35151968154911073 1.7188164018813497 0.5475508709781925
P 2.4069921010637625 8.410780408865568 1.3302017535845143 -0.8364431075040691 0.8872298511386332 0.5170796989725288
P 6.340020302496104 7.993441931656013 5.9966328692446265 -0.34634533643702287 -1.0247100796067 -0.18489574163755257
P 4.92451041614232 0.8900682103959682 12.743261672117306 0.23081358721558956 -0.012381147273172226 -0.6037780689020376
P 3.8861311317574505 6.081750141846614 8.080239682588017 -0.5770694492625997 -0.4980108552665359 -0.9243807491573178
P 4.59978456296128 1.0777055674242604 3.7773044820894 0.5134531579635351 -1.0917837333267455 0.6571294879399845
P 0.04162842019998094 5.448821472823477 3.495247691448995 1.0536761278217466 0.893531624986945 0.7028061640414929
Ni 1.7310471857671266 1.1553493011902665 2.5951774994295347 -0.851042859695115 0.01728346967079604 0.13055984719914934
Ni 1.8202243267845737 6.584048659234634 4.659670121448649 -0.26404612401647426 -0.5810454031912121 1.1244267161727473
Ni 5.998644171864599 5.448612435497407 8.94845167725643 0.2052827899343368 -0.7862947687844524 1.1478314682499329
Ni 8.74128659854142 2.5595893490950448 10.472481928152675 0.5966825955078369 0.2027849632131475 -1.5610365426239825
Ni 2.257921221837492 5.307830340678791 6.898498964552412 -0.6571479998827456 -0.01723101916630581 -0.002654149793395429
Ni 0.5392572254951792 9.161015372131692 9.537946025353927 -0.09419724940971518 -0.11026407306459075 -0.2754823908778739
Ni 1.390325432852015 1.1318280577176663 11.639138330967462 0.5236408971298143 0.36606878300787926 -0.29354181948274605
Ni 4.103275470647468 7.021291125317834 1.7816642109881282 0.05791127049448736 -0.0015786573410295393 -0.16107472795855485
Ni 5.432989167518505 7.488371397552714 7.974262302560098 1.5779099213405534 1.9267268592465203 -0.1343239422272719
Ni 5.38685553851274 2.7330812411539567 5.143957801050869 0.09706917164087153 0.13821324997934906 -1.2690921495353433
Ni 0.4340187469720214 7.475810980829711 6.789342399452347 0.47541805756768446 -0.760574995420845 0.05610069964830984
Ni 4.93833414540114 4.492784717751497 6.784207352094533 0.03196009784636432 0.521930599306927 1.3869728586049275
Ni 7.876835458026392 7.321132448117121 8.853954081861527 1.9351410514521445 -0.3927182672746075 0.30710053200378723
Ni 4.738330867248884 0.16372621349967395 10.667809132206534 -0.45020170620305694 0.2063621390414446 -1.033144326416982
Ni 7.897175698710966 7.008348988260268 4.7797611564180675 0.4023632465635393 0.9920750671804979 -0.9268734336721843
Ni 7.180259467504562 5.9710239790851425 6.884079024485322 -0.8284896569849474 0.6166536393131251 0.2738705663060638
Ni 2.3551235784601583 5.3865737925515145 2.627594644413333 -0.6723568464127001 -1.0356835478990678 -1.132676100665733
Ni 2.3887876765368623 5.435324932422855 11.42646466428153 -0.5590233903941663 -0.9144195241795477 -1.2220265635061083
Ni 1.13425470841596 3.5224425387127947 3.81026694183686 -0.09868716686026875 -0.7062812670742868 0.47536920660761994
Ni 3.740359406851332 2.5855372432659385 2.6449401981874665 -0.2002655392254035 1.6345423251226174 -0.6928508526009939
Ni 1.08458562202579 3.1717506142020717 7.78054468591698 0.4781087170259701 0.4744245833061635 1.2995712919608071
Ni 3.6858915505409406 2.4972871373467163 6.920314281672691 -0.7165553953067852 1.4320011024891595 -1.014755025276517
Ni 4.163987181001783 7.008049065140253 5.965000068662561 -0.28251307247241025 0.17352683767897856 -0.7414927819784134
Ni 0.9275349700912724 7.672042498533308 11.792151835935007 0.5258559025032622 0.5511465587492509 -1.0029858005557306
P 0.07496896485024622 5.679980401139596 8.085547412954323 1.299095380765653 0.4555262037397639 -0.6854373337457421
P 8.495749537623428 1.681187239209675 8.308343939369692 0.8625722004909531 0.6144232073207095 0.38811290729211223
P 1.9921893375052337 3.334345299567148 10.383783755269311 -0.6132672393393955 -0.26695224191967576 0.727421905707644
P 3.8627189512375826 6.1993927135271925 3.826629111320524 1.4335843878158794 1.5706321567322177 0.2175017005980319
P 7.041431417255733 4.105138629423311 10.428571365666771 1.5324980688646574 0.8602936888694216 0.049071817825986457
P 6.2884335258537245 7.682058113025891 10.052442325147117 -1.115076642416415 0.8998369983796827 1.6280831997608347
P 2.3276397143716174 8.408090189364838 5.86060591916514 1.184499770205244 0.05366226541014629 1.4952618102210185
P 6.855915334658084 3.84801362977751 1.578488109769301 0.9909751492480998 -0.19220075993939803 -0.46655109409535783
Ni 5.198694679311333 2.744914571525412 0.46778281942206384 0.5072668266471652 0.8977500339436667 0.43069243252553563
Ni 1.1779253324058532 0.7089619065204622 7.178679872405822 0.4325397701469196 0.077575324582318 -0.13873981190678042
Ni 6.8155983964647096 0.8217838956902728 9.40504463772816 -0.46585586780054605 -0.8571705698594076 0.2405516404389599
Ni 2.741742657316781 1.7210679255921209 8.9760536928771 -0.8440034363498304 -0.7948655411725988 2.0119116207449808
Ni 6.3262238389754675 1.9759934890244866 2.764525908142559 0.07512634882119319 -0.42569189398715074 -0.3594728749579164
Ni 4.170776349809369 6.6692722682155345 10.105171536219368 0.25459783411938086 1.1233527663822784 1.3803085592108744
Ni 8.20683268725616 7.292476157286708 0.16464506887644362 -0.1675546792559437 -0.3432013914914025 0.30219306739984086
Ni 7.924441436894043 3.9320557234371445 8.148373126875766 -0.4375788752327238 -0.29871410771230494 0.6637891593483471
Ni 3.3772706600467037 8.43249302503869 12.667333862140955 -0.2437845455539608 -1.1157826673445042 -0.8852431597259076
Ni 0.2067869938122058 5.001599746565271 10.195266623755645 0.05781408279499075 -0.9961739198402199 -0.14188478529366533
Ni 8.579855251338822 2.150221556014342 6.096969876900406 1.1480788083740485 1.2787201595434108 -1.3629096470081365
Ni 3.825328535609191 2.4559159239435955 11.68930001836081 -0.6749546890468634 0.8196643453838335 -1.0388838000039207
Ni 1.1908311151458426 3.5792007170305644 12.725942475223416 -0.25715582465454423 -0.7072426025462917 -0.6505281805733829
Ni 3.152064751233891 8.303535172012136 7.968555583558381 -0.037385125516677546 0.9904079638907201 0.16770611723214343
Ni 5.727368254101781 7.68151279826223 3.742293456546452 -0.57482667597501 0.5089483281146461 -0.1604862024449365
Ni 3.0042662731228305 8.516326081372256 3.6814099720415823 1.6709491458864256 -1.0314353141456754 -0.7479974158661504
Ni 3.57756477273958 4.282702205050896 9.187942106303357 -0.2269790439608478 -0.5789898062137642 0.0789295246173673
Ni 7.463877676084917 6.247834841699124 11.26339464621413 -0.3297673774736837 -0.125728487248777 -0.21498099105870716
Ni 0.37911463885070085 0.1937994138576673 0.5613706480195931 0.3600063788638832 0.33208625541484743 -0.2263537516720231
Ni 4.6170892181281395 0.39265934872211355 1.5094376278206612 0.1025672186409653 -0.9640114761750623 1.3776009304717243
Ni 5.7380836892077305 5.757515071952869 0.5208910242550592 0.28129899755965104 -0.9150453306890046 -0.14512643215941456
Ni 7.928658537733025 8.910861312881364 11.434685284343729 0.0548323744588475 0.2013855117624596 0.16032705115925291
Ni -0.08857456820360113 5.156350987913015 5.73676402747967 1.5274751617287694 -1.734351521402471 -0.26751531351199737
Ni 7.899593260829866 8.959303441053295 2.6069499363190474 0.025933946256942432 -0.4648575084430187 0.1936233513185375
P 8.85578452175155 1.469441516479907 3.825936561570674 -0.7692720089742106 1.4117860609938653 -0.4859971186351114
P 1.8326938577136338 3.412807005478646 1.6775618048892653 0.2831903010450929 -1.1650763713733097 -0.9805752940710145
P 4.69305156470619 1.3992685949760642 8.275766835388552 1.8884343914242252 -2.535643534926704 1.0482477577173237
P 8.514799200034004 1.9311413497133267 12.463892374403812 0.46467727411141263 -1.4833437186271936 2.3749693848406777
P 6.3193074300563605 7.684884661217537 1.3534576105387992 0.056612863398037984 1.5024732403677932 0.9076174136560498
P 1.9951158600702172 3.3013446677862315 5.890628223478525 -1.1187834018440408 0.4991313420242242 -0.6811736733733817
P 7.066025113096868 3.9529049245678034 5.906591404326776 -0.21105877318616553 -0.3000209994491866 1.221192240530271
P 2.6141026483024077 8.483607195552564 10.342679746100384 -1.0327218941675826 0.5987829296802912 0.19815517775062003
