# total energy = -340891.30367033865 ev
CRYSTAL
PRIMVEC
9.06171610439715 0.00000000000000 0.00000000000000

0.00000000000000 9.06171610439715 0.00000000000000

0.00000000000000 0.00000000000000 13.26273749108818

PRIMCOORD
 96 1
Ni 6.627014322504441 1.8456722408508717 11.566035703808192 -0.6513085103828331 0.7249420767085837 -0.4871122060761611
Ni 4.818848525181499 0.4338631934623604 6.076893840508236 -0.7117795711846968 -0.8806177451387545 -0.7241056968502175
Ni 2.5228180487919465 1.6017308396013237 4.753616854637852 0.6978261943283982 -1.2889230682183415 0.22163474892979892
Ni 3.814302909396956 4.318705220606228 5.049853420323178 -0.8247654140558247 0.020489121092287295 -0.5543594092595937
Ni 4.863087823877647 4.630736357702325 2.5632360217486094 1.889777535715681 0.7393284273372428 -0.5576367944592847
Ni 7.297037621478868 6.258157162851289 2.8164883364373816 0.7557078971365307 0.22695564692208012 -2.046648510005533
Ni 4.816419985228495 4.483655641369435 11.517653388445948 0.7873160109601152 0.3898052073928706 0.8300724280910351
Ni 5.882367790272583 7.722566754512952 12.479957813965827 -0.611506805004863 0.6820043968047932 -0.808358433452711
Ni 1.5760861826348964 6.691443124988999 0.21570781195262329 1.092630654708073 -0.3326624396332916 0.07342145031494451
Ni 3.031805588419951 1.7538226850163465 0.5570300406311516 -1.8015377894409812 -0.17184790731465888 0.4101081806162808
Ni 0.5241178872381962 8.845739297628768 4.683881511121655 0.7829572197707871 1.213478416825781 -0.5399455478271089
Ni 8.422131248438106 2.3854152454061035 1.3513003433504827 1.4529838753884137 0.3916898260100931 0.3690630897495128
Ni 7.104729879379392 0.6849751307746413 4.975131414358703 -0.07915938123998625 -0.3133938212116667 -0.877191750176341
Ni 0.8118998716692196 7.385942119534564 2.5194298730888556 0.019061387506825237 -0.352531924863709 0.20330098361761761
Ni 7.569740910082283 3.837836186478868 3.648539652686792 0.2622617784225419 0.19160709221945713 0.18703901323280045
Ni 7.557081692491434 3.87726371385022 12.709535488799304 0.9399742327202004 -0.4839636331448503 -0.4487009532878143
Ni 8.022491438708999 8.634927530961996 6.9647544547522875 -0.9355665905708082 1.0127770756145396 0.6625267476961558
Ni 6.870801674577866 0.63645054646739 0.34010524018715327 0.262532001364793 0.8795052288008659 0.042630175965700776
Ni 1.709538077738986 6.638096801469085 8.779614141863604 0.6776821152803556 0.16990698153820416 0.8492937382144922
Ni 0.14509982516226838 4.857288325482413 1.692087024599076 -0.585327575506334 -0.5336445453097455 -1.2578250612619561
Ni 6.510480651625199 1.7114138530011949 7.121996979679579 -0.24850457673744944 1.048224617788872 -1.089761046469762
Ni 3.3008751288101004 4.45077973484145 0.4096285395432745 -0.3662657295100337 -0.17420818001671934 0.5508483107825417
Ni 6.128139658203127 5.761493557313158 4.671799524855458 -1.2854965590352958 -0.4397951661577522 1.0274135945807918
Ni 5.0664689832255245 2.725791430908909 9.84205234420695 0.5591822845695338 -0.25590395452531406 -0.6574809577421322
P 0.1263185120779514 5.4064827000786275 12.397874975897528 1.3719892407119019 -0.07096604679591649 -0.5818481015981657
P 4.014059382247812 6.267526977446089 12.70749297795823 -0.10516249017196727 0.44671529031635326 -0.9905146646719133
P 2.429047409114 8.503297040822659 1.2980491678511152 0.5112785189097194 0.5604166711972671 0.32688028573387573
P 6.3569933019088225 7.778794703797998 5.829569700585344 -0.7176383439583189 0.09901549673396497 -0.1050745584438513
P 4.827729007099203 1.3547265782617923 12.762042697395156 0.6561815222044183 -1.713877055598203 -1.5102372005839282
P 4.297410187436227 5.912217083575555 7.964061492377011 -1.6139521596760915 -0.3913062174184293 0.012339752512275523
P 4.536422015049825 0.9975771559940196 3.7197466189207797 0.1282905915489984 0.7495907284951994 2.299280478647795
P 0.36529409282658004 5.522445482834589 3.7025982271033713 -1.430306488395556 1.462781578205126 -0.014200459870098124
Ni 1.4602230787576036 1.1013156835387754 2.6068573113970146 -0.27608222924540193 1.0714488784241354 -0.5212423149906507
Ni 1.900078785171165 6.348937436169193 4.920130421452899 1.4601518538917626 0.4152030786406849 -0.5568420664721313
Ni 5.691247133000881 5.517796822402159 9.4923009070796 0.6498856618933775 1.308616689992527 -0.9743699365912509
Ni 8.579243284651502 2.445168202309503 10.202254658676841 0.634392708464101 0.6468509888321118 -0.03209482365201569
Ni 2.420456902116059 5.020852303660509 7.012871261828623 0.6504171089168154 0.5774011215704056 -0.08519478880078876
Ni 0.49567315995281974 9.338642290926238 9.098768694097972 0.6732806437785501 -0.06758658880072231 0.267390615008675
Ni 1.4960621664969038 0.8688681631712825 11.463912880269483 -0.855985805522687 1.1779164605607713 -0.05565229925698158
Ni 4.078696604205948 6.983266634864202 1.609897258279113 0.03951194205169324 0.37498768276406386 -0.011445265722464161
Ni 5.291543891258076 7.822916200182993 8.139713800022673 0.6993937959258342 0.5290438133129405 0.32126731042247253
Ni 5.62996274605249 2.717246232492181 4.812171852653986 -0.4189286071213882 -0.13941652625883086 0.20487706985548587
Ni 0.9016942302599336 7.556936705031554 6.7041675869367925 0.043866105255330905 -0.793944057799594 1.2443969607815086
Ni 5.161481078028701 4.140026299735552 7.064516701209811 0.6154215666782369 0.1568295795289557 0.012331524982159408
Ni 8.269414144602345 7.357696750006523 9.004908343429225 0.5987695599438527 -0.7061681385351903 -0.43267449595257096
Ni 4.842109950776136 0.024613433658024618 10.431739904004642 -0.1907303460414586 0.5414781824215513 0.027261406819114337
Ni 8.227014374303437 7.049924619544426 4.986935205936255 0.16091609089350353 -0.7077755922316262 -0.0677889346195155
Ni 6.867204173229572 6.039271407012403 7.164411248724476 0.190229238035324 0.0434488152122542 -0.4633068761264473
Ni 2.3420821183342113 5.2871036502992235 2.6470568969922317 0.4071321287070923 -0.32675790122339854 -0.03982201709294432
Ni 2.4796933411936335 5.105090017851289 11.421432460696016 -1.7476978608023899 0.29881540917685956 0.07492734543650967
Ni 0.946369397507348 3.4204535363468405 3.814495923952922 0.8003468760021442 -0.21771098839536054 -1.0759894466069662
Ni 3.7269842116837077 2.7845475990256277 2.9204941846112926 -1.1464381874468321 -0.5437296974598893 -0.48492239751369387
Ni 1.2415910509735082 3.281020908522665 8.120801092052838 -1.0443404522431174 -0.29866782785540175 0.32888008977272387
Ni 3.5763603642999784 2.433551082086549 6.908414140185834 -0.473115891797069 -0.28406293345803335 0.5632844796633654
Ni 4.190128528840632 6.813875973142142 5.985062408106197 0.6055552154071184 0.24358374239706437 -0.383551513173675
Ni 0.6914062307919817 7.185560388262973 11.071056671319552 0.35666754429863734 0.17774113287064228 0.15233246298955055
P -0.09067243889461753 5.645267984786162 7.769311617750166 0.5633911804445588 0.7837156952033664 1.9495065761451975
P 8.427604525048608 1.8383956827081012 7.939844055718786 1.1343390901904529 -0.9889658321275548 0.6894834787906577
P 1.6231346133662357 3.265117596516983 10.318250969782898 0.38336022309847523 0.1367520920527903 0.3121015847628045
P 4.014430912613757 6.166806001410103 3.7827844479621056 0.10037355342375617 0.46449729689012265 0.3546715969145311
P 6.75163104427204 3.9984097982969216 10.42282770608009 1.5738228957553733 -1.8071759615633651 0.7629458096458667
P 6.605936770524261 7.640232000733109 10.173726563602033 -1.6273710041851588 0.46776722589064607 1.2532441267594934
P 2.6510232101915974 8.362033946317489 5.856002726864872 -0.7599934118857622 1.2025831100695161 -0.84417878558543
P 6.984634954016827 4.123407112146708 1.5560770069997134 -0.7399133533064354 0.21652133896263354 0.8115648562051506
Ni 5.307854980494672 3.1721172027196536 0.4444400286606692 0.21872914524722972 0.12379707455401906 0.4531667023686518
Ni 1.1319805313035776 1.07599724835708 6.82874534332455 0.4265496140017557 -0.08060485543726117 -0.10865019161025158
Ni 7.044868181881082 0.6377844310982939 9.318465473540568 -0.7472739074365646 -0.24705293189258742 -0.3758253481740108
Ni 2.9230015614956075 1.6305652206851298 9.481385163693819 -0.5856978143615591 0.177164691541882 -0.5301678996150546
Ni 6.476399536836954 1.9585540400843644 2.5236336032537765 -0.39405755491132133 0.22057468309640074 0.9609135539760288
Ni 3.8205283084555903 6.799195992829206 10.379020651248712 -0.11528980841395628 0.5304365798954089 0.009047197803932806
Ni 8.125668139846715 6.82440568741599 0.3164605039954576 0.20249237167339318 1.5253079788741215 0.6612766773391385
Ni 7.366178516409554 3.7914220758845074 8.157711274652009 0.8269644785896725 0.38458792485798926 0.693566904831412
Ni 3.165955235674717 8.548995275833859 12.349451882812192 0.8878682560535806 -0.8330644208398233 0.6687369902719257
Ni 0.12958254226851926 5.0297327855782115 9.899838002514091 0.16597216526017222 -0.698149639106088 0.23428277671111264
Ni 8.695115450245037 2.4847044702757652 5.596264941861304 -0.9297209304233085 -0.39748689230784445 1.1165966786053672
Ni 3.3344034789075496 2.598737107472062 11.610996315117246 0.25895636819839274 0.4912028312057669 0.08488368531827317
Ni 1.1955122238801221 3.3376385116061416 12.675795094541778 -0.7415226067750842 0.18633273119439522 0.2898494582328234
Ni 2.9850380708921302 8.969069255689924 7.913040405244936 0.39824588196105604 -0.6584844593059821 -0.09815623405746322
Ni 5.7686976217259875 8.266867802338188 3.533206659209689 -0.4521943111530535 -1.0586848938902476 0.26998408676746405
Ni 2.809911342788536 8.451898986294895 3.581085143148846 1.4582546368690499 -0.9430932379651565 0.21075564012344994
Ni 3.3946095216230767 4.34734930564894 9.271635430170674 -0.3831812743184497 0.09941196084143525 -0.1648326523390903
Ni 7.290522247500472 5.899612236282162 11.394548160947606 -0.21740785533264492 0.5444151535626881 -0.3528584549651923
Ni 0.5613397928761101 0.05079454422601104 0.5333327464852491 -0.8428973477698452 0.015023984212657998 -1.1820829332336353
Ni 4.747686867528724 0.6277667037921507 1.7141024642103606 -0.22140129276275416 -1.923144798322217 -1.6100093729782594
Ni 5.982835038253778 5.692080810895195 0.4023465443707583 -0.5179009093222435 -0.2909079814043248 0.5154599039809187
Ni 8.208900003534572 9.043330020297653 11.448965579327393 -0.2279465500804397 -1.0133362905521193 -0.16784649946474964
Ni 0.2131288475099925 4.832241741787994 5.905088231407538 -0.3271823903553268 0.11869754854392463 -1.1163035728449806
Ni 8.122097823647149 8.953682461510068 2.473408134807798 -0.42819074914960453 -0.375465907952063 0.2274870939455179
P 8.602250982191347 1.626460263227253 3.628207879953374 -0.549957423537156 -0.2997407492046063 -0.45049866861818544
P 1.7716561425816924 3.2452361910808203 1.7447926847806416 0.9430402732400339 -0.16985993035035263 -0.9196270365224163
P 4.904499867106118 1.1354964772056884 8.362766132989886 -0.6931017922695354 -0.49035822381728456 0.14224756794972274
P 8.692940638346826 1.7628028458127174 12.586046044532278 -0.4694137603551335 -0.7669078796174083 -0.8399894300944307
P 6.448516635958616 7.959666559999373 1.407826423099909 -0.6568158133543075 -1.6307561186073076 0.6686907104150225
P 1.7024608773535517 3.228607941775734 5.835471596374119 1.9654101347493311 0.020321742276487583 1.5142895162764307
P 7.164029750470664 4.046119734313967 5.857514221134131 -2.2314694325410924 0.5601351354011063 0.468457052868819
P 2.3912147438013376 8.522516940973116 10.040025471301272 0.04015780316580826 -0.679142758986282 0.6109136515055543
