# total energy = -340863.68171607924 ev
CRYSTAL
PRIMVEC
9.27448080023949 0.00000000000000 0.00000000000000

0.00000000000000 9.27448080023949 0.00000000000000

0.00000000000000 0.00000000000000 13.57414013003655

PRIMCOORD
 96 1
Ni 3.1251383704008315 1.1313846548022681 11.315810883084751 -0.3161029926127137 0.01760434334532452 -0.3518806644329553
Ni 4.329596660491421 7.866596180261943 4.01266538818191 1.1266576623857951 -1.014657323356388 0.47008353272864845
Ni 7.92113012816083 2.2235846276533797 6.385546900137522 0.6188385627795858 1.4801267543517929 -0.543732782783683
Ni 3.306371002355279 5.2336545130913725 7.81548729817242 2.9878537869193575 1.2253579418721865 0.7255018058667957
Ni 0.06130060918919797 0.800437786903505 4.108199961399062 0.22851065011402583 0.46434328781076156 1.1448739282835056
Ni 7.579003800942796 2.9834613996349475 4.215503850922964 -0.3962687036300272 -0.5981285839257441 -1.1027991106006427
Ni 6.001924690319283 6.338894406137355 11.493509937802894 -2.4133379573165468 1.36892705684681 -1.3335777308132386
Ni 2.5231410873789164 6.640305762049928 2.8329365740568964 2.2132950756249112 1.4949949297128768 -2.443502653825385
Ni 3.2520039951132254 5.270075399723844 4.7139599013363815 -0.6537063211910483 0.5224949564508292 0.17619692831197398
Ni 4.704545375739075 8.790213913154199 10.432799610071015 0.8227396418750476 -1.9136661694078203 0.29342611984048816
Ni 0.1976475357616314 9.06164087220332 10.918250983317119 0.337589958841896 1.172275203114594 -1.7829669684173293
Ni 0.8410377546453702 2.7329483950946685 10.25291456019645 -2.12096573266187 -1.403067193063629 -0.8207375238433544
Ni 4.575212739097922 5.532255701280585 1.5420493961313193 -0.7849909623713641 -0.5164919447898588 0.7952854023188368
Ni 6.179503176785267 2.5307832596695086 13.49808419030854 -2.1189823836832535 0.670794901242219 1.6269678552094688
Ni 6.737084970608582 4.430187680714437 2.2868356601832476 -0.18083082753955954 0.17697083036352101 -0.7306838642883674
Ni 2.3316508795101543 7.175387665124484 8.863384003044247 0.9432266782192271 -3.273147507460698 -1.108666110904381
Ni 4.561365939061691 4.050944880793792 11.62147273360992 1.6965218521492076 0.8551301423906111 -0.578299722125275
Ni 6.46778186769362 8.04058544260601 5.0952709105055725 -0.3526373400933217 -0.8281818959365415 1.2552043358096576
Ni 5.67000029212995 2.499240750008945 5.584496070044201 0.06814220419387619 -1.8252839840179855 -0.1277645438421993
Ni 5.029068738142129 4.089276310498911 3.904330176378015 0.11440920558121588 -0.032783107968291925 -1.0031212976923305
Ni 4.65713422919841 8.104801948601231 1.6965909994023984 -0.754882573021758 0.42285648142088467 -0.35002689905366813
Ni 4.443515109818297 9.330406055224042 6.348516680107609 -0.10371521620247945 -0.5838972708177105 -0.03935407631759029
Ni 3.696260906389516 2.285482513414804 7.148767122496223 -1.5552641589165794 1.2597153363061337 -0.7254102745942539
Ni 5.947604055481905 4.824751923140006 13.270635892405972 1.336458909015776 0.44420537941030597 1.1530731762648465
P 4.40125130019666 6.400337842332954 9.767557786655889 -0.7323293703115904 -0.2440041177639346 0.21719059711551625
P 7.9736236902539765 3.451247669043802 0.5289384869030899 1.5333889561100429 0.44845875537002117 0.4418787881596583
P 3.1339676762511277 7.477309117488494 6.711652488988118 -0.7086112007590442 0.13932550920692136 0.15072989438912104
P 8.324634970207917 1.649735394269751 10.280443074508266 -0.8349924911004716 -2.1756189012303757 2.4774818389843074
P 2.621951407262376 5.707923644673921 0.5795548940549549 -0.18215160323351212 -0.20880674392719523 2.5838059535645437
P 2.6675262065778744 8.219045004760838 11.28486194020404 -0.5562008333437066 -1.6047848913545264 2.983698112879771
P 5.896343999353138 6.323934668388902 3.4515917522864976 -0.19370716928159543 0.017955813147472303 0.24235732618913097
P 6.492785868294877 0.9140548155999872 4.2313715603549715 0.5982162585435439 0.3762542081813133 1.058361449112558
Ni 6.140058809367926 1.7764804507299874 10.298578394528928 -0.9108397772480894 0.652931904918869 1.3313660678739005
Ni 1.7913288947072186 -0.12686098747192634 7.341601202652493 1.5107766180271658 -0.6900604343400504 -2.0113588335653034
Ni 2.4888255079187322 1.6997341209913324 5.205316336593915 -2.7810309061914107 0.22113955446093528 0.1374097802414472
Ni 8.113213902809445 1.4473012988974705 13.128637097151636 1.3519824585726716 -1.1044420455207045 -0.6186421304980635
Ni 7.194817702683697 9.239803650968222 9.223424917636684 -0.3727477376899516 -0.648751034068302 0.17641521497036713
Ni 7.839199363579406 3.3336657997475285 11.674792651954393 0.09315261019528474 0.8296834201827324 0.3479823578198136
Ni 0.8868676021865863 6.1437593272610656 13.060060657668785 -0.13503150981725778 -0.5431596838890322 -0.17343479218580454
Ni 4.79284770872297 6.352101266989058 6.123091146497005 1.2369579880049602 -0.5194960217235053 -1.0072947123437297
Ni 2.4039269094380495 -0.18096645435160788 9.534897230467747 -1.3758620934037467 3.6003545804063735 -0.29108024531613097
Ni 7.535793994265768 8.648991391954139 3.220668306377516 -0.48974964369900814 -0.260316481770713 -2.2544795202830206
Ni 4.617560019047977 3.425798493357655 9.167676012735289 -0.2513782987408187 0.2653093069996141 -0.10914667163069589
Ni 5.24334634566864 7.444922630062827 8.078310321257968 0.4650791375355216 1.1892424270965518 0.5190676759368351
Ni 1.2867600339094203 3.1746826475565895 0.7316721480095767 -0.7983704690020638 1.5459289975585826 0.2811017939471804
Ni 2.453090932875465 3.4904508999568287 11.390848853435147 0.864841199030788 0.7276407065866695 1.9849980841835877
Ni 6.653345682244797 9.322986470475895 0.7049347469215322 1.2588136504274707 -1.3221826016024196 -0.46154875578475996
Ni 0.9476386385143852 6.070221967925984 7.189013732514458 1.7331649572935377 -1.7490821427444263 0.2810927950861159
Ni 5.674516964345385 1.2074632219135897 2.308811542759168 -1.646898789805441 0.8917567924747093 -0.9660634736080845
Ni 0.592682921818709 0.501908939665587 1.790809523774848 1.4365720096892938 -1.058845330727512 -1.1787338142557442
Ni 9.061872734226698 4.426728299325612 5.517114183705802 0.5112962595215323 0.2495805834104476 -2.041451024964994
Ni 8.986044578100628 7.385408285901746 6.0522749198683075 -0.24761626059522518 1.700990172333206 -2.3160744102766824
Ni 0.6310514494475689 6.605591379909531 10.652768039099358 0.6060712358115885 1.7265361391231104 -0.04831488505530389
Ni 7.946032109471802 1.551917443846356 2.1474021863555843 -0.20168247417758817 1.7103623575767255 0.011847900477521529
Ni 0.1589933541199679 0.9951796277881428 8.538216064216197 0.30319914006685206 0.21661029913201402 -0.24545062040247406
Ni 3.012629642176104 5.891502720304971 12.13705967775872 1.1141556732640423 1.0513266537529635 -2.0199681725008696
P 2.221163988129297 1.9220898014123902 8.897441751934434 1.209274920267395 0.04194831940732776 -0.9511976122398457
P 8.742515257704543 7.759132769665956 1.4046108631528145 -0.2518320984487857 0.32689545524252733 -0.19820737114479414
P 7.237656530123315 6.930467172588122 7.042915616686771 -1.5615903582449233 -0.5603619066999317 0.35044418909674485
P 5.8838327245715725 1.4684192919868864 7.44689531215774 1.0933855305962266 -0.6208267968542082 0.9867950497284812
P 5.49062255636254 7.8270868914780545 13.28796989727383 0.12389374803288342 -0.39655949539756863 -1.2997589824915807
P 0.3024500977773141 0.9142792580386188 6.294166366931239 0.4363102929329453 -0.47996171107430885 -0.9887395750493617
P 3.9566234096829613 2.3918608097413743 12.733521023110423 -0.84974548103993 0.27055512877958565 1.7751330741952074
P 1.3793100791616302 2.234982964722722 2.974664554467924 -0.4854368752562672 0.7882745182186424 -0.06702685964251037
Ni 6.585437932837374 4.762520156064916 8.057732102958981 -0.8006037292079567 1.1702432602862298 -0.8310317066805107
Ni 6.496161779355284 4.647655709682652 5.616639566069365 1.2748550201610496 1.4527175091009046 0.3453629179190955
Ni 2.9170468416580886 3.8067292488085034 2.7974941451630877 -0.5282719681439224 -0.03977727989793795 -0.9050614800034156
Ni 7.583780158624415 9.268647286676647 6.861714517967504 -0.3727377103876226 -0.8171359225350251 0.45934403482395725
Ni 2.379544299059449 8.50508854576381 0.4419559125562714 0.017476045297576355 -0.5566690312293768 -0.21314265229838772
Ni 1.1173245417045277 1.4777401453267474 12.784912776868468 0.8049280676149235 -0.9768711057465498 -0.3163894135048809
Ni 8.280673930575142 4.691273593520826 9.682868791444342 1.415731933015491 1.0935215419534587 -0.05770609646221675
Ni 2.9800483906507993 1.6633410578016672 1.2492475408708779 1.01992037152754 -0.02358627196037228 -0.05420682505970664
Ni 6.615700564128883 6.729016172194971 1.3040198429297993 1.7262985691910075 0.6090876540404091 0.01576831857785026
Ni 8.008699777150845 5.939989706634117 4.098277194246507 -1.075458770914477 -0.1769556608548694 -0.6738745686088072
Ni 8.940080250585853 3.8523596950096133 2.5107002986524596 1.2598873431076238 -1.0972876938641103 0.5713839688420482
Ni 7.6142375540155625 2.6248821432378944 8.610294547700175 -0.7740303495948024 1.0693811972618292 -1.3213529066122727
Ni 0.038513209531448725 7.640790392932996 8.483525377589507 -1.4042481007456074 1.311723611052625 0.5293361477423787
Ni 4.291441445924071 1.0596558192495482 4.17038350117329 0.0987010508173397 -0.4910282533011156 -0.975153608834811
Ni 8.020005369410836 6.002434786770717 12.223037825820256 0.8196635740528851 -0.5437384392106378 0.11299175640839895
Ni 4.306373360229718 1.0503998872762337 8.80916909728953 0.6941878262448625 -1.4431846299098048 1.575793903438815
Ni 1.6948279205766197 4.876030528230643 9.367718219474384 -0.44875391801293685 -0.7417969434823934 -0.3167843349504545
Ni 7.12050128695006 8.780633374348154 11.758518028596773 -0.35609933049999315 -0.843314894923238 -0.8355637902229094
Ni 2.2102850219923247 8.351939042081103 4.670020193009757 -0.7891080698635313 1.0584123569551513 1.1591759467284746
Ni 2.047907409779108 4.152630289767158 6.46833555420545 -1.1881821041528375 -2.3635086924992454 -1.0051403850048883
Ni 5.347721354113211 0.8001326564807374 12.419442581136572 -1.0776755760601375 -1.5335319094458104 -0.4798534676312187
Ni 9.102179628371013 8.217626009177755 12.861253811790256 0.33838854348379144 0.005339152824726289 2.765503242869457
Ni 0.22429311948841757 7.605779227402674 3.539050107505291 1.5625113273972961 0.3628633886967041 -0.30301144953607817
Ni 0.4848123615096673 5.867704402225287 1.8428792420892566 0.0887655368711826 -0.05037922378350033 -0.5023048546561995
P 4.393191776263984 4.020821366716311 6.175256391965045 -1.0335621306806908 2.473026374316115 0.12191991213596422
P 2.8931743277309225 9.22824764772298 2.6675902004963272 0.2159407838688152 -1.4071215656386604 0.03850484094341756
P 4.858038035216385 3.228585930751884 1.7302953905689535 -0.41589753360454823 0.029991147045451572 0.3804494772095835
P 1.2565437750225878 5.703898519948051 4.065712636786887 -2.9383942467366486 -1.4548846919555525 1.428093025684005
P 6.2498037422739685 4.389324317714012 10.28348324935882 0.16598244967281736 -0.3443015665341167 -0.09454511966743717
P 9.118205931427012 4.151600822383353 7.4834237827690595 -0.19992949604222343 -0.38517362215813017 2.7605279011420523
P 0.5957128947402339 4.606402818482949 11.27777623676956 -0.5714181645140932 0.5367954322339014 1.6471957522205698
P 7.894438172029368 7.37210868024069 10.111132787795999 -0.18415320704457316 -0.271147768058262 1.2844974283468202
