# total energy = -340882.35088517854 ev
CRYSTAL
PRIMVEC
9.17784866018615 0.00000000000000 0.00000000000000

0.00000000000000 9.17784866018615 0.00000000000000

0.00000000000000 0.00000000000000 13.43270922534379

PRIMCOORD
 96 1
Ni 5.052157750189541 2.9515042715690947 9.866821234745927 0.33409711519728913 0.46684008609068633 -0.3850118997692853
Ni 4.51908078073916 0.598197475089521 6.044275821501466 -0.323405696921714 -0.23373847417186844 0.053906777320784575
Ni 2.6886874043759215 1.788560743290656 4.679404943549982 -0.18869300389645566 -1.28353377888197 0.3453564901611923
Ni 3.6493419757537904 3.2302722393063994 2.6597973731372475 -0.25831564929060025 -1.3893899526868523 -0.3717285523968179
Ni 5.589153660912847 3.01697904215703 0.3348840862971318 0.10887413469559959 1.8852652496676243 2.2157160263615774
Ni 5.081178106875698 5.087978892550727 2.5713027231564536 0.4773530698068682 -2.5774175335396965 0.03171070083971958
Ni 5.161502636198042 4.731391948108195 11.583226651587847 0.1668298852747772 1.1078641838283758 0.5583042528399547
Ni 5.349859619205638 8.178821258746403 13.22544201298757 0.5527532411147383 0.6479239101813165 -0.5703853523742048
Ni 2.0627214311239594 5.86386501965101 11.746084818345867 0.4947897772260769 -0.8274401326745104 0.3712163886470897
Ni 1.0741570227180688 8.049872488524862 11.401857682362932 0.018656952979554966 -0.02824973887431264 0.6930598832880064
Ni 8.214128441596387 0.024979350029321824 7.144804473853313 -0.6886769237289624 0.35126231412266595 0.2590458425884055
Ni 8.64030183271648 2.8760807133000106 1.12885516369788 -1.2581827017116913 -0.44019265870648705 0.5013358058747107
Ni 1.0658418920546724 1.249417216038394 2.4806723878496415 0.12951520798471888 0.10805472411809779 1.7322265046396683
Ni 1.9115989791333603 6.676600208134886 0.7803447258599707 0.25427824599643306 -0.3177880936246204 -0.867744488720512
Ni 7.336423264187365 4.022146178344469 3.872354514373951 1.462771550902797 -0.8167196609332128 -1.0199867059891015
Ni 7.2923420582532685 4.46825385622052 12.759139397460595 2.0309673518248506 -1.5730088844945103 0.31836607761527747
Ni 6.808816292391934 1.3847629466047344 9.490490902794456 0.6244991034994729 -1.3359513732517379 0.008031612055224879
Ni 7.141228784111083 0.8072468351320978 0.5245167902343209 -1.5302961761173322 -0.03979450628911856 -0.7425392209650566
Ni 2.051405144029072 6.840580825753982 9.53429493770644 0.7518718112198922 0.5077252543408224 -0.8128295818501873
Ni 0.04841315038566801 5.270911767145446 1.1113016108206044 -0.5712459006022871 -0.13217167177095945 0.6287990164264073
Ni 6.305475551804031 2.002000786014655 7.121431247296501 0.9708405832817538 -1.4666274343137775 1.7575644691838246
Ni 3.3609831564234955 4.54185102265515 0.4562179956892923 0.23434448318698353 0.4634752833835114 0.268452480614286
Ni 6.165908010967092 5.572468332495567 5.163479544746492 -1.4017147928007923 1.4001924426189951 0.29147336698949156
Ni 6.404348512771766 2.3171497448664216 11.719179037934376 1.2516356446217929 -0.45262702781509795 -0.27740017672587713
P 9.103122372555053 6.855568252214606 12.770610790193684 -0.2500816914165822 -0.5766354470489746 0.3527137018572119
P 3.7843848373224573 6.50317558449743 12.769831590863307 1.5357134904781615 -0.07799415728729148 1.0495155686861537
P 2.483993851190793 8.515024201860676 1.5328062304523211 0.45676213302939406 2.2671146925485277 -0.15165034932086138
P 6.6611722449503725 7.847198061990888 6.061778896212462 -1.537607879287397 1.0283078242602872 1.0166995505973975
P 4.54723841967437 1.5637952356233558 12.82575222125191 -1.1514173858289782 -2.5841445678508848 -0.612012798107004
P 4.208373900519937 6.359413766935135 8.460860211658579 -0.2422118017502022 0.023857523343887944 -1.0746666140304848
P 4.715927273530025 1.6384662103224636 3.716454074498844 0.022865591744263846 -0.9214473775606066 0.8102111703907335
P 0.3039161901774501 5.7817508098878685 3.7452945453560806 -0.30728899386550945 -0.31395792124525285 -0.20809300568962227
Ni 0.4730428274024689 0.1608702447914744 4.890056755925703 0.4615410424752761 0.44167695656149736 0.6528277752408369
Ni 1.817608633522057 6.731437852410595 5.137486960252228 0.6360094181319176 -0.7663918592129381 0.454848718056765
Ni 8.73757784806012 7.274509498784196 9.63410036807307 0.23597199148807746 0.2026080713156511 -0.5139100429952955
Ni 8.87193237099771 2.8729327112938905 10.449573308738946 -1.001560895183746 0.18818829634589523 0.4617354178742693
Ni 3.5929073858539846 3.9943097641037624 5.1956378078055145 -0.7081440313146385 0.9963757514383808 -0.6462740332827192
Ni 1.3645441465479333 0.998614152419598 7.455825236488306 0.04418569337827874 1.8961245609796316 -1.0838302828076236
Ni 1.3008223450071386 1.52305476651208 11.606693492198485 1.1090533190404708 -0.21055072320149543 0.6016052296204348
Ni 4.393812327731771 7.117228710507573 2.3591870439586446 -0.5802262497240266 1.3135110419703508 -1.7760190763445864
Ni 5.921180682998592 8.480845894365658 8.157160618703708 -1.07061841210304 0.09394296730706402 -1.2831920792718352
Ni 6.783632276342972 0.7158088491648235 5.023632079532916 0.7875566662160115 0.13300856584995802 -0.5282413720163031
Ni 0.9929238864027043 7.87692511300495 7.24227230622881 0.17591256430233573 -0.43416882110991034 -0.22400376338260777
Ni 5.826942535480102 4.173663277816885 7.843559962879442 0.4038172054012465 1.9075999086090827 0.12903981101019713
Ni 0.5028781770278204 0.46141908238570145 9.630365901553274 -0.6441816695300647 -0.43732150780627904 -0.4704355167514285
Ni 4.992978983613846 9.43069813815984 10.953850189865115 -0.3952857708914676 0.06603801336667983 -0.27566005410631883
Ni 8.287129047884084 7.233007268254529 4.958966795175127 1.6739347108773106 -0.010941072392535996 -0.6357409949618793
Ni 7.756328184840462 6.442335627358739 7.301886102819345 -0.11358773812118501 -0.3314319096603002 -0.10622821243232028
Ni 2.4078727764422183 5.231052371481947 2.974324073866521 -0.29061718963678335 1.5723578811740726 -1.3560386309199162
Ni 3.363727333099385 4.676132122805426 9.647640447838755 -0.06683325557446554 0.6002345745251533 0.6755146753153914
Ni 1.245021026647923 3.5521485610458803 3.9473760828824864 -1.7619363729992754 -0.4704314029863705 0.5401903168480633
Ni 0.18970337336997953 0.37628811384876476 0.38063015393359123 1.3400715660676985 -0.852096754880926 -0.2298159991890107
Ni 2.445602911273589 5.279346209838228 7.082449253941413 0.44765271452895805 1.2071583881450243 0.9077421121593721
Ni 5.594173943995493 2.978147565515937 5.3159538938085245 -0.2856156226571339 0.017866338757459552 -1.5776880351377345
Ni 4.145230303429246 7.047146660015637 6.220499688905297 0.33107684031372664 0.17954039086291015 0.6260818746055604
Ni 1.3828906655282083 7.897079668122852 3.2163549499708872 -2.7270313120465035 -0.9863106538928949 -1.120662621144625
P 0.6128214587529379 5.9979992742266575 8.119065205505446 -0.6102531351034199 -1.6186135697075026 0.25683212276653833
P 8.639090356725786 2.0125828452363947 8.432933854503412 -0.13959830325233377 -0.5614880498845749 -1.1786065446492606
P 1.6437251174638832 3.8146533813929655 10.709737777740374 0.37502856330432827 0.037919400753592764 0.5296750191390363
P 3.9177573304797138 5.971089822675799 4.279889530934193 0.9061392864486265 0.7617615595297784 0.6541372380808799
P 6.98113957421967 4.34292115827423 10.580380593264394 0.5365264948432309 -0.2766324453219171 -0.7207529783279006
P 6.867554522243741 8.17471876050519 9.990107272495818 -0.27322779051574236 0.8622767807377215 1.749950661392309
P 2.5385745157109008 8.666678969059307 5.8331541032869305 -0.26942770004336175 1.2727438873553178 0.024519325297602933
P 6.971961725805325 4.57742436310915 1.5653536342841115 0.9084494226390419 -0.6284827707375692 0.682353809724412
Ni 2.3239321748446224 1.4062024005006437 0.6216523844972203 1.49544898653116 1.2169707462497557 -1.3820779924064712
Ni 1.2039960442358024 3.5338020420656053 8.45545996565158 -0.4080045040097167 0.30050693794666955 -0.48971673357854373
Ni 8.097193474949222 -0.25414655379614187 11.749066701295689 -0.8500691829279359 0.3214830259777044 -0.23479262646799565
Ni 2.8325593561191886 2.0409423968367193 9.425677855077197 -0.5762412969343496 -1.1130220738802317 0.8728920943597224
Ni 6.544934794782697 1.8225554938173887 2.525846675529887 0.25185575259786946 1.3357590547352738 1.3073915593361742
Ni 4.455083643745935 6.813836575474581 10.59409505214995 -0.9174045749498008 1.3953320292029001 1.1229352192288855
Ni 7.009930484695469 6.5926963179309475 11.726741585027794 -0.05538876118294977 1.2099842876295936 -0.57448266237203
Ni 8.089052723405699 4.432506136646648 8.673016273389411 0.4095649065183011 0.005684709089603113 -0.38198519712781953
Ni 3.0750381112261738 8.683144029114642 12.788516772450071 -0.2083110352376993 0.04851028889556162 -0.6903728233741465
Ni 9.05674670451737 5.386616902105088 11.070123433641605 -0.3400502474569305 -0.9499064042322479 -0.10301304792913227
Ni 8.613988941312554 2.2507480115886382 6.029634399926061 0.2540489035944464 0.9473432714907621 0.34288180336845464
Ni 3.58975020599945 3.2036105896627283 11.740348663086904 -2.0932641529815434 -1.212514510250615 0.6326821535308975
Ni 1.1539492368323812 3.6146497087475673 12.9639210579905 -0.0581670952590353 -0.002453603746815129 -0.7316297731414045
Ni 3.2564841743777677 8.818324558409524 8.21741961803777 0.47861882389316923 -0.717806494105067 0.05221062056528428
Ni 5.460030511571431 7.977817200623841 4.323532035714085 0.5113026872794356 -0.48928684512997667 -0.6777546203895037
Ni 3.393344249932475 8.8413426022327 3.495579974559226 0.4708695189650536 2.268334423888242 1.5891410141696827
Ni 3.7592467105155674 3.50292775999975 7.706801761442134 -0.265199263784311 -2.0781846329406015 -0.7244851916768232
Ni 6.294755824856077 6.138089952423214 9.392526548819742 0.3860987050755609 -0.5228788221528091 -1.0244275153692746
Ni 8.220332667124485 0.09584427099100114 2.805071700118226 -0.7761296553259924 -0.7253537103247056 0.6089696404053061
Ni 4.54442999805958 0.7970585056073338 1.5434451923342294 0.22285679426235813 -0.448666243395137 -0.2648580783948084
Ni 5.929761971266005 5.988711291631341 0.2637429120981807 -1.6578388337567127 0.17738940595817837 1.6179931625146844
Ni 8.194671402957976 7.577497808486956 1.2105022209767315 0.7531059407373094 -0.8348006868046397 -1.4899324275883048
Ni 0.36210650247891946 4.859909359454264 6.0386341980811675 -1.227148972334338 -0.6649505266462999 -0.2023746151486063
Ni 7.037298828667044 6.426256036936807 2.9562033299572392 0.5781176880214559 0.008763348014926843 -0.18894188668246814
P 8.615714376814452 2.017869285923057 3.8409626016575262 -0.6343937369053655 -0.425908380873331 -0.3785417186639094
P 1.5736247112751187 3.2558509028371776 1.690452297095836 0.9183042039459346 1.0456614850473862 -0.186082305746486
P 4.6995448141104195 1.284274684316075 8.523886332289567 0.7670559751594983 0.23916555872471065 -1.085822116426672
P 8.499834862734936 1.8951522747748548 12.507074379684825 -0.22315349956717048 0.3134416437304667 0.2554725234148503
P 6.298124095224141 8.319508497089892 1.801433593476616 -0.7888409322450737 -0.036539489686930625 0.719003856847278
P 1.9869307589183012 3.02139358724433 6.404877156840432 -0.5382313933494794 0.4064664700986355 -0.5170907547161223
P 7.243736173050899 4.147946946559892 6.265324300560956 1.4221933723701186 -0.3414394144949733 0.6041583350595918
P 2.5561225618791275 9.107876498033683 10.329135157352026 1.0933312803195234 0.2877918043728463 0.21303929395130408
