# total energy = -340858.64174764353 ev
CRYSTAL
PRIMVEC
9.41434298623529 0.00000000000000 0.00000000000000
0.00000000000000 9.41434298623529 0.00000000000000
0.00000000000000 0.00000000000000 13.77884257672785
PRIMCOORD
 96 1
Ni 8.18931103192897 3.3905944603268545 12.00510617674336 -0.967907725905675 -0.8585813341640052 -0.3971318229612709
Ni 2.019997920251704 4.291198754786548 4.754803368676145 -0.2655898143545103 -1.4501374070785542 3.2726410001379254
Ni 2.2777626316062136 8.071772959567355 5.309112353072947 1.1937883945960215 1.133583442971351 -0.8946343711328205
Ni 8.147991480499645 8.024917774453717 1.082780304428649 0.30604329438386646 -0.23322168243644995 -0.27655916888182047
Ni 8.899500824859947 6.504030662718108 7.762145574057226 1.0557898317306398 -0.12534385021584865 0.3106818215971423
Ni 4.775265443187797 8.130885619267682 5.97201201824366 -0.20147652881436914 -1.7315395058749727 0.16104953114757423
Ni 1.4658226195255102 6.205859591205323 6.338653606399299 -0.004437466946063325 -1.0149547999921487 0.30900803343914524
Ni 5.28112633563527 5.915775440329995 1.4328752433265557 0.5914843391363491 0.9076145854425723 0.09509919239869428
Ni 3.223762888014463 5.076580905262757 12.593586401929185 -0.6549000843888334 -0.2459941516107699 0.798535019604386
Ni 5.95069323851896 2.497436911180579 9.275159470741492 -0.32833218768905387 1.0178156664797116 0.4835437719986124
Ni 3.496863564116836 3.9692188098254246 6.951715622593807 -1.8068471174690366 -1.0121468982297084 -0.1874467901941804
Ni 9.047616683287284 8.088078601644272 5.035064594064719 1.248829285521249 -0.3910735325823329 2.0654607576160298
Ni 5.088941937622454 0.8824854499208745 10.910115469443022 1.552943995423835 0.414439461001783 -1.2135614634578906
Ni 0.0997468469592147 3.676150312218928 9.763770462509095 -1.0404249192387953 -1.2633483050730308 0.3926074527283561
Ni 0.7587235554016081 1.7782375919980957 7.891046758420482 0.5481553373314109 -0.3896357716945419 0.18314404905376847
Ni 5.876310514471774 3.6039046440328613 11.464341607621419 0.4700161698258228 -0.6841183578240024 0.8103386971075335
Ni 7.676841270695124 5.9772605144664555 11.912181904156629 -0.34815282195940683 -0.13707090884478976 -0.8069232436680813
Ni 8.854001305138386 4.97448235542201 0.011617299262653931 1.886126569226655 0.8750294524176994 -0.1542798165239085
Ni 8.4403350736951 2.9994944090558393 5.020803747287518 0.9823838080346627 0.8245597258029218 0.8597961804077127
Ni 7.1748120158488655 4.827138473120716 3.93769017511665 -1.7310988187931282 -0.9458774855785129 0.21894691768499067
Ni 1.6831338990067424 4.64829419913965 8.358714602749107 -0.5953073124268651 -1.4228261208581108 -0.6675609676859535
Ni 1.5790206797638822 6.166159306772089 3.829664354922769 0.9230535457054618 2.1051637326326063 -0.2437482929993867
Ni 5.506505707067958 7.634994516057769 8.211817901740337 1.5302882056975322 -1.1012978434647678 -0.6883951308224854
Ni 2.761255045084429 3.9474999205232018 2.7525307734258377 1.1219402023054676 -0.7478428925661573 -1.3154895058529603
P 4.435332346124662 0.6930123826922091 5.36283530140547 0.6948234029463324 -0.07988006145609469 0.24480578772962358
P 4.253409581982422 7.663764748267388 11.52246105413519 -0.524626143861219 2.8808177338737613 0.7317830108898171
P 7.888955832840065 6.279131422778448 9.56966836282707 -1.6115934296359276 -1.1849198884617982 0.0769528605069707
P 2.852724801677578 1.5062478083697857 3.965675251120025 0.7190010286338004 1.0562590580575744 -1.5517330058348695
P 0.6688532956842493 3.6152395130054997 6.673286428353135 -0.3097181721322924 1.6598111269917348 -0.37633005572457123
P 4.472462514918752 4.445998796744262 10.108930402806125 -0.8694038787008059 -1.350237450857107 -0.6667680394710129
P 6.259144772588323 3.338853231195942 6.402201363087175 0.2692214975698267 -0.9750543642527852 -0.07537960248257987
P 5.225223966898124 3.8301313063355953 3.2570425905213365 0.9710352157910631 0.7508022323047973 -1.677006150713783
Ni 5.041945537363808 0.13743716916183624 13.06340354076483 -0.47267340494301174 -0.33311649645157465 0.7154403078657355
Ni 3.0818510816244755 0.9575893126419021 11.903542361585043 -1.5720274944178474 -0.7137166403064096 0.5572904668634596
Ni 1.1761809427712064 8.463965074626431 0.5209935073865264 0.5900902870022999 -0.4820566459301247 0.8342689826708859
Ni 1.4980385012733235 6.753972055039176 12.800186983378714 0.7700819064700157 -1.953449105732713 -0.21237569222537617
Ni 4.321541182277256 2.9032045088464193 4.887892994240336 -0.20852829345482796 -0.13678114551851284 1.038798696489282
Ni 3.415015266070229 0.13989807842217475 1.6307402559058932 -1.278333208517637 0.31298090204396417 -0.3880319175425317
Ni 2.1269730997667256 2.2096498599973797 6.002904243365599 0.36108829907415235 -1.0632493733324786 -0.6308821242076812
Ni 2.9071114611916395 3.1379040798496307 11.20299850449241 -0.36645470559238824 1.0704569468245113 -0.5125005642422786
Ni 3.145322582134048 2.24661057061746 8.853236860486742 0.3212374856258016 -0.20389388000661016 -0.03445946722945033
Ni 2.366841145077228 3.282451902279767 0.4038216529676309 -0.9520854141614377 0.354517330724854 -0.2793845541457576
Ni 1.2729133171016513 5.912141503931791 1.588824776564634 0.343856251466582 -0.36413377076869546 -1.2673540837983142
Ni 9.002747924546759 5.530050978912283 5.045219845859393 1.1019570743153215 -0.3002364578941023 3.2254396598617743
Ni 9.268383026649712 7.279113521951737 10.808647680583311 0.607797988694708 1.0362581894556153 -1.0964428293653117
Ni 7.6775567607631645 9.158856560181546 12.452642389999651 -0.2506025969170587 -0.15176219230837734 -0.11973370311792284
Ni 5.882966454973148 9.02975767461528 4.009973500674719 -0.7598028931415108 -1.565967918487329 -1.2070329183107533
Ni 7.303496670323109 4.944780103255338 1.5889622259724414 0.6970672046751867 -0.4914139187753085 2.9614827531249968
Ni 2.223498358551159 7.426259703050019 10.676908071805396 2.747773172579545 2.4573493299004903 -0.5276705871144977
Ni 7.123485017809976 6.243422819777439 6.378088406359918 -0.5287015994821733 1.0015470112266749 -1.0191325855189222
Ni 4.31503587126389 2.175155707243438 1.6197716048759758 0.7653914429728818 1.2923449494156967 1.28199831607405
Ni 7.225150507872699 4.290878667124531 8.157557394422483 1.088039435792965 0.5872798141366982 0.6254175015486841
Ni 7.770165652859378 1.054284029600345 10.305044347587364 0.7978961004688065 1.043127662881939 1.0600424363594065
Ni 3.1655634195851876 0.39119137039811985 7.219341858241372 -1.3608111126078952 -0.1474134284213784 -1.2794159000588547
Ni 5.134752130663031 5.868854354815354 11.61358059716872 1.1841812105235605 -1.4685776160616129 0.45151733969068697
Ni 6.903010519080566 1.3850852139529655 5.048044148759551 -0.9656148161064404 -0.13279644983915193 1.9637792840141277
P 5.176928387305406 8.319473738254297 1.7251934177959098 0.3301628131398895 -1.3014358559733714 -0.3628690451236589
P 1.986558173913822 0.9284942855987643 13.921039832335806 0.9193118192748426 1.6858618013321998 -1.0028898984078147
P 0.5060595350847857 1.5010793340624948 10.025430828997225 0.05955060587012325 0.5332275123769848 0.7580278035189589
P 9.205015083913144 4.29815595426394 3.348713814054697 1.4937631141883048 -0.6917668755081957 -1.7010266819980961
P 8.97703735381231 0.9535976312096773 5.939811199444648 0.6666392272026325 -1.2959784324032262 -0.28606428015877833
P 6.779635554058621 1.633793327340965 12.296514925678864 -1.2426540099484729 0.7257859127661178 0.11790924831467435
P 0.693685508216747 3.8967189543783434 12.498595681053837 3.30029887106451 0.5968162928722238 -0.8301575316056736
P 1.908070796318404 6.736348404942184 8.415827655996122 -2.3841451378026743 2.8143259207991145 0.6662957278202847
Ni 5.298232196867234 1.2687898348674194 7.502993188544439 0.25100831699590964 -0.02415345731775195 -1.166498705642133
Ni 0.8380676382100742 9.18449181617199 12.072360360270546 0.7316076616542174 2.0934664988003364 -1.4960421400304686
Ni 0.9576646273859062 8.489336729012859 7.143516856846504 -0.06922181041130014 0.4117012361350135 1.1684645711192523
Ni 8.181553613296535 -0.14509762006136745 3.345089291999493 -0.3284196051965376 -0.09770963343834785 -0.8658814673698443
Ni 7.8135281167198185 1.7875483772256198 7.696255528830817 -1.0567789351167864 0.30619036148469203 -0.11793418801533881
Ni 8.78301715891439 6.6016009135755995 3.070477613845535 0.0909319483948821 -0.39795020509750817 -2.8123554273363047
Ni 6.846383245932378 2.7290862350516183 0.4934772656645775 0.14328732206814676 0.12734931068165165 -0.694562693085778
Ni 3.7202470948334105 5.870859609874467 8.655538481778514 1.7237369791114183 -0.047759526772466136 0.8578462557701936
Ni 6.552702816030847 1.6794999626085378 2.7704707454476476 -1.9630490907163225 3.5697653947656067 3.214208309922329
Ni 1.1023913223330528 0.5137397561046181 4.114761728310717 -1.8175431637303023 -1.0658924673822803 0.5287216540868314
Ni 5.26370980108429 6.1959933597407675 3.9062057878199776 -0.69776963005885 0.4099423444623778 0.9421154474329194
Ni 3.6366100716167025 7.3941473790752115 0.26143818799331614 -0.2593374056868953 -0.21098138298101085 -0.3836890671928037
Ni 1.7930086961659273 -0.05073954303565609 9.498652207836873 -0.22672116231377082 0.2035840620756752 -0.5087948332559172
Ni 3.524890063229414 7.6258626033472545 2.971627953774271 -0.5307895923594536 -0.8731183514379157 0.581876897953572
Ni 5.257251561785927 5.136955086925156 7.097261365382 1.1900217284647376 1.68522622463073 -0.5947684092042596
Ni 7.944029739393164 8.74994457195353 7.247726102387969 -0.42414229011184373 -0.33123624870972634 -0.44051764614607364
Ni 6.228623472580606 7.445869779520123 13.253730488903642 -0.6910683067792743 -0.5125874675291301 0.8966367462748299
Ni 6.359633469775979 7.632669173336638 10.55599872321529 0.543065324403013 1.2052179765892015 -0.25648888049450663
Ni 6.487000116230148 0.427328326005654 1.1370257487977025 0.37823832849087763 -2.0049675853269795 -2.600771891994921
Ni 9.601311852520451 2.2111843979064663 13.90354139300072 -1.1271268887127297 -0.30446155171904343 -1.1283998418878824
Ni 4.400433376621697 2.8541557818136587 13.22581507903847 0.8982807096361561 -0.5654899719551164 -1.0956414165099388
Ni 4.106084528367129 9.078232126725007 9.062221153584007 0.22573283025857252 0.11625294365817399 2.003659665148833
Ni 1.4376360765819236 5.497919826251474 10.539919025370384 -0.5714549312892997 -3.060762559263942 0.7846744595722099
Ni 0.8044010062058792 2.2121729039215214 2.2733162374070637 1.399112322180939 1.3107715315520005 1.5545319087362452
P 6.699754853699124 4.848273673156906 13.450010126121692 -1.9422897466817841 0.05219853638042622 -2.0055530255168046
P 0.9114449104248046 7.965889843840395 2.505145375229413 0.4360853214063329 0.8705413347393588 1.9151679507643273
P 3.4503378810082173 6.158317159052648 5.434224264378488 1.0117247230906254 -0.30355600918563846 -0.7756277759889093
P 3.3499527415935666 5.281248722094278 1.113922951074402 -1.6118754796527208 -0.47056741434360255 -1.4172972206200816
P 9.092871430090831 7.649878592341606 12.887048419073103 -2.4583613161047726 -1.3040139011131928 1.490622254566478
P 7.273521402209421 7.122797770770937 4.297758668989318 -2.880837788478419 0.5554341303810112 1.5288656143183927
P 8.361301664205651 1.4091106172903178 1.9255240468070862 0.7232487481665608 0.28113547539859324 -1.6073688500316186
P 6.69327778571476 9.473276787713244 8.858238700922923 -1.6981524457740949 -0.6184978916107154 -0.8209285568082377
