# total energy = -381174.4771256756 ev
CRYSTAL
PRIMVEC
9.16370171050002 0.00000000000000 0.00000000000000

0.00000000000000 9.16370171050002 0.00000000000000

0.00000000000000 0.00000000000000 13.41200373448424

PRIMCOORD
 96 1
Ni 2.9972911151103934 3.3815801188289276 7.082638043176759 -0.16791669058105274 -0.157377995833258 -0.005219339417410366
Ni 8.587744926955772 2.197464884126009 13.03436255588774 1.3822885657553807 -0.5386211725887304 0.05338741448220483
Ni 7.815061581058528 5.497240635914796 10.88483391287562 0.7481974476920985 -1.4794582675298584 1.6197970484926425
Ni 2.5213742558934413 5.629967694524564 12.323177729946034 0.7808365738833585 1.273642230799871 0.40654283186252566
Ni 6.191501020780391 6.981797001767941 2.811746311373934 0.5040699169764221 0.6543483256504214 0.5648276557807691
Ni 0.8000883128592973 2.7533258788933352 1.555001407993212 0.5901977591144416 0.3980903302197983 0.19342409082353784
Ni 8.784920301169137 0.6496423202169513 1.3719537130299622 -2.380680576292842 -0.8854601608327201 0.5748984097532098
Ni 8.804704733614491 4.508898729031477 8.221732926716745 0.12453189583751455 0.40297002690960276 0.4755401849678455
Ni 7.096095855816522 2.825545013725121 1.3492075721240546 -0.2759318197104667 -0.4457737523386903 -0.38640235235890874
Ni 0.7161698797862043 6.882682401800856 6.95118657187426 -0.409182840588534 -0.7819534610966211 -0.22825842489390363
Ni 1.8597274861612456 8.091228065822584 8.586364873446614 0.09835266633898546 -0.44833277131511823 -0.2663380053744446
Ni 7.360560293228695 1.2258009147371522 11.193175987821299 -0.33567422987642187 0.5881503896671096 -1.3833648295386949
Ni 4.176632061112975 8.814610695390048 3.1432771340282586 -0.5558581052923073 -0.6180541192050776 0.18518859028762302
Ni 4.497517411246796 3.3804163286850835 1.4252534688776464 -1.20912913871815 -0.7801608879725725 -1.856918837314447
Ni 8.414890017638177 4.768717169570194 0.11281066885676726 -0.7048486483928185 0.2963196393381993 -0.04872163357541932
Ni 1.0119384393274051 1.9025861200412435 11.24929174926901 0.9692341580265824 0.420443758214334 1.2468701049123496
Ni 3.136570220592986 1.7161689318819975 2.8001982142143076 -1.394845833595101 1.310322359829724 -0.7523364095611365
Ni 6.216994439521925 4.986006869498034 1.3321575883316399 -0.17973013827621304 1.903571761286296 -2.0856184635108272
Ni 0.04491496859085334 0.6433202822623202 9.709163945862205 0.02397502275835871 -0.8292550743960622 -0.9671150548010506
Ni 3.1172714643493946 1.0786685167090906 12.106975761436102 0.4309834814033932 0.19009399800904037 -1.0410203867309489
Ni 1.3161183608610048 0.24233043179452401 2.8408236539363934 -0.22282851212758398 -0.6928436535121422 0.022131027571084465
Ni 1.3400081317665327 3.1423616802064473 4.476081679715453 -1.870207069782921 0.26605672668859986 0.10526199186430904
Ni 7.049874143331871 7.694119043117922 11.058693163923651 -1.3655370573286547 -0.47822853043328606 -0.061482789895829594
Ni 1.3788897190132359 5.446354599152849 1.124146136597834 0.2625062903331801 -0.5766837837884068 -0.4549631321474422
P 1.222749401997781 8.324819991466164 10.891740595012749 1.1756258647543818 0.09663954030262066 0.652005793560174
Ni 1.291697095244115 3.9387057044612184 12.634671201982012 -0.8802359363193033 -2.2872315179030607 0.8434272521313863
P 2.9474863951750097 8.262726747256016 6.210455221831789 -1.306293441175989 0.21271456362203364 -1.352639118320064
Ni 8.926197093670298 7.382159138654215 9.671436068687234 0.02134144179025357 -1.016608790655804 -1.0077819363927933
P 6.513513506250376 1.3510870473878533 13.120507768527402 -0.8338231533827187 0.14153228705025303 1.262753094691193
P 2.9164855915795362 7.894565858916741 1.4366137101479124 0.5146597766771265 0.10356223556438292 0.07481601666962599
P 4.925379817595091 5.387276212874391 3.537791912719359 -1.7033751276256146 -0.34646103607928075 -0.07874234830722568
Ni 7.480815553525297 7.643920283999978 0.7161121484641081 1.7321066912323526 0.45802685867443055 0.651724000653697
Ni 5.197917476398814 2.355667034073471 7.83817610278162 -0.4389731844770891 -0.7884467821304486 -0.43675226556637037
Ni 1.0227332801892048 7.695621890232808 4.615512902649918 0.40768877254151076 1.6643306121286434 -0.013994771617195253
Ni 5.991054204981573 7.380408871587488 6.931686214188428 -1.1063621453615529 0.5502685270196717 1.2024185594671937
Ni 6.74254190833778 6.169737228720312 9.123917708147905 -1.0526124624439226 0.6636572617561732 -0.9423388762976351
Ni 2.7964594238309344 6.593622588435312 3.2407697587554973 -0.07012812427565342 0.38658490068336004 -0.795515773162088
Ni 7.05504247121477 3.5170654517166264 12.00977912428088 -1.0509163056884225 0.9400554795800972 0.22344660532755709
Ni 4.697212803488171 4.904559886832774 6.16733542244707 -0.5133917085979803 -0.1654872552039537 -0.9311221816462093
Ni 6.833537468403715 4.363745690618143 3.3711472441929695 -0.2403043003148442 -0.9288272149644454 1.0094757791554485
Ni 5.182045944673316 0.03154787660010013 11.368604981008232 -0.13456279771095536 -1.2166388168316338 1.6039932486911666
Ni 4.306811610588974 9.039506267911515 7.736486502575007 1.6935941369794512 1.067929295306651 -0.27761126429541866
Ni 1.5528442725612361 0.7371822482888416 0.3631501761294008 0.9783122090684506 -0.3927380647689494 -0.3271322538436818
Ni 3.746341273755871 6.779379990056316 7.583455429621019 -1.0777233985789376 -0.8803233538267871 -1.0104872511390983
Ni 6.656696348750904 0.76281953715052 6.750046980210287 0.18044413362410214 -0.17692146518282434 -0.8294376227205135
Ni 4.870993246699691 6.673300976630005 11.518295884612368 2.4370725819293257 1.2999263613073806 0.12216262427438963
Ni 4.5961463350121186 4.85977687554957 12.726435596639039 2.129993904302409 -2.915576734621501 0.309597330283712
Ni 5.32721731049049 2.130111675013761 3.0138114369318303 1.7583800231065845 -0.6600484613589923 2.6517782078394587
Ni 4.353656454804186 0.8322428265265035 5.552046904358134 0.3185985053410577 0.7754020331313484 0.10487838327264519
Ni 3.773960671342852 5.585487085404721 1.2187622752923744 -0.5280799067377745 1.7072695775840145 1.0289498287196601
Ni 1.4621052961490622 2.8157123615649247 9.029645208275367 -0.7891283815785055 -0.04301095634388721 0.8039824158722025
Ni 0.3148849581165831 6.658098395144669 12.282766720848878 0.4900471203347688 -0.30903785823581614 0.1466485252308958
Ni 3.0326171860121236 6.728246533342527 10.34647558877556 -2.8438704672254507 1.1986218114289229 -2.048598177532736
Ni 2.1692956644238253 1.000804541494564 4.794858462037475 -0.0071551229875425155 -0.7852213332146154 1.707342082693163
Ni 8.949637843181744 0.8988876814803329 5.184598035658045 -0.16574513685103068 -0.5751141253084419 0.12527263065828104
Ni 4.616434771063074 7.06871471447946 4.925827006248789 -0.3229950917468567 0.7454695072379742 0.3657229696326863
P 1.1520331142808806 4.66983166215111 6.456002113000245 -1.5012992746643499 -2.082975883681658 0.5103495793375469
Ni 2.499628791237201 1.0822148693521436 7.486620758691639 -1.6515100633252076 0.5975891664825064 -1.1974013087582605
P 4.890154547414481 1.0618256325800688 9.624386873919203 0.41315750896556586 0.16101507836521303 -0.7650325169715663
Ni 7.974867378841997 1.8868245527387857 3.3713213545294503 -0.19032359752134317 -0.03986418318478941 -0.9138083729581101
P 7.976663464418323 8.269966071772842 3.36579564227167 0.8340859201258023 0.5157725501253311 0.13404137798984656
P 8.591896083925548 3.131126981652486 10.498796474830744 -0.2300499695766877 0.9234669790937967 -1.0228090059292452
P 8.990700391485415 4.023634893856091 3.0182906544303427 0.6742694900543807 -0.7112787202888782 0.39466999168433964
Ni 7.867569593060321 7.773339246216614 5.7599328133756345 1.3283956723916672 1.2491175061856292 -1.4861642187951245
Ni 8.190012772520548 3.4167595704999374 5.103374647319634 -0.44906862103987827 -0.0897798370683099 1.5383923228619054
Ni 4.191458930819589 0.49624011733520274 0.9617763350171404 -0.514282595843366 1.739515582101914 -1.0998616252388735
Ni 2.4576223816357667 5.774891640389898 5.3844501272022525 1.0123664704396824 0.44193175288478087 -0.11266111254185758
Ni 8.561005244753114 8.75000659685381 12.21730306707254 2.067825915414097 1.4790083244766337 1.5434293710651807
Ni 6.75061512972933 5.712770905073989 5.422473075579049 -0.12520809596893276 -0.474287543507667 -1.2099459781924906
Ni 6.673511741774166 3.917592535237461 7.084073078897437 0.8244941626723091 0.5042779192221702 -0.17170829641300106
Ni 2.5895338707746522 4.188224144041817 2.7344129145005778 0.1402793884797584 0.09410057593085083 0.29976954556001273
Ni 2.74648059355907 0.6623093053810141 9.747643246594617 -0.42880498569483566 -0.5772440271672511 1.4362920165550297
Ni 4.866356413528154 7.699269043596982 9.31734604464617 1.2500929827250211 -0.5020312892798386 1.957616349736525
Ni 0.6291632791660601 2.4459203342838833 6.948383395456922 -0.046670921693977685 0.37109400413661253 -1.926952087883449
Ni 3.1850187126442044 7.97325456730407 12.564821800466747 -1.122470620887641 0.06809052502033434 0.32568369432261335
Ni 8.995071477301272 5.751844930061013 4.546280218273871 0.3944401350617207 -1.0376794952831743 0.7163926444766759
Ni 0.8208092756408774 7.678540749853865 1.1343352567627196 -0.20702188411263053 0.2542499638616589 -0.28588018917243024
Ni 5.174485890589287 7.64171183183725 0.6499538860822326 -0.36190436721754443 -1.1989007761219224 -0.6447804794563283
Ni 6.471598733668142 0.3496777015665672 1.9189222514540878 -0.1992378692918375 0.02738584821212058 -0.5272599819396403
Ni 3.52072176878272 3.2500260140649235 4.7238150301620285 2.4080407134733495 0.04922531268471522 -0.04233578465373354
Ni 4.700136024400662 4.821600893350709 8.504819839170812 -1.1217283434049778 0.2989056548978207 0.5022973984570317
Ni 2.091385870699699 5.144841314877978 8.395700309447433 0.28041428096185256 0.7490898775993808 0.2334001169958432
Ni 8.571919213739873 5.921831600677638 2.187779767566725 -1.088250009141874 1.2352111805171824 0.3357655040386475
Ni 1.0031871039937728 5.023779648812413 10.557875777479392 -0.380040671806939 -0.6332603946318708 -0.7838954153143403
Ni 7.95941737740482 2.1396877435201964 8.32796955581608 -0.5642918378819571 0.30796982198261796 0.8344744138134725
Ni 6.106416048452878 9.191926121947436 4.3488959116567285 2.1138049532473726 -0.4678988663725038 0.23039295473840318
Ni 6.722143507863786 9.221891427225946 9.231174257270942 0.7469250087375781 -0.25386301283588536 -1.5313726970109627
Ni 6.376122123363311 3.765740830720582 9.543150656398105 1.2011489487261506 -1.162885791479894 1.2030633921400442
P 7.7447759873318684 6.174713118862889 7.293689094837441 0.58492005565527 -0.06136889002578463 -0.4145402482457054
Ni 8.968313467694774 -0.02562537604918233 7.403385937781781 0.07606762968853996 0.4035778356969308 0.5431859091412774
P 3.9556127345036813 4.870315132757608 10.630220455027484 0.018899665117980354 -1.722910626555381 -0.49539964289593386
Ni 4.997122439927035 2.406626380450779 11.549022693520431 0.6553507987730067 0.7042256700968388 0.8089454163044326
P 6.6380940338532355 6.283266331807609 12.823029262207923 0.021434772835008244 -1.5976482803097454 -0.8477541616415141
P 2.8044226807994432 2.534899879927411 0.14614913281204198 0.1325596512379975 1.099394712904784 1.1939861124291242
P 5.700592345222264 2.814044567815479 5.397821801043966 0.2611775442194276 -0.5406454021076108 0.1477021633063908
Ni 3.7157070182371976 2.790979530082754 9.645135327806544 -0.8729807974187868 2.364204690125006 -0.15863783638228807
