# total energy = -381159.17972513754 ev
CRYSTAL
PRIMVEC
9.32678265340713 0.00000000000000 0.00000000000000
0.00000000000000 9.32678265340713 0.00000000000000
0.00000000000000 0.00000000000000 13.65068917890033
PRIMCOORD
 96 1
Ni 5.331701960795489 4.671319112164541 7.197885785170367 -1.6289812860950719 -1.1762398441892967 -1.0098331624948673
Ni 5.315408071429508 2.832935628964924 8.915866099863292 0.16042115353495598 2.0258007200222465 1.5196577225668797
Ni 0.10374833265046363 8.005634598397368 1.8256291078659148 0.3672712879564127 1.6353779336500351 -0.6101394923436911
Ni 4.542031250463783 6.369810181740607 9.887016415171711 -1.4740049577247711 -1.6568443310539274 -0.15207226734962842
Ni 8.185865347171388 6.7919870003731875 5.486744800226768 0.5038236052935711 -1.1447939669751899 0.4169910237790431
Ni 4.282308332790935 6.591228002890225 5.596577925906635 -2.6049054545473203 -2.305899526626209 -0.8153667464497442
Ni 6.411398305772036 3.2143730607912055 5.789830728677667 -1.1145511089302484 -1.7489422747324523 -0.6733737177129886
Ni 0.5117773546148953 6.689560272830429 12.848861238460026 -0.8760072429499365 -0.0031683704256526076 -1.7781641477120471
Ni 1.5262160664398148 6.955774631258127 5.004042757981368 1.0037414477748325 -0.581298913962915 0.2805981148378845
Ni 1.8648808728325603 6.514552522364909 8.977621526113417 2.382586535066303 -0.9033853778525733 -1.6603294613890502
Ni 3.9435036246577826 2.524676134153802 6.701737320315387 0.2892010260155471 -0.33053485176732755 0.4298182574506984
Ni 1.5262253932225085 6.665497173480554 1.0430570118424212 3.5779121922424575 -1.2554154233791992 0.31457858554838725
Ni 5.998408368092799 7.914316069042865 0.9639798847734643 -2.6486232071502447 3.150667094835574 -0.1316566798077539
Ni 8.96560303393425 3.0748257381273225 1.8944430432586696 -1.520224136593311 -2.599866349461516 -2.2549554314781743
Ni 5.89558058889421 7.6620265971769355 4.9045968701875315 2.210169385511736 1.4929922974605514 0.6294106818684774
Ni 4.285404824645259 1.9672796200272384 4.528111027293361 0.6407176222408643 -0.14240671923540638 -0.4113736775922657
Ni 7.6070172328491985 7.386560070317038 13.316929558658932 1.8383619002478664 -0.7296009156368338 -1.0076132720254132
Ni 1.328814710726602 8.967748193953813 13.191793980613433 -0.09582707170365432 0.597544686397816 0.9223148677672245
Ni 8.702196037097371 2.3844479563532754 6.388768732922192 0.4349496651399929 1.3149467459756128 -2.000464555250303
Ni 5.408181578884237 8.902955034580334 3.097000163981712 -0.27445806337841766 1.5703071692926311 0.7234634352805281
Ni 9.278992259226934 3.7724597568371068 11.053549770418416 -1.6067026772025297 -0.05644162792749634 -1.8414999316562157
Ni 4.821172529705017 1.697166666433553 11.478004189384809 -0.29568843351210367 -0.3824785918244703 -0.6274908391379451
Ni 5.714920808116278 0.7174851429951613 5.994249555689657 -0.6236087304747195 -0.2905814513028415 0.7421869798319605
Ni 5.74305971150332 6.710741396327934 11.677932170529758 0.08023718768519729 0.08286099846128955 2.246230392900351
P 0.2265139752134829 8.580947862078625 6.70770273052631 -1.438078419031491 -0.5085030130471113 -1.5628201168869666
Ni 8.768910513705762 0.9335363333827957 8.01545290253908 0.04826423432302656 -2.076429083702075 1.214754198214411
P 1.8919565229925157 1.8622693736783105 1.269210040565656 0.438407027560974 0.6889589737457553 -0.8342769530906857
Ni 6.675775288009065 3.8604206444218607 2.213295897853352 -0.4764580687964246 -1.2509445320920394 0.1582799388222371
P 3.303313260558803 8.64670168006956 4.858294057504411 0.4923945375210229 -0.37496377150466387 -1.0798414733632047
P 6.598251070258618 1.799155035189706 7.697418939464907 2.65018026722472 0.3294315914008198 -2.377498579020434
P 3.6327072449539615 4.296270526483478 10.911842364882657 -0.49986487775613914 0.04309297453473223 -0.9584121277104138
Ni 5.711796335913871 8.575361119245068 10.501857516587348 1.2942241687162808 0.7849307985573901 -1.6767498117286028
Ni 5.643692168684111 2.2693741114777914 0.16808354699367972 -0.5664641629429278 -0.37456910716940656 -0.02903392533850484
Ni 2.8201952438052613 8.066725025041428 2.55995468969291 -0.6075113106922247 1.105740452617154 0.6612378536814032
Ni 4.019349021523356 5.957398504588382 1.1130843616636326 -0.18047035887634724 -0.11609919168912908 -1.6151999160402633
Ni 7.72725811533702 8.971189776767806 5.382412610979676 0.6378765532476435 1.8907620111161374 0.7073534170925431
Ni 4.692323026790866 6.792966312556032 3.063200836177833 0.199746690607456 -1.154439974705386 1.8374545579422483
Ni 2.9809143631839565 1.0803025858516413 8.45556419161347 -1.0024834069980153 0.667022064463348 0.3077870165478506
Ni 7.068274284110135 1.621638380179568 4.182230089130462 -0.4782192744619055 -0.12584907198704132 -1.4788841401939432
Ni 1.1301822196978146 4.099027726076059 2.8762408136902735 0.7040400364485939 0.7377037472496263 2.951570893327923
Ni 2.434840563247605 1.205999636215306 3.3373886611304173 -3.512092979754803 -0.6438178584327428 1.7467902613864563
Ni 3.1902446739624755 6.337726049274107 12.272092064000276 -0.13724831496291848 1.4865357432019302 -0.005893482666299528
Ni 3.248080053446417 3.014472127316068 12.978010131098648 0.14328012297929518 -1.7929881000987573 -0.7099764565376869
Ni 1.9324720670141644 0.39995669154299124 6.157170728462345 -0.05145754444934364 0.8144095247427974 -0.3276037941634616
Ni 7.6663542243468354 7.863000110661854 3.038957729921969 -1.8766109164267357 -1.0196609472185665 0.8991345729960192
Ni 0.40681187682289727 1.3197584047309712 10.364982317165225 0.30654954459632366 -1.9778313912318197 -0.6896829963959736
Ni 1.7277678404517458 4.583432838841338 12.156293528109487 0.41423017320445427 0.23620827586859966 -0.7772177461838485
Ni 8.709349679423477 5.790579669327975 1.316623673067602 -0.5997604631022122 0.8295736340777455 2.8122286719504537
Ni 7.854941770414454 2.334493708245552 12.526964121994103 -1.0003661035446965 0.6688498617007063 1.9580441813025633
Ni 7.587057917884575 1.263340696216479 10.638500479120397 -4.246010263378803 2.093243584156253 -1.4174342604185781
Ni 8.170690671728657 0.44158678609654306 0.674485876742167 -0.011060371579219661 0.24662150078212366 0.7611293252624183
Ni 2.6201917157204933 5.670497342145947 2.9870579149443297 0.48696153943090975 0.8253611386582947 0.9630254581127092
Ni 1.1714065992041884 8.110719459007846 10.984723710208158 1.07419738770355 1.8538659094207361 0.08919388265785284
Ni 3.9521961861283574 8.668013378524778 11.940667639012688 0.1397055182541594 -1.5695319816895035 -0.15059953945884386
Ni 5.397651641222994 6.800614274364906 7.798311411254544 0.6659128905595693 0.9851778258400324 0.7340347830384714
Ni 6.434127675196705 6.093177807043991 1.8789214114997312 0.9046943264719838 -2.1893010267031587 0.3898206340118383
P 6.312366527129802 1.1166117508784088 1.9376605562266975 1.0132750982968808 0.32505557382031114 -0.1987727567299609
Ni 3.333746552488508 8.299969206646722 9.755642152182359 0.07679422344191936 0.6907091236676427 -1.405981024276314
P 7.402443581244493 6.760966121133777 9.587684516755047 -0.7499974770153148 -0.23758355894957148 0.12244621695307945
Ni 1.978966078742507 2.7376252366174954 10.244856154104536 1.9954354774668281 1.2720257782423707 1.4473629296572106
P 3.3927571065918625 5.84138265466083 7.387234396705795 -0.5049363787417757 -0.2461471322488664 0.8902884354592989
P 8.721017484573357 0.16814323840291973 12.17954053397366 0.39074263160547545 -0.291194402296492 0.930073942887353
P 2.581812004935713 0.6980070900175345 10.925383920675715 0.26199541213503263 0.17999856144625132 -0.20297908150182462
Ni 0.5172969446130563 6.103987548186046 10.584430321809922 -2.3192049854858636 -2.1204430273891806 0.13806695420947188
Ni 7.602400475415793 5.4741405860944345 11.541930890646038 1.061326959498785 0.7097789958149002 -0.07200451536275987
Ni 3.7073401600693465 3.515189783012715 2.824655311289413 -0.3229953488571728 0.5596836496859845 -0.733336471419866
Ni 3.629368256749599 0.7381206497050825 13.539954384466686 -0.7098833826032485 2.3006650177001475 1.2139725828533803
Ni 7.758400242751452 4.609771673168487 6.842053169873236 -0.5132706096390838 1.7339771687821879 -0.11154396821827887
Ni 4.103765731684484 1.2854918051141349 2.1077073909774113 2.0618825533464684 0.5708106128370815 -1.7944438587086773
Ni 3.2714063369634854 3.673260096106385 8.688390533354083 -0.6006683196284622 2.341776443028477 -1.0654587222789715
Ni 0.16058294835136622 4.5396809012249575 8.242108644849505 2.238382357610842 2.877786146136289 0.5995213505082126
Ni 8.307430632801722 3.759523509240876 4.061994802712257 -0.24459598571166263 0.3220178154352518 0.8316392583575226
Ni 9.045990573971679 4.478319997882778 13.360011833277902 -0.44410664904891256 -1.9246177833233176 -1.013529637509848
Ni 2.123130158839796 4.185328446341325 0.8518495725161277 -0.26770274693245505 0.2851595089563218 0.34636050594567447
Ni 8.106466446099496 2.990437008314275 8.855557257608968 -2.0269140076910834 -0.45807005320754013 1.2521989733244305
Ni 9.028549490334367 7.021099417245149 8.0899720309056 -0.20835422977080892 -1.7896757478960728 0.29846496781597626
Ni 3.1891627671700005 4.183836161110325 5.068924521790438 2.3026267694122082 3.069304535296682 0.27236132875038904
Ni 8.244540137097767 8.6196353566923 10.241525560004598 0.7624213046009644 -2.5592575748012183 -0.9526559419529271
Ni 3.75856285062342 8.342713851732176 7.011034886040324 -0.2800422423344145 1.0182604673266142 1.0406231512925301
Ni 6.347416576492914 5.407332841659105 4.653970363675898 -0.1169150027222051 -0.6706439774866515 -0.28765322191245296
Ni 0.5142909225508607 4.729313046954276 5.6854714917607625 0.36914150839593196 0.36432891749863705 -0.05808122041344836
Ni 6.420948931250437 4.873859525142009 9.202325172806043 1.1142178939605458 1.1195439341591493 0.027532915312946132
Ni 6.511605259033683 0.07613919052042575 12.652154728057498 -0.9822945907549664 0.11337613633101119 -0.5456734514498215
Ni 1.2328234632425301 8.707027310532734 8.567813886689287 0.6058442074024468 0.8669759859856037 0.5262726783257066
Ni 6.4102604382834 3.6000355251777565 11.111360900267353 -0.5464812920630975 -1.1861167369833767 0.2609021790708539
Ni 0.28706997720919164 8.600925830608636 4.086988714974967 1.0419583251641864 1.5677653767073838 -0.1370310567457898
Ni 4.7216371047973205 4.683910268801103 12.636743152334345 2.4794793290303105 -0.0056289161510032085 1.2603632543027778
Ni 1.742700019544439 2.7574539766244075 5.15769497411301 -2.6446511098763748 -2.888928535906354 -0.2652468291927948
P 9.222406668623956 5.9361427668293265 3.752956521546207 0.2972722330594558 -0.3649819777016037 -0.3223366322272513
Ni 7.115020118971208 8.285372791731003 7.751229812216496 -0.07267428773627484 1.2512114126001805 -0.06064615292714717
P 9.230558276698293 1.4563304837155482 3.8633222065178856 0.6560897338215603 0.8166520409200709 0.4365782018823513
Ni 5.246259304538048 0.6976228265705519 8.679886372893922 -1.064192196861722 -3.9609474279013464 0.39168545513471903
P 3.6487306576218232 8.076042480952484 0.472735442258859 -0.11709755104665641 -1.9115614643599919 0.03923631979280339
P 6.849729112030192 4.012353934503043 0.024628302381115477 0.4556820125913378 1.1152224239656598 -0.39075085913559154
P 1.0011275275644 2.6841920985650036 8.22791234891135 0.829710673876242 -1.7366706564539511 -0.3243582906429704
Ni 0.7645527518591693 2.221387814518449 12.529913250681869 2.080380097930024 -0.7947758096722699 1.8649021126302399
