# total energy = -381165.5847642097 ev
CRYSTAL
PRIMVEC
9.30445493061998 0.00000000000000 0.00000000000000
0.00000000000000 9.30445493061998 0.00000000000000
0.00000000000000 0.00000000000000 13.61801029967683
PRIMCOORD
 96 1
Ni 0.9846346585974661 -0.16457906305000475 0.5787845611725245 -0.28879684859859295 0.19418565157991075 -1.2788556566800102
Ni 4.017421804895509 8.711817155397254 7.115437833810893 0.93564218100375 0.18132396512589416 0.6679708015298625
Ni 4.212703708949822 1.2118959748985236 9.33234057179168 -0.19041949966925914 -1.0302019559592062 -0.3910365086968104
Ni 2.4016287377016896 4.687463531437497 2.8061138715605565 1.0924293373305443 -0.7819182369833114 3.1861591170945966
Ni 3.3252633885337617 8.949434330246648 10.629974309282604 0.716578535235237 0.09896433178105536 1.663319654365626
Ni 0.24114170244877164 4.957497427924264 2.6825572206882273 -1.5333845852346688 0.46273172034926763 -1.5154778801575772
Ni 1.7978719494331399 6.613039127389859 1.6015870251169126 -1.0687037115788305 0.861120041425459 -0.6680975569157138
Ni 8.862605155068696 8.296801239233801 6.712426525643002 -1.8871107875167952 -1.2295490971353984 -0.536010731549077
Ni 7.833858074748269 0.2850550088321686 0.7362019851168211 0.21806914306572764 0.12461391402835958 -0.8424348063111299
Ni 3.895161264621368 8.314712315339412 2.354104372286299 -0.7301177073722522 0.033124036247478436 -0.24516419951030677
Ni 7.721357907894796 0.6114859991365654 2.983950852710761 -0.401096978256606 -1.2333057359643533 1.2385122198659573
Ni 4.838716753864928 7.664991518779062 9.21987017919459 0.3610250499363847 0.601679534501796 0.22895056586492182
Ni 2.701176365828455 4.370730574704465 0.6780965933391968 -0.04941017500201168 -1.3858850248573875 -1.4811737075590683
Ni 4.574367879456356 7.361917502161893 4.519463220239943 1.5054451785119234 -0.5885424828992057 -0.26170462036749126
Ni 9.170582619533999 2.1999825863454348 13.207944802196746 -0.94281273061026 -1.1419847796611688 -0.49286093563448025
Ni 1.909367235133675 9.053411616210386 8.762467817732897 0.2116562975608484 0.7084906160207798 -1.1274259080103874
Ni 1.9127540567972814 3.788439164397289 6.442871808594904 -3.0110960452767492 -0.923513516061016 -1.29856161974937
Ni 6.746632493999914 1.5383986095073428 8.41459564105044 0.08531974441442725 -0.3944018256246175 -0.668075702538843
Ni 7.2503012585448 6.473797956522088 8.261760661252643 -0.8246522855167281 -1.0404411171887114 -0.28007026735887247
Ni 0.4991663387124161 4.013141755540402 11.507409549108345 -0.5391171383885424 0.2050151380952469 -0.9628920178586383
Ni 6.822100929476592 1.9687482677082235 10.753080624527133 -0.3945902874863398 1.3256615612899556 0.7452612478819101
Ni 5.740858113370268 0.5751167449643003 13.023407682914774 -0.6007909612492556 0.30552238888338995 -1.8932297559303395
Ni 8.841549173132593 3.3967495172191673 7.022712425423526 -0.45834233303232036 -0.10463258581042625 0.16957505212008217
Ni 7.501512242324217 4.399704647947515 9.995919423807456 1.05943719867524 0.18628645133749208 2.8247669136267803
P 4.937437022685981 7.989596044543442 0.5128029481359916 -1.3334486614345422 -0.027750687750707048 -1.9032884257179221
Ni 9.487473752004068 6.8592070964943455 4.615648025040851 -0.46065504032589694 2.2270317084847124 -0.45704418304618705
P 6.9317632375185285 4.197732840662068 8.151550320804152 -1.0926548230777893 -0.959943733863592 -4.353418612162154
Ni 3.9053124251570672 2.9666324703962816 4.4559631053838595 1.0011127519027339 0.8162491490546974 0.9157960928121002
P 4.38983262106541 5.153077074542411 3.8624486613111833 -1.8219664896089784 -0.30874552380637793 0.7778360964941379
P 4.0088058794545764 1.5853488900418418 11.698375116432583 -0.603656969943141 -0.4642214175209166 -0.848409535837326
P 1.719658699696121 1.9869477819225476 1.3773933876688524 0.43800824946065847 0.25459860545032925 -0.7720968800175154
Ni 6.168062865740657 3.1805605025106694 5.970053825890731 0.9244136592777822 -2.197971815004279 0.7585201697743452
Ni 5.793977247649193 5.521058970075288 0.3759958227275589 3.0189538507582716 0.20250034209319318 0.46662539897671895
Ni 9.157742471468676 8.093359328039424 2.492600256298975 -0.4888919236844032 -0.43628021102595826 0.2184452954582238
Ni 0.4922391718757268 4.291512443814508 0.3970108650611338 -1.533786448658778 0.6213525874506912 0.1707608448980672
Ni 6.138372349453382 7.821752978637412 6.267853146900487 -0.2915291599280915 -0.391853348171151 2.612465526282765
Ni 3.923149065621719 3.8820419829024533 6.862606013949607 3.833230192357315 -0.051135128112918385 0.33651652327205916
Ni 1.6812126911411167 0.18910560674579133 2.673406289077907 -0.8102870179339916 -0.31571861269010143 1.4674730701435243
Ni 3.1691346316235576 1.844664054230602 6.635824807532732 -0.5718377685500151 -1.9259732689099478 -0.07308360735955155
Ni 4.47399141762398 3.151958607472411 13.156986162396638 1.2258608496505339 -1.116578166662606 0.9046639874546807
Ni 4.714948891861379 5.605543422563051 8.30235599894032 1.4956017100589405 -1.5065854627639537 1.2204517628198206
Ni 3.4927901029657185 6.047728347676314 6.563404511553299 -1.2876074347307114 1.786727463901026 0.46983850659737797
Ni 4.082264552625379 5.445692883604926 12.750666189988147 -1.3906348808375468 0.20566639852600063 -1.8959903493946124
Ni 6.997089816914627 7.493854675760624 4.305334211894968 1.4755054535296974 0.1709019984616218 -1.2654578952168658
Ni 5.4302381836509435 1.3109884219243686 1.5379501347705684 1.245221770675649 -0.1469154057390373 -0.08081028657984793
Ni 0.377598049899188 5.30851730177375 9.239139705747691 -0.26597162317396134 -1.675215634472263 0.866442739189953
Ni 5.084186888835429 3.1202862422446196 8.991209472843515 0.6261219838148765 2.6060814771332925 -0.6791409592140691
Ni 8.627276876178774 -0.2609667049725245 11.541304748664256 -0.34113191055688347 0.1137234923681009 0.09825830685296626
Ni 8.276917618642793 2.1453747392473423 4.690001786794177 1.2490177473829716 1.2387104519196925 -0.0008397222924759732
Ni 8.002194276775647 5.603338266699659 5.8677559940761155 -0.9293314082943738 -0.48571635416989895 0.23136457462305315
Ni 8.364109667570416 6.311314256765061 1.1619729209532492 -0.311090884110103 -0.5520896393888105 -0.47549159111809713
Ni 2.5211258548052506 6.801947479687111 4.765513953209919 -2.0437236230492544 -1.1880134397854571 -2.3448057167731036
Ni 6.562981158845347 7.614114758184008 1.694679959481512 0.3967623554369941 0.8820372511941004 1.258679953063084
Ni 2.3686165309366474 4.441369997973969 8.50738897196018 0.7571407729283154 0.5494318900509892 1.194989613992974
Ni 5.45977052420118 0.10799867146651523 3.766728148820753 0.06190959302060306 0.9777915606782903 0.7881814442842039
Ni 7.06590556698065 0.6852684673455368 5.947652419744307 -0.6190691907331531 -0.1020540264499726 0.28759074410563373
P 1.68245018367205 5.499146978268164 12.655503014359391 0.28055440608414267 0.8999601542211081 -0.5968620585084946
Ni 2.0273663349629487 8.347129036976787 6.3071681915636795 -1.7590176566905835 -2.69269757176164 1.6163224596804806
P -0.37108400086981763 1.9032542081199681 11.027197315920468 0.8108254069359649 0.08126485761876327 -0.6537963098016935
Ni 7.045333416710777 7.881459667141153 12.74795580221175 0.9242007719360277 -1.420329579688502 0.9229632999845009
P 6.830093456424499 8.584420555896987 8.455177952500948 0.5603392809921124 0.7367606666100667 -1.317154295149893
P 2.5448522153607347 6.898360243638454 8.789621939554515 -0.3996484187355375 0.011863584206805373 -1.5147708267882234
P 1.6321689082046635 2.0591503536521776 8.080886705951336 -0.7501831106635597 0.7732844725677134 1.6809692491265888
Ni 2.95198725803772 0.060318921650624184 4.664700181986912 1.453436646655116 1.1098984406495853 -0.9454645664108104
Ni -0.003285403102800549 7.350873113934693 8.693751625336656 0.8155153562124664 1.8905092716753829 1.0663884331820925
Ni 6.464242281114055 -0.259837144120981 10.505083399546095 0.059221247555162525 -0.2263884615647004 -0.33099919299825575
Ni 3.5400195171538114 1.4627068671077892 2.7483192485839334 -0.16359209506376987 0.8053723542411936 -0.3051601204479648
Ni 4.060948045945922 5.870543608830007 1.6455049837278695 0.05276726439970267 2.947640447925265 1.607493548534941
Ni 3.3143771760435987 0.758226560830894 0.2970465905905638 0.059352116706071975 -0.36972771991670517 -0.3354441161434868
Ni 2.55471493778772 2.863334409656288 10.319796341181467 0.27980698639515683 -0.364432790066353 -1.652889203060921
Ni 0.0936726019185628 7.284243910821822 13.002040932177671 1.324392721879861 -0.40191253217936584 -0.43956453820418495
Ni 7.518027650161858 4.662118195691169 12.579746140773999 0.15155033340788737 -0.42260914129676896 0.14464203632382833
Ni 0.8898027215709766 5.941759908316938 6.994251027657577 0.5341047727756156 0.3894511664875615 -0.5087428969720593
Ni 8.372893073203507 6.573532410951199 10.858742947313067 -0.7480552656872794 -0.021662829685414307 0.39456226246188175
Ni 0.7016591954845722 4.74851936593361 4.82002689486579 0.288731028357664 -1.8386213245568397 0.8378248183429442
Ni 1.4889361260904985 7.668601647365543 10.689825216840703 -1.7168014283338497 -1.0399358954175189 0.6220519275105608
Ni 4.466650202534459 3.6511612335597943 2.024602911792369 1.496828126266874 -1.085290155182602 0.6723434766762615
Ni 6.229174526967488 5.61658781079025 3.056507924180455 1.0640029636690513 -0.1624243000079138 -0.24173254812093853
Ni 5.38075709132386 4.068428827862239 11.149269906201189 -0.24669400589127188 0.3570439538014496 0.05748369603876551
Ni 2.177400673769686 2.6590644019562504 12.513508655221672 0.26704994383980457 0.1558340483849058 2.075498087247374
Ni 7.36388074219217 4.042934620833995 1.5613052475667728 -0.14020148405397145 -0.4131770493495916 -0.7409147979877562
Ni 3.285924152287258 5.908729092641657 10.46352132897147 0.44780698071863523 -0.6904463569245594 0.8938823234581443
Ni 5.577825450761173 5.269354850174522 5.810001380256508 0.06064718136841168 2.0428828723155137 -0.6947938352599776
Ni 8.920897566394228 0.40535323952154434 9.131284322890021 -0.2953621605209365 0.63211548239415 0.012810264390790839
Ni 1.4031397454308443 0.573245619039709 11.698892444137243 0.8292928696125331 0.32430172637342214 0.07358805779979584
Ni 0.7744004951656382 0.8372539503908953 6.361925840389201 0.17243848971080625 4.124722071289567 1.2791521048745067
Ni 6.303349643182515 2.467197232930903 3.325953779103651 0.07983686692298508 1.259957791334243 0.8562686268704285
Ni 1.6278609454841972 2.4570646813054435 4.234806442086901 -0.5868648380864667 -0.3586226111424791 -0.10427391691942688
P 4.852533869717827 0.9834995150728508 5.843066622415733 2.2030836823095474 -0.36187917040656387 -1.4670773773670025
Ni 2.8328902325043104 7.3997308077687505 12.88864381585065 -0.7079260017665615 1.1491884964984593 0.35213931741098065
P 6.776453272658865 2.4942638928743945 13.572254229293838 0.42990721762007894 0.32915699758319444 0.37422612200769095
Ni 5.034342922758673 7.768940891377441 11.784359447085658 -1.701853548774766 -0.8518193328498234 0.44494174335569825
P 7.893741547899286 4.283343132219326 3.823746780240385 -0.5037166474020616 -0.7933285357027821 1.1178395498735327
P 6.096418561318215 6.107453645090295 10.943092485201594 0.5476709414958245 -0.4211227865592295 0.07002348037698908
P 9.459095163888684 -0.18162017260191413 4.733266572655725 -0.8113596821728801 -0.5541835458033617 -2.95308861552403
Ni 8.96583808462285 2.2896496203349246 1.9387823395494035 0.5211664674473927 0.23501836932555653 0.9528482604693913
