# total energy = -340885.0961297219 ev
CRYSTAL
PRIMVEC
9.12529452939070 0.00000000000000 0.00000000000000

0.00000000000000 9.12529452939070 0.00000000000000

0.00000000000000 0.00000000000000 13.35579094267312

PRIMCOORD
 96 1
Ni 6.984445458192216 1.8863534490486211 11.053078348200561 -1.919375818198088 0.40049482589623286 1.183074607722943
Ni 4.969169852145578 0.5019276842807817 5.982913389543712 -0.013508061788763832 -0.2594430780268241 -0.06023554775228981
Ni 2.872295865020497 1.4846671219750314 4.984193736579436 -0.24235886885102775 -0.3463211680673068 -1.1994574199563408
Ni 3.6162081019112304 4.730963171350264 4.651861470775405 -0.8825892670428284 -0.4926660460148548 -0.547943478430921
Ni 3.9691014806928897 3.100473847447974 2.6798260714767217 -0.6862289764091021 -1.8931870756178621 0.4026797493626936
Ni 5.043175988417798 5.072577686453443 2.31792420222306 -1.1010106512416522 0.7460510907730571 0.592311977243967
Ni 5.396343126026605 4.376180856661286 11.457932977433671 0.010618656056110745 0.5157082725462989 0.7026989490396672
Ni 5.655054342975271 7.967449529419375 12.632548152016787 0.7084525636939928 0.05779891328633916 -2.5189115668840043
Ni 1.8816082960447302 6.609268110880747 0.17022506377918983 0.8858409412109067 0.9252690652995419 -1.1514700934437847
Ni 2.9319570387501845 1.8595433345766383 0.07583940788468381 0.05855121807133142 -1.6181926801200002 2.299534760750446
Ni 8.029939544362922 9.066755475713048 6.891067234781613 0.7680036837847483 -0.6663782602317619 -0.38113030532669195
Ni 9.079156750582833 2.1161192326735536 1.2107212262956044 -0.3481073134334521 1.4227567010727562 -0.23734881723094609
Ni 7.121881514714521 0.7813058676202399 4.655427635763714 -0.8781068057914427 -0.9846805744886395 0.8016301135899421
Ni 0.9202220468679891 7.714122236071277 2.1330001144848953 0.7230854831158192 -1.74905334638902 0.5684302855303629
Ni 7.510098907492451 3.988401478006791 3.9214875204165414 -0.0337999792685805 -0.43865102525098 0.17477202293998934
Ni 7.838609500069503 3.7812846746811988 12.901640303690888 0.11940357347201372 0.060454091520999106 -0.5556896980352429
Ni 8.554388454823707 7.272750004355532 9.310522198287732 0.3650259435656617 0.5798053601365241 -0.8253156301323398
Ni 7.14923002154656 0.8635932084136722 0.2420511672578907 0.8599733294155254 -0.44742028680317786 -1.472590850986064
Ni 1.8795733554296001 6.739221426127685 9.115647889712175 1.3292443935452074 -0.1397937070925915 -0.12047032417363124
Ni 0.17489173925263166 5.086192625456915 0.9044663138362241 -0.18749924069867063 -0.30172589795543525 2.871232147067855
Ni 6.790423452098514 2.122808073350192 6.720139523346077 -0.9077343988498884 -0.15938499896095776 1.0023476527510995
Ni 3.6690253049622292 4.298177841512713 0.5585282343229601 -0.6842952497214989 0.5931406437928495 -0.9352932823047634
Ni 5.877346510619075 5.81276680329497 4.5972100835825165 0.29232645901840626 0.14456541744962198 1.2404392616853412
Ni 5.210990149459242 2.7259078948504674 9.759824310696517 -0.12401381855051545 0.4535274281421803 -0.8153778021933378
P 0.31287166331153626 5.695807907043302 12.263153503664096 -0.0632419386787814 1.1550896924742429 0.2184368108177915
P 4.553202439589126 5.955139644000169 12.655826777618568 -0.39516081527782915 1.0315435575887655 0.11324475295946948
P 2.5822575129519136 8.822060710714336 1.039611921504728 1.3010555898158174 -0.4858076283321247 -0.7068227414000537
P 6.631123190581358 7.829310825240725 5.700091320158736 0.35630219053941864 -0.35224910351596755 -0.5816293007191402
P 5.105091109824334 1.4684879752906117 12.332015711574213 -0.23760669887802305 -1.115946189505562 -0.5674632936314034
P 4.072436312646849 6.431324873234844 8.110397263661584 -1.3990680992065647 -0.29506571232644024 -0.23738172735141053
P 4.644473632560116 1.0030523426685973 3.7104523157450435 0.4897301033149824 0.7849017450916677 -0.6807813230309695
P 0.2797714835211268 5.62651954789226 3.334887143428448 0.16256056847546196 0.2212241437549416 -1.1357853357186762
Ni 0.6772473998331874 9.05719216735136 4.23968926809264 -0.04831617060688453 -0.07272828090266184 2.4060601927082113
Ni 1.778054457029053 6.728371451278404 4.699020991398688 1.0957036372064421 -0.023058167371044158 -0.5649122450747754
Ni 5.921713691205454 5.585893737943564 9.109731048928094 0.08480372400995717 0.8667373876122363 -0.7594287976315437
Ni 8.983049151665568 2.546659740128495 10.1477296184115 0.881972716504752 0.7968925989049567 -0.36562295371971226
Ni 2.281177554855046 5.309771459588314 6.792193759180735 0.21572995340958975 -0.07708141566503499 0.9096506420359947
Ni 0.9678104563204702 0.10048865268104859 9.082484745391524 -0.778542378532543 -0.21244999710673734 -0.5078293840188545
Ni 1.6758329109721606 1.0764653348153301 11.421738410367071 -0.9525788088580885 2.1401500188998046 -1.4001875575229885
Ni 4.380707002603459 7.335103139885504 1.1198159576235673 -0.9776588917551678 -0.6966707405677164 1.056869952168696
Ni 5.588603950332324 7.967184895886465 7.547317332572584 0.9310370781315708 -0.45626308190578846 1.9429088683230218
Ni 5.193031570398363 2.7115264311309835 4.957081574868167 0.17797201793452577 1.2689952189461629 -0.3009939048854171
Ni 0.4983259306449439 7.261370762440433 6.904823615845777 0.536170911276025 1.1117203243496723 -0.7518227031495116
Ni 4.827207649681101 5.016667008655677 6.648672956460364 0.4270610064205355 -0.28464554543438075 0.8550308978085855
Ni 1.028484537710604 7.827549643452743 11.234397032185193 0.7933246790480402 -1.488774916945094 0.37033887113814284
Ni 4.911306361380826 0.23023208616050742 10.297982150691427 1.7360420217310166 1.9101892666028137 -0.09316803681425244
Ni 8.581317198120788 6.985932881153051 4.674807023137488 -2.2684161849687707 1.2389536782787502 0.39525826008764187
Ni 7.508766614533667 6.01254687005301 6.914573080209925 -0.9032861332705476 2.289794907754863 -0.0007142524582052216
Ni 2.5528923160932204 5.7002793012200454 2.1901089434161443 -0.7232785729632317 -0.46200152705146236 1.5485533225553074
Ni 2.8346631515819483 5.622641297841002 11.342725225146324 -0.7151328039276458 -0.25911037727775377 0.46112246688061875
Ni 0.8142490923497514 3.4962104826782237 3.6565482901502686 1.4487402696207115 -0.5295968576029332 -1.3643438083515018
Ni 1.5209127906893662 0.9892822736630759 2.4541265189643533 0.4644031945144196 2.550209348556021 -0.7966501438768473
Ni 1.1908508980918118 3.4710794223460795 8.235167411781195 0.49499392281708304 0.38980109362781257 0.48783854271922433
Ni 3.5876276803570266 2.958155758508205 7.191051245040467 0.009555504898919027 0.6953939307378217 -0.4735380669361522
Ni 3.721231113299266 7.312536287234307 6.0509607086783515 0.6588297584605427 -0.45299392423621343 -0.798466885370612
Ni 0.8430503460245206 0.06834297866796027 -0.08688192644239187 -0.9936341841375016 0.3257546567698648 0.8437064739347017
P 0.286956740204326 5.584835203811926 8.069796092007332 0.604154735515166 -0.7661756294370741 -0.5319607298494193
P 8.750792162713593 1.5862590227294846 8.190652401428157 0.8912124899354652 1.7856311455130538 -1.6965236519214202
P 1.8261356323703999 3.6483473882183515 10.524176294151507 0.5366964447621919 -0.5929241569066692 -0.8690030437179614
P 3.9720033242606534 6.661200160390636 3.6437135638041678 -0.43016535637747205 -1.133815870697131 0.2067981981375987
P 7.0470723525493355 4.168379656267824 10.147783457647504 1.4048674794971612 -1.828673983536141 0.1575985964844963
P 6.731273294846169 7.72788317978256 10.07946785486226 -2.9137561364729945 0.6245739226014663 0.5255111175693337
P 1.9889035056980908 8.633258372924914 6.0686446163826595 0.020079287248378326 0.5983988068679953 -0.7642048788639484
P 6.800944916355218 3.957904744662555 1.8299837689506704 1.2904287062295905 0.16310564234565458 0.1869809063013554
Ni 5.676526160317876 3.1003552186228767 0.2837355113382232 -0.8690087001449162 -0.6539238365184931 -0.24247508271391785
Ni 1.6128227542570346 1.5152733588501268 7.015369255306802 -0.3438009727486144 -1.213556321251568 0.4179467028240931
Ni 7.002358410781903 0.7420269511011104 8.896706530112658 -1.4443292850372094 -0.8284305216122377 1.1187633472393828
Ni 3.0182731969498056 1.6582119677980969 9.294962659082088 -0.47593896306816097 1.427421196427961 0.3875755467314035
Ni 6.794164822736198 1.740558623004078 2.4119357210537986 -1.8544089264083998 1.9368078976316063 0.22960722561231425
Ni 4.3596731993842885 7.193916587431278 10.167976821267331 0.21729755500702577 -1.7419619867598775 0.240593806530805
Ni 8.506070021832166 7.383430698171283 0.33918353671811036 -0.5743199115419206 -0.3165547354381516 -0.8642783845487825
Ni 7.973335344203047 3.9600400635143056 7.873652455003236 -0.02461291345267374 -1.3462494127436364 1.727350664604606
Ni 3.4214378216899917 8.87329011256788 12.177341974235853 0.3318360870772543 -0.6774003223738786 1.4567862798536393
Ni 0.06864958855436552 5.137120892600596 10.219302951239799 0.1596865893617766 -1.0223240958730264 0.04642075335638457
Ni 8.915430721360126 2.321173719501302 5.7162649916666135 0.12097965970988196 0.3829691583076436 -0.4669904956256215
Ni 3.590100635095593 3.0755617941775473 11.677755840456607 -0.4536099605536575 -0.31599783449341706 -1.3592684507111237
Ni 1.3899739436646963 3.5640205441626702 12.749170324911065 -0.9297679816111601 0.23620107677974808 -0.42220264988696965
Ni 3.2757798750590226 8.915604101950652 7.869365391770106 0.45021404749823113 -0.5085030130471113 0.0175547210543117
Ni 5.554320219879213 8.139716834049086 3.8398699762201964 -0.048675353718516175 0.5363076939642054 -0.8757797003201627
Ni 2.998389180804655 8.559480369008652 3.1677665047491113 1.5670624371030881 -0.5186236464208811 1.0766839015708296
Ni 3.3512734342920765 4.515898236743154 9.174479574195606 0.6632440854781545 -0.08098846402892504 -0.20569442355045867
Ni 7.172718528915819 5.938294350836357 11.581794246247155 1.2575957188599698 1.129468649472029 -1.298857296612918
Ni 8.262196533314896 9.045648670139974 2.4599895205124302 -1.21292460120484 -0.9363664607642841 -0.9460903729202674
Ni 5.015946110410856 0.6832162547944276 1.1569303543493836 -1.5970432997358945 -0.6328364197205747 0.5177445862500374
Ni 6.550610719517267 5.67374294557521 0.44353766403848227 -0.890634248834492 0.05044273003158409 -0.5786421930663583
Ni 8.047825121069893 8.81807295713222 11.412309243830686 -0.20156420343216902 0.21298581500554933 0.3847355061794471
Ni 0.21826061264934538 4.806675737645036 5.546860291839443 -0.5186426725842745 0.1742950833035708 0.7865508506593164
Ni 7.029697792319705 6.202380366091354 2.665148035694494 2.4298354407509377 1.3272936975767398 -0.2206669856998909
P 8.542562073490933 1.8126849486632173 3.571110897785792 1.7587680025736228 0.014801326678890638 -0.18218374202302814
P 1.9687092295488402 3.2402916057664624 1.6420547218198491 0.08717428112466277 0.1990614916149733 -0.4220283290926345
P 4.949450091296717 1.5050712798917616 8.004605902498687 0.48166455269802855 -1.2742950338925214 -0.14806880261719013
P 8.712091789849168 1.9242142948431262 12.283320403930633 1.4420590009457939 -1.718189309820312 0.7891576921545442
P 6.576681685155951 7.920436013503903 1.1400439973614993 0.6101657175959362 0.4052945612777213 1.9685448237235708
P 1.9806816155894262 3.371148325142988 5.647910150116144 -0.20271862875158633 0.342164722696772 0.4476393447925194
P 6.803627752861264 4.230732791797797 6.0748680670531465 -0.5369679532560236 -1.1206263685900508 -1.4905019269385298
P 2.799412139939583 8.727696042996579 10.099675818952868 -0.7240979835407335 -0.23438819194072535 0.3554825228516007
