# total energy = -381169.4246854463 ev
CRYSTAL
PRIMVEC
9.18676818498342 0.00000000000000 0.00000000000000
0.00000000000000 9.18676818498342 0.00000000000000
0.00000000000000 0.00000000000000 13.44576385148647
PRIMCOORD
 96 1
Ni 1.6163200015713608 7.470542119346408 2.7878047428716783 0.999933386882652 0.6537045214188355 0.07085497513934894
Ni 2.249619055955374 2.16117803824975 1.6686597761817537 -0.5284056655083094 -0.465663806394398 -0.9368901944782381
Ni 8.402879666234396 0.2375082749609234 5.6489952276812465 -0.21354425861218063 0.30918826777075137 0.5812037831459475
Ni 5.181668002764033 4.860186235485482 9.796704409478732 -1.032462726968925 0.11865949621713758 0.2189219779843262
Ni 6.7360508129599586 4.11687563160268 8.301280440399577 1.8757120587615503 0.3575756579352035 -0.710288588461467
Ni 5.402821074253333 2.0466098517111777 11.713559428097978 1.5432293392392324 -0.6111705047113667 0.5506981583579226
Ni 6.864252163544978 6.092324776640151 1.6858436261473055 0.5082147923827313 0.25862546722153523 0.6079882503286432
Ni 4.935554482006407 8.031669922551924 1.5068128056481438 1.078391628290556 -0.36758496254208956 -0.6813297393352717
Ni 8.115912587178554 1.5016323870458583 1.981179851056457 0.13782964138768522 -0.13572750744301787 -0.19676703915384178
Ni 5.603322290772003 7.255241019216668 10.579570481309505 0.4639334539668526 0.23763163857868752 0.3520768396041614
Ni 7.957633757423679 4.040349852285359 2.6668600205078774 -1.5991027533680848 -0.013083058436203275 0.26310201493565016
Ni 7.75332003209148 6.77020721722188 6.5896348570145005 0.6602772895403468 0.32945370288800685 -0.7231356196274643
Ni 3.3223304213269955 9.061405586165272 2.77251612319102 -0.0578953296548874 1.3275353812739008 0.8067599786173396
Ni 9.210286352025594 8.878919622136548 0.7074344366090933 0.4088413980887152 0.28127868584467686 -0.00966966187928012
Ni 0.539802558123969 5.30818817476381 4.913713859227416 0.12299360481611722 -1.6153199865578958 1.3155938926413084
Ni 3.909567019829011 3.2061545503489834 0.3206420966627519 1.1425956737722902 0.3867540792713726 -0.609599303569505
Ni 1.9101863435644533 2.547591883345206 10.851820357668304 -3.218036682529484 1.0434994443990608 0.6000479124356439
Ni 8.364736204562666 2.171467218662163 7.273553004320295 -1.0591309802887308 -0.004647268964024254 -0.13363411524909888
Ni 8.282055290534348 8.110363779170433 2.6926215559654563 -1.9286780694356205 -1.1647156455997811 -0.37639767573771304
Ni 5.57379601769567 5.963645714107413 6.137197546036965 0.9130565823937501 -0.7581954394450748 0.643840227030246
Ni 0.5249310177207422 3.0208666220115235 3.538790891606777 1.6411469749233285 -0.23306433092297926 -0.32278040463288926
Ni 4.065374608931263 1.3461095877585925 10.146226949411576 0.6864439206333856 -0.5165683065537491 -4.129067749852773
Ni 2.7235276816292413 4.234356023668695 9.39901931844757 0.46686451157071857 0.192530632474991 2.109657506737902
Ni 0.1521264510743471 3.3291561901184443 1.0455295555464006 0.34390844486075606 0.45018962201819884 -0.30230876704209875
P 9.086733506162613 3.973249697167266 9.085961817631683 -0.30908285254113865 -0.09123096769253966 -0.2602750870098163
Ni 7.401613797351467 2.1253588289390377 12.804777538059605 1.4038421235564404 0.4850900334398097 -0.0250289179441698
P 4.552686729445943 6.347974162815711 8.064930616911871 0.27086443248988834 0.14167986837171084 0.2379633108864934
Ni 0.4575442354340181 0.47941333719450824 3.447803301749081 1.798058058422497 0.9207637212300206 0.7013200664142696
P 2.3848574710010264 5.182568306050119 3.8567421838563183 0.46586126711718473 1.6661398974232402 -1.8511587949022184
P 0.9189983594247532 1.6423277424173794 13.354776490236912 -0.22048315182385897 0.32682089325085 0.15668431220034307
P 7.05667821079355 8.126615172161111 0.7641269020046658 -0.3369368986389294 0.12530348389621646 -0.45577894318051826
Ni 4.494359937983078 3.016420226190445 2.449764744543723 -1.5248688344541736 -0.05271121435078665 1.4902391601954463
Ni 1.3063951887203238 8.438689688776883 8.22247450520872 0.009682774505402678 0.7403504408438539 -0.6237946212332804
Ni 6.260415074859721 3.6724749054686963 1.1144762510777924 0.7734752484222808 1.0037777003294066 -1.6588269087015945
Ni 9.057409341987237 0.730439022922239 11.805636568667204 -0.9796252714529192 1.861425209825233 -0.8914737140166517
Ni 3.888180223400352 4.226887181101469 7.314603159458533 0.6556112515232451 0.5323955033939928 0.8321105415669863
Ni 5.884281223408453 0.5739506942944869 6.390354561992981 0.04283792110113268 -0.4572053912143997 -0.21084305763093367
Ni 5.541366725860118 8.937448522500372 12.433123154795028 0.9240411064297118 -0.2697622005646451 0.8440389175734561
Ni 3.1064781151037333 1.6209133856840452 6.1393757287832 -0.19213082593341102 -0.44867241404272407 -0.03942143922041599
Ni 2.072755394080577 8.439553244990067 5.080132165629969 0.5226481941992418 1.4664592841670292 0.3204399294251707
Ni 3.6420299555698246 8.030337841159247 11.805394037986055 -1.2822636539202947 0.7375129713950588 1.0727066620906365
Ni 5.874883159513901 1.300589151201891 0.7171540373915334 2.1049984106993365 -0.31729495603828584 1.9042173652900947
Ni 5.442287430549516 4.0510799975725895 4.4325173703203635 -0.1004673986891431 -0.8876178306056713 -0.2675703351196489
Ni 7.907345388158012 8.967085036795412 8.016740505508878 -0.41725199074991365 -0.12546623472632584 -0.8420020896490854
Ni 4.883171529585355 6.298898446955791 3.849589366116046 -0.08826905685073831 -0.9533599099984872 -1.7001928732428913
Ni 1.7273604691113915 0.34288142518272435 10.411512336778722 0.599928099028328 -1.8843810472904579 -0.08578665674851677
Ni 2.9946751458009975 3.7526478317714886 5.154567955176018 0.35921473620052324 -0.7590194780082671 0.00471180365337253
Ni 4.6610079135912645 1.4304073729945754 4.315861950040987 -1.3040167293266705 1.1986439229161099 1.058769997404886
Ni 3.602894322929754 8.135902994836957 9.635543690531556 -0.7547763864611969 -0.41012000769082274 -1.499413884716179
Ni 2.3109039867868084 4.580687998996867 1.7534756951456472 -0.07739071937533769 0.7231063090514256 1.3297534719711421
Ni 7.852610623071265 7.922411688047616 12.081260744995182 -1.266373979273232 -1.3703190520983304 0.9302076402517399
Ni 1.0382793580629397 6.448753010248004 0.6657843855057395 -0.023861637108946003 -0.19336366989924764 -1.4009792001863484
Ni 2.673597596324363 8.276331933929942 0.48952429430334893 -0.19910494325839906 0.18039836798783124 0.4172779588918426
Ni 1.6693368409999634 6.851464182175265 10.468158868333168 -0.8251004287977404 -0.7624467585222611 -1.1268486953506787
Ni 6.670080630333586 6.484443604803562 8.60082512383277 -1.3836080558977526 2.172865763965271 -2.5141385709753927
Ni 6.619002199000537 1.7969134913456577 8.779518789938061 -1.7865361738258263 -0.023717655331913993 -0.8096079895890961
P 2.3334850630847646 1.743216831068378 3.688307381828297 0.9708626947689407 -0.4020629417143011 2.375571280090734
Ni 0.09462646875176473 5.921028296309927 2.7159228748922812 -0.9860933956757663 -1.370915805142065 -0.30190099008071875
P 0.30434109512365776 5.704624783993144 11.975187563034607 2.0066274895279057 1.282003972501005 -0.9858733092451603
Ni 3.3166254382590417 6.257199705980843 5.899745310362215 -1.014993366539568 -1.3134066551820025 -0.9385788950345707
P 1.3666144544376153 6.819062450644389 6.4052931658042525 -1.7127470557588178 0.5499777352521302 1.1468786174183603
P 7.861172691057308 4.187870976448329 5.882629442481532 -0.6084528486698876 -0.6601772736273728 1.0631357305727498
P 3.957724058866393 1.019648592101892 0.7675691840587116 -3.2398928591726266 -1.8698381164792766 0.25026989616798834
Ni 3.65413811609086 8.294797338062933 7.183372931389609 0.08744476117723005 0.5266668284403317 0.6393770490525699
Ni 6.86777988254352 0.43514138243963413 10.67304584800263 0.2518120438441276 0.33804298721891457 -0.6149824222582893
Ni 1.5856361956986293 4.047524718269371 7.487341043723317 -0.7650106625946954 1.2804728805684593 0.9157783522002874
Ni 5.987797727771906 4.126310442570134 11.984088622768166 0.004251576187502355 1.3006035898800632 0.28080328887015515
Ni 3.64963659966043 3.49850507558489 11.579411482440678 1.7226882261319298 2.2567032674072167 -1.6919162350563957
Ni 0.029929572201428535 7.476256289182587 4.769777412025984 -0.4876883902946052 -0.07433547748878165 -0.9041780489571977
Ni 1.8633246388468478 4.1129804418751235 12.982503837470766 1.3221157529202263 1.2384672255606348 -0.22653912820995178
Ni 5.750825041398524 6.410242077847259 12.836617039375088 -1.1394234466918958 0.8075981582479188 0.05344860673744343
Ni 2.1060941759704397 1.9439844638655843 8.768426685982751 0.761194888393031 -0.4854972961805575 -3.5605623881101
Ni 7.5211428387317385 3.0381653065798924 10.4982639078077 -0.7040508350818713 0.8772259458483861 0.4786021117226209
Ni 5.620841457777781 8.882759691254753 8.681216695219325 -0.352217993167716 -0.4825472124132979 -0.21642363704250467
Ni 7.26202085416699 5.511500542359444 4.294994206017062 0.40434942375563265 1.7389638233635016 -0.04207995988918559
Ni 6.094143756748775 0.24392523256634338 3.203480282118579 1.3790312351603475 -1.563764740188423 -0.2566490602214548
Ni 0.9828372118228399 8.061774962026458 12.13439884976436 1.1735620402468174 -1.2570979532879445 1.157158916298446
Ni 3.515767013080358 5.866091422322223 11.376541917073508 0.8862623450190414 -1.400906437966884 -0.505495336569039
Ni 8.96639602917851 1.6544634632430915 9.459968932238777 0.9802320517989828 -0.8166648964358774 0.2333306972104885
Ni 5.667629668349584 3.006149419314483 6.550453290533303 0.8254997211186881 -0.6251418792897943 -0.772382015358102
Ni 4.4707683171803305 8.059505830274793 5.0443662395749636 1.6292206557993876 2.5872322056372736 -0.8176928234797596
Ni 0.06737667684167623 6.339954114154963 8.443361160419483 -0.6995827720081887 -0.6139832915698136 0.1156865296317427
Ni 8.758361662715036 8.306060315907235 9.929494550792322 0.5262168853871066 -0.89938422711298 0.7914302902388047
Ni 0.6521824564712587 3.070420049819162 5.894004498898184 -0.01125551830916126 -1.1862928575499245 -2.565403539797956
Ni 7.598614855176272 2.2640055349963015 4.715415629729188 -0.06297737216348508 0.24918643329582243 0.22507128541517368
Ni 3.2908565533868828 1.3228027567708323 12.103822529079864 -1.734187485020781 -2.2295822428207086 4.019042018051233
Ni 0.002058754759305115 3.513497881328692 12.128375085838986 -1.692238394282505 -0.586017659594823 -1.60380375838818
Ni 7.779493134765556 5.368232891884819 12.959914493081405 -0.49516233007414723 -0.7978220526977615 1.4073928170221761
P 4.402648430789222 1.7021427903327546 7.80084226544449 0.9682214004913519 -0.46886791515399245 1.5965815296081278
Ni 4.580302154731402 5.568807602549294 1.4103526579585954 2.049105199076142 -1.0115552873922966 3.2336641046540953
P 6.463663135077778 2.415578023946659 2.9108063826411392 -1.1354768033393217 0.1850572069160813 0.5464838631662589
Ni 7.514408937622544 5.64609588362932 10.272926263391746 2.219554426271061 -1.5133518349535098 3.1700809805858117
P 6.9308562331789005 7.722544358536496 4.664294939262302 -0.563099617346069 0.6650142900046998 0.234245495715274
P 3.3228816274205175 5.7553908652065315 13.452351911589018 -2.9052444994575577 1.0511783011005575 -2.1406161599029456
P 1.1604266283874414 1.0170946705352397 6.741866955923439 -1.326040284785613 -0.6584199246166338 0.5804129118135359
Ni 2.3913617029045873 6.264383758733081 8.293589278041297 1.2525522428987912 0.016309792903617074 -0.3955433954282285
