# total energy = -340871.2417394823 ev
CRYSTAL
PRIMVEC
9.19639805578207 0.00000000000000 0.00000000000000

0.00000000000000 9.19639805578207 0.00000000000000

0.00000000000000 0.00000000000000 13.45985814079950

PRIMCOORD
 96 1
Ni 6.482182426156704 0.325848620025891 2.540925275994366 0.07216700908255314 0.7293746585586406 -1.8437452760469666
Ni 8.319779123728784 0.6114170159699186 9.738248134411425 -0.9287025164611231 0.6290124179887941 0.38644143312696033
Ni 0.81160972965678 0.09756550806093554 11.022237294689615 0.924527302037511 -1.184189952274309 -0.07053847234019464
Ni 1.18880000151012 2.7872535604920685 7.552245891327611 0.5199544494171625 0.561580095377749 -1.5883858811712128
Ni 4.457926434477413 4.082492674678784 13.280263889135151 3.6596892136109487 1.3157468732794049 -2.468378591131459
Ni 7.766818093227807 2.5376817063519748 2.691486867917529 0.3396941496690924 0.25233886288187507 -1.3041691957441348
Ni 8.036033453906454 7.594744286653435 6.941302489864591 -0.454486706731656 0.5925186939381344 -0.961725508354363
Ni 0.13170345779022444 3.402694920310897 12.970901652148427 -1.2539385817233566 -0.05320666592996643 -0.36999202932168535
Ni 8.319291714624597 1.3529373164446177 0.6084337043963668 0.2529222461891708 -1.3314874239431134 -0.08178139224386562
Ni 4.886975195736604 7.837060182619877 10.361035577106188 -0.049877344446417324 1.4453153030995625 -0.8722596029820461
Ni 0.66387694981754 3.580240583809631 1.8398148688160405 -0.07957924238622424 0.3650490834941132 0.2636900262286362
Ni 6.296589914239789 6.511656882362725 5.007322941039092 1.5264153530056874 -2.4882953846600437 -0.5371224765560169
Ni 0.6531144050132011 3.8799603972918257 9.479065124520657 -0.8806794516146252 -0.08690045863798582 0.9638682657289788
Ni 8.1350970552329 5.729917054034231 9.280047710522759 0.8213820994058886 -0.595015235107743 -2.0783039321272856
Ni 8.88751876612464 8.150142362675348 12.756472914060032 1.0206361666476422 1.79263791584819 2.369439970382016
Ni 2.3317835472266686 7.149528257372344 11.696038077796365 0.10923717446197316 0.7788437118230457 0.6455304702484753
Ni 1.8746030038975183 8.497609875571477 3.2446603352167473 -0.12905086675379066 0.3016801323191643 0.31577363429775296
Ni 4.205108251775471 5.645567689815316 10.988534334594819 -0.9604849510790426 0.49706314664128587 1.764757130277522
Ni 5.943365456075339 3.5025586082800646 10.726309156182067 0.35069538587560245 0.4044183293203551 0.5852206176148244
Ni 4.806819389093334 2.8506719224255233 2.9733095708778707 0.17652140153092824 -1.0222420776821812 0.31572786866148206
Ni 7.57821835910204 6.490992575624838 0.7526479422872687 -0.3215064230164721 -0.8509338449210764 -0.281792906476934
Ni 1.1814428829563552 6.042364682614439 1.793297647480223 -0.8333737245501259 -0.017241817799583208 1.0971321421228524
Ni 3.897681856608207 1.0469363629971462 0.2751608321099077 -0.05082736706451246 0.8434804739668248 -0.6140066886085813
Ni 2.317832611169092 4.297587231996297 13.438443777320737 -1.9957427242946018 0.8825959519110477 0.7978094542922711
P 0.8999392950132827 8.213809027359993 6.162420902094235 -0.12196490644128673 0.6712666986723148 0.3656059844388478
P 0.0033484085817823035 0.9373888677315853 3.1902020240419597 0.6332061443551675 -0.28181604640538566 0.13030813619965947
P 3.1251660156664958 6.795696836927209 1.5329972752091012 1.8277085342990782 0.14742062751023 0.4461951561468251
P 3.5348563587310933 2.9984212557815093 1.2195132125526313 -1.3383484127290046 -2.1084850836963556 1.2852859856863863
P 4.176985666103704 6.843049091218878 4.8971813584503145 -0.9246635705050591 1.1211696426880304 1.1867916515632142
P 7.955252292186112 4.255881566194641 1.100009696604188 -1.0345985423650053 -0.9087746671889446 -1.2566675506187455
P 5.248715518627038 5.338343615408281 9.13356380155802 0.4172280794905137 -0.6920872349620919 -1.5120827384330993
P 4.23095013069557 9.004175077192775 8.378829196520941 0.6473379557708593 -0.26980436665649016 0.5797739926779563
Ni 3.249308194863089 1.7973072770920246 9.37065890227075 -0.3471896867151891 -0.5100991538896376 0.2821531180298302
Ni 8.978710250598557 7.007351941320835 3.9560008157440834 -0.46554116477360463 2.690077874750606 -0.6370532860153997
Ni 6.459163841481613 1.6324802322931118 4.4845288555280085 -1.0299859832936582 0.5311410621616014 1.9998873425905943
Ni 1.6080178131018432 4.939744128563484 11.352300624006995 -0.21860496096453966 -0.3151899938801411 -0.22317149728929953
Ni 1.8230296028356257 6.595509641079262 5.007807591223822 1.5068384593150244 -0.08313893471302457 0.04610553610881092
Ni 8.386489796215049 0.2689900489229373 5.191144226664188 0.10365608082976986 -0.4870404722979612 -0.42676404400540696
Ni 3.0929970147901584 0.24570568834009027 11.487759890818916 1.1456210908621753 1.0109027414099623 0.5524663060019388
Ni 8.897331322995722 5.43329642674281 5.543348804269123 -1.945297680270172 -1.4003009431724012 0.735479743015114
Ni 2.395284676743853 0.5589874302363314 7.571358765690473 -1.539645478542716 0.9625369485120648 0.6160221763767133
Ni 0.22619460993550544 7.722086812420915 8.742110835748388 0.3721399289026236 0.9488879902700625 0.5507115280943613
Ni 4.387849880252801 7.948345797143765 12.80001602022049 0.4646891011859546 -0.9145390804765476 1.0024996049479316
Ni 9.187827149091135 6.72779982907415 11.118273441731187 -0.769180991922301 -0.48311928286668415 -0.8489749214224926
Ni 5.319426624326912 7.907835663107097 6.8035947036946745 0.07892026864598667 -0.19423887341534934 1.2412334754518624
Ni 3.2475516828083766 4.653966054740674 2.6049266895732064 -0.2457979764395638 2.563981205529133 -1.3091154840058166
Ni 1.8290256544569443 8.291546181278711 0.7978022574110015 0.9665517260984129 0.3884438082689697 -2.065032668939676
Ni 3.8000620897979376 2.361671841351339 5.196447789501633 -1.2709813961382563 -0.5720192884332019 0.5535274002766015
Ni 4.9120905591995205 6.53759992166294 2.8316712441206056 -0.4691605066937468 1.058827333005383 0.602791279508736
Ni 6.490551148511612 5.994092788503549 10.646424643285467 0.18237143255380203 1.4409248873413507 1.875790220297653
Ni 8.434228299230792 2.850478798063487 4.974454094260328 1.073509617607906 0.9090225215336926 0.8823912920994094
Ni 0.7862754919168902 5.661808529022752 7.540508528314898 2.153681477727336 0.719613979627451 0.7113802788637491
Ni 5.061973456936097 1.4897429359518781 7.083922991948784 -2.233932035148972 -1.4654395846532633 -0.03806878184726347
Ni 8.975436332842131 8.1278962754484 1.7315300390222692 -1.335569564432287 1.1737420174681077 1.661810931030583
Ni 1.6394694949191884 1.3265344572347937 1.686102590872228 -0.37965320656053325 -0.6351018187159837 -1.5506107193049683
Ni 3.0946891520575246 8.940508412508132 5.662912096805816 1.514423470751134 0.5537060919463109 -4.318837788863491
P 1.6418605584491621 6.3430133323140465 9.621241440572167 -0.001791030462151754 -1.1369202206540678 -0.11412664134379052
P 6.949754899443048 0.92244472066925 6.808494544651483 2.278135983359696 -0.5790348005190866 -0.628198406727931
P 5.670922159631228 6.101148059859022 12.94505885358851 -1.0568092741340895 1.2433631202003554 -0.22140232120401868
P 3.2917587689183123 3.5946513397768185 7.001818468528585 1.340678603524078 -0.6480576075457033 0.6020443740403825
P 6.50917385485083 3.721120207716039 4.011536025147179 -0.39501966171427455 1.827766384120207 1.4514003329513776
P 4.817367657819795 1.6650078926989451 11.147158408813088 -0.6578535105902025 -0.14488449135193757 -0.33308667165490374
P 6.112082577309555 0.3558389941704949 0.24675315809418255 -0.06807458418073438 -0.474411470680041 -0.2613770618247434
P 0.6907764145297434 6.162938659312456 13.191629922998487 0.041614075996360585 0.34750361841118216 -1.4960735074890363
Ni 5.647544915426639 3.5893726072144916 6.209665558527056 1.0754947663587349 0.6846541757228144 -0.37751584850255626
Ni 6.641335293271026 5.76125837907327 7.205492938571015 0.821274884404063 -1.2903965674400744 0.9988818056896861
Ni 1.2995154393460915 1.4075731181045152 5.363377130927285 0.33254314044660793 0.11133082376620826 -0.5058221237808386
Ni 7.953716493688014 5.185131621526124 3.0750254134429493 -0.4986014376626833 -0.7771616961349326 0.23272494530568952
Ni 6.1968365830489285 0.9423089407644155 9.344426176427481 -2.740286377284197 -0.9663313825574906 0.024126974955190707
Ni 4.005123376687753 4.741239873584711 4.861122281138674 0.2598595967389525 0.004256975504141056 -0.38489748567860804
Ni 7.036578094775667 1.5101037615494228 11.697733893623008 -0.07296482239350015 0.3186162459528707 0.559564864719933
Ni 6.162543214190191 2.4425725562481775 0.7371841987270739 -0.27335403168096145 0.7855635470453826 -0.0454470765892056
Ni 3.134702680591814 4.767587554405383 8.930104527233288 -2.025847514099782 -0.5867532522092669 0.49261230995878386
Ni 2.2841921865820014 2.783142770500153 3.2615256098614345 0.0796391490898822 -0.640335299200781 2.3822438070149037
Ni 3.4570640264232204 3.519277660193496 10.931033854898049 1.2620550401829038 -0.7802444488253143 1.1812416682792626
Ni 6.836023043000033 8.242023577013681 11.907169907132857 -0.9963965773739871 -0.4467464006646048 0.11818101391882227
Ni 7.351711071627999 2.791070065741834 8.482887361705574 1.168770789505761 -0.8536319605785299 0.1365590022053777
Ni 2.504280388117882 8.264223682249666 9.518152575756993 0.47386845369237746 0.5388345741511171 -0.015634878323779525
Ni 1.5753154211303575 2.4035154531258773 11.372746056467907 -0.5413306011000935 -0.36392062631662486 -0.7317876388755074
Ni 4.306287024686124 5.591566439630681 7.159500831571973 0.3470583033436475 0.16757679074313075 -1.5004901484994932
Ni 6.949948023805084 4.525575139579282 12.448067102485298 1.566216029942393 -0.7079123749198066 2.6622251142043956
Ni 4.152964674025661 8.795711122971843 2.0384552304880574 -0.4273425422166963 -0.32596060213308375 0.14861824736275697
Ni 9.134883484698603 0.751815668250874 7.571493033104079 -1.6013524686342098 -0.7830119842681225 -2.3874826868163397
Ni 5.880085040114768 8.65147481372528 4.781103500828468 -0.42242016521441444 0.816264318563349 -1.3235103192749076
Ni 1.7775350209787815 4.151713963871521 5.64164542598634 -0.8031051554735716 -0.49808618858916154 -1.0987974456404173
Ni 5.150231290386702 3.0785034912392417 8.738705409497815 -2.2718298386360103 1.700726120038542 -1.4898169850563634
Ni 5.875606394195163 4.769012996125174 1.9289730296496612 0.47629326108378617 -1.2325436609873481 -1.2174780249034776
Ni 2.884799756116801 7.435444277168037 7.19741666167862 -0.8870732709561111 -1.676524583091674 1.5478856070643214
P 8.230068259363813 3.480395288636848 11.021551243384476 0.2175595504191608 -0.14702981982971453 -0.6500540691504417
P 0.9856055834533227 1.0094610403639057 12.911826749081152 0.2020725105271552 -0.1622335241533464 1.6091850773047514
P 4.3573178382546764 0.8081675178134372 3.83452559202323 -0.24434273205027596 -0.6364267081749942 -0.03091083064624354
P 8.505960205130002 4.206892353024759 7.577711637561649 -0.14218611858416805 0.9112105303239468 -1.7415539526881811
P 7.230143883925225 8.025843844709488 9.63136299642251 -0.20378075146751357 -1.822829608940222 0.3123023879197009
P 6.8761929103035895 7.52090640556821 2.8948247497861246 1.6396896736515116 -1.4942899332260522 0.28358702226287935
P 0.942685993090296 1.5021948591041254 9.238658400818917 2.506933825696837 0.45767616020323115 1.5134464515498451
P 0.8416745946267408 4.83772848341734 3.6937489677765756 0.9886444442323941 -0.07227628096690777 0.7436129136452096
