# total energy = -340856.23706336535 ev
CRYSTAL
PRIMVEC
9.35795580802911 0.00000000000000 0.00000000000000
0.00000000000000 9.35795580802911 0.00000000000000
0.00000000000000 0.00000000000000 13.69631424171831
PRIMCOORD
 96 1
Ni 2.3012243164200266 0.8544300436157546 10.314063972588663 0.2982741919614089 -0.6509236162395886 3.5417699379939456
Ni -0.035607022556852684 3.8187104603935436 8.620460161014035 -0.03845007644608217 -0.2800306723701887 -0.21252944419442107
Ni 5.383856674244077 2.3800089479328106 9.316219510183737 -0.03408640016074775 2.0078351366827616 -0.24059946295775977
Ni 4.826216076566587 8.012394217463324 3.8302974815052107 2.765890451005546 1.3170586501122932 1.0503833160030878
Ni 3.515334885026761 5.314149260045393 5.544775149719868 -0.7889900562284282 1.5237820291478985 0.09216324969882192
Ni 2.6159885242314056 3.926916505551201 10.626956589201258 0.3233306207094044 -0.7885462838227904 -0.7652292063634046
Ni 0.6837053660539387 5.87436329562121 9.76659547307656 -0.8952285530733937 -3.3206499239170357 -0.637396014066799
Ni 7.324565735998467 2.2594691167751706 1.8213773427155642 0.2959632844400451 0.2320950250311745 -1.5172465420222259
Ni 1.5740737038687305 9.316565754555514 3.5658079564755494 0.3870613260991463 -1.4553168943969645 -0.21881759119597796
Ni 1.0271198919362927 7.9775545472979745 9.560698917911608 -0.2556594426146758 3.802139898710413 0.7271809933414315
Ni 5.480992257460932 0.23371588674366664 8.28957125922954 2.954018069316835 -0.41437672608464765 -1.3131413173357578
Ni -0.0007374069323206286 3.1402773667465773 2.690640682377276 -0.5496964565662855 1.8005044630804605 2.105571766704303
Ni 6.4764073944898355 0.7790067898959855 10.545751054472849 -0.05447267712658361 -1.86627019662236 0.9001072213219337
Ni 2.601371396968908 7.70490114145922 5.189985092531309 -1.598459720467447 -1.0064588467059956 -1.3999219625664279
Ni 6.172039875787697 1.763235426329761 6.447595183780166 0.022330030955767997 0.5230811679716024 0.02101336902687349
Ni 3.7212005589369324 2.286373240257681 7.639393577910605 0.1340352073422595 -0.05570397843052341 -1.5337777069080296
Ni 5.861468032261593 5.665194263245187 3.602993666208576 -0.3028972925557171 0.39364437863330276 -1.2359598857577487
Ni 7.929828971728998 8.630580790421456 9.219769865141238 0.9477757310424904 -0.8563989818007056 -0.9566285534474299
Ni 4.796420344681956 8.15664710910955 0.8866813031531887 -0.728255714462849 -4.0409593869496145 -0.16919375752126345
Ni 8.510855101435288 5.569415583647451 13.411732694103739 -1.4195932157431101 -0.2575458610041113 -1.6656624435661895
Ni 7.806397532169239 2.637259158205578 10.117686330260723 0.48832268144449453 0.11330183144965003 0.545690420730686
Ni 1.2838834884973769 2.5511846789735326 6.827872569913756 0.6514540348217619 0.7008930061791799 -0.8139094451779274
Ni 2.3861851988887954 4.4553977123516475 8.373570143822134 -0.3573558286149136 -1.3543676709753965 -0.5302216356711256
Ni 1.9926176436526448 6.675703783292278 7.850685930501648 0.1512734255974169 0.40712312984602783 -2.949462845845985
P 8.457159149942195 7.039372669127864 1.1306469590969923 5.8413221822458885 -0.08973612831456804 0.9145046276941863
P 6.227326679799757 7.540154326186318 7.531480436775556 0.07270616941547478 -0.2277727435067368 0.5478645455638693
P 1.4918827763741611 4.099430424299054 12.352144438050953 -0.10420424002375603 -0.9585054587551688 1.6283302827746344
P 6.989111087484539 4.112147886494786 13.436974844601728 -0.7254133599180475 0.21033577897721195 1.046886358593423
P 0.7191692118840846 8.269522774308172 7.345375022742139 -1.2853060402910443 0.9669631026042184 0.036803799091910804
P 1.8835319506315589 2.0858322433080483 8.82127534607429 -0.4920705785227009 2.3268738148850314 -1.2531772780772998
P 3.1337080816388476 3.169567769007536 5.375611379217838 0.3440976780534267 0.8122204875112787 1.3257209537729813
P 8.409293205033311 0.6947908007243324 11.561784575943147 1.191030115124594 0.005386461122893949 -0.5818015646309463
Ni 8.665897716342498 1.005662098842242 6.661380495847988 0.008933040823571712 0.3618236345782801 0.23057678861443515
Ni 4.06245714016709 7.996785146865472 6.731409823732864 1.6693764020826671 0.4172563616252879 0.7884200426575712
Ni 7.550756890327425 4.746140047126643 1.8694650711815035 -0.008327288918772756 0.5503754849111812 -0.00219829320289944
Ni 1.890943451778741 2.3683395768083964 3.877125629094369 2.462165263231895 1.62119984237744 -1.1529538770781627
Ni 8.960055705055272 8.879287186871778 2.2060108573643227 -0.8230237487743698 -1.0689495090410492 0.7809563872906744
Ni 3.5628077957839 4.334642648206148 3.471194342399056 -2.102242188110438 0.5332871619703268 -0.35724989916466865
Ni 0.5971246214026229 1.4116850935062957 1.459684857185892 2.865457706477923 1.0329332388474404 0.9054468883672924
Ni 3.3104798703639324 9.2824372890457 12.5245123726853 -1.3633611327232584 -0.7164538367319145 1.2581050543962202
Ni 9.048507105109772 3.210331025317037 0.4363380931063466 -0.3527880067385731 1.3705612500161235 -1.7074233295530594
Ni 2.178232700791981 0.303288546376039 6.569491918556923 -0.4870628408954644 0.43733204932924036 -0.18004149886904477
Ni 7.429889530709999 1.0328843928285454 4.029304709467441 1.4635526520431954 1.8641894028339312 1.1721502475009555
Ni 5.625759836686822 6.435793865476237 5.731592704204423 0.8632252606939197 1.0485179806595748 0.8457296750123177
Ni 8.692857987560972 3.347022688520177 5.645141099345822 -0.5701051021296245 -0.46857583783487045 0.1623217129917785
Ni 3.122038710514434 4.472447908172564 0.672452423971254 -1.0026662124327828 0.3543658927486542 0.37841650593995474
Ni 5.473112858514054 4.18751686406979 5.416385865074531 0.24706295919491641 -2.056494806671994 1.1785489519384476
Ni 0.648038452578725 8.607588292544404 12.045552533209062 0.26816657394275106 0.20409416894287433 -0.2835546263630472
Ni 5.202181316578181 3.89902979668933 2.1150805347670345 1.1447978236299317 2.036592154210796 -0.68664883755534
Ni 4.501495003577681 0.7812105885325528 0.7740536237884054 -1.3428162186923713 3.7368310502002746 -0.8268811748472469
Ni 1.0723843250788674 6.094284619434244 12.089326243961805 1.157694991307574 2.0658145414110227 -0.177774557211739
Ni 7.084945914818238 3.4603194617385253 3.9450728117705984 0.36766389540914096 0.4814727484021966 -0.3560502224296126
Ni 0.11439258986523598 0.9574592675175776 9.640260259771887 -0.02840760460841559 0.7699970600656934 -0.4391590752356501
Ni 4.803354590073449 5.769020784997691 10.10590747105118 -2.0583593706845584 1.6659465504655115 -1.82428485332951
Ni 0.9917000284993185 5.854037815202424 0.7852401243835333 2.1376190249478344 1.426331562908208 0.025616672126839754
Ni 8.656605266040538 0.5005664240705932 0.004061352901359807 -1.4550358728214359 -0.5363765995289279 -0.5542377960800648
P 4.220110624796602 0.658446371235159 5.867651769582373 1.2493100818124097 -0.06928068867369358 0.04967551284825638
P 0.4259292386543131 5.349110583638665 7.043822377202972 -1.195279120208935 -0.8851146045678435 0.2945831162630668
P 3.2406788766053087 7.111045254085272 3.170231248087505 -2.693949184780554 -1.1991594290999477 -0.8170191944515025
P 7.500336223432202 1.2674509177720592 8.480169427935635 -0.6356052407149635 0.9745067192794313 -0.9877571565314344
P 7.283568530789119 8.343937240371798 3.5156109447285817 -0.06463161993745643 -2.174081638650243 0.872737056839097
P 6.086096407939568 0.3848936658253894 13.007198550238318 -0.8209894919531603 -1.209241495926298 0.7507916907818359
P 8.296707636470499 6.823915090323929 10.661676477529888 -0.4534852620503351 -0.1734785009395464 0.5081281462061958
P 5.422261725643112 4.065751140676948 11.021177329765784 0.6017258143586992 -2.052713228142374 0.10739266505406665
Ni 0.6970825641472426 6.7825061350508475 3.8697291006767776 0.34268819930040983 -0.38444908528727983 -0.8323378270864439
Ni 6.209696290707218 0.28098947303813515 2.219104509391011 -0.5861932659407388 -1.1276719625829226 -0.591886202560458
Ni 6.55985228808759 5.959988592965547 12.00429892000548 2.031999906854423 -2.1127693128940064 -1.5583011459706904
Ni 3.4568102282408066 -0.10694552848527716 8.610133656574748 -2.726578797890117 -0.9154603067392362 0.8562223470135254
Ni 3.9826524914509687 5.136965721256576 12.151137414892823 -1.6596576321330063 0.34584937063721083 0.9858913069672892
Ni 4.666822012122205 2.1550436858390554 11.732399765419835 -0.60914936051628 0.11351163346761096 -0.6434339927307628
Ni 8.795898441009987 4.5274071837248355 11.314183354095707 -0.360223894191328 -0.7668973380944469 -0.22913054308621184
Ni 1.282835397426058 4.66656934731037 5.238305834101498 -0.2273402839550085 -0.0357856422400416 -1.13425295823455
Ni 4.962205893070183 2.914759985249181 0.15432485968247694 0.4844971370508172 1.341673620447496 -0.6911076446576421
Ni 4.122619439251979 5.7568554422056 7.643940608728049 2.050320302430166 0.03110546315555288 1.3462938928283266
Ni 7.517180544221253 5.276099810974128 7.363042843658653 -0.13441701616171042 0.08300060936294737 -0.991965281075511
Ni 5.984534511537591 7.750904853125314 9.873468009505084 -0.6730412740742344 -0.6157288135060105 -0.7986206373396568
Ni 7.186011839552538 7.84176124787025 13.49932035482 -1.0850181324681378 1.7472024092232104 -4.0937533908221955
Ni 5.156757798183709 7.566122654069436 11.990726140631903 -2.031943856805507 2.2202470814627118 1.2302371243413588
Ni 1.765462619856313 8.881102630334597 1.092668630491281 1.3868625582793084 -1.4798056235669483 -0.8021595037308509
Ni 6.802663172261744 8.734164005318119 5.540186943896051 -0.9887544874476971 -0.7273036349622248 1.8199674569010786
Ni 7.043181357217389 2.1802727351986544 12.520924532357231 0.7474842236751578 0.9164638083030862 0.23450286314171873
Ni 0.6847609434900525 2.0882278800424907 12.341776758605292 0.30917438381368045 -0.7438186018981126 -0.8625184644348823
Ni 6.650708682832526 7.114021084091337 1.7149156205551723 -3.7276303575376124 -1.0432657311217002 5.171280614229926
Ni 5.238958083634273 5.611704186783959 0.2795502194062708 0.6401141843289104 0.26604104295931597 1.19470962085871
Ni 3.694754975298124 0.801114025136014 3.03062458159226 0.5736912768189861 0.5408732018477007 -0.021411632906556673
Ni 9.19238567851624 8.534315497112036 5.359792690405721 0.7211833809970999 -0.3210551944116664 -0.940906771836799
Ni 6.947486899223597 4.706677546700296 9.601664306070576 0.061985183453544854 0.696806237704316 0.023371584846404912
Ni 7.84534534501592 5.572962248969144 4.885242319793815 0.7353714995720239 0.24543159423908056 0.21559985558962871
P 2.6884471774923018 6.64268891454574 9.783619466620692 2.465425936261038 -1.067847534226122 1.327042243687566
P 0.2950123700950192 1.3618820517066714 4.37858854534918 -3.6827604936081157 -0.4206828708083335 2.0244434346634037
P 2.971553420176261 2.3793632489692302 1.1798267610274216 -0.31721422339902144 -0.7326808401137382 0.7631430132583372
P 1.301457729853952 5.00312823463158 2.6016699157651137 0.6665163284715231 -1.6012038588714874 2.253588633037635
P 4.371026381110496 0.23355680149177005 10.793531013279772 0.23998471219189638 -1.3352821150988552 -2.3375030124641034
P 5.559149905922124 4.019635133538927 7.687467269442553 0.16484267964141933 -0.01946016560714068 0.0489445482195028
P 3.191914567921009 6.97169593137986 13.771370172497146 -0.7715682612075551 -0.43693121434639587 -0.9540787904423825
P 5.547012636998014 2.2052023299664483 3.0767536898686725 -0.3280128566764222 -2.5232886129057768 1.5424515805329435
