# total energy = -340874.6694833568 ev
CRYSTAL
PRIMVEC
9.16573000658054 0.00000000000000 0.00000000000000

0.00000000000000 9.16573000658054 0.00000000000000

0.00000000000000 0.00000000000000 13.41497235081642

PRIMCOORD
 96 1
Ni 2.49134616285173 3.004782844974474 1.8497102521820366 0.5993169478068904 1.15074915611736 -0.9533992478768548
Ni 0.38262430403060116 2.3118353461465517 11.594748011230646 -0.6516718072595229 0.32114595435325977 0.05887594840060183
Ni 0.29092759412181324 6.4489616073362095 9.230641425023437 -0.2636455461439459 -0.17317382521493402 0.7170045670290619
Ni 2.387690925367999 5.828560859298254 12.34121053964319 0.3743515918419617 -1.8899207461617644 -0.36828815925670116
Ni 9.135757790888539 3.8964067013669323 7.8838181000482574 -1.5374307302795844 -0.06811237939720527 -0.13836777327934235
Ni 7.672467371417093 2.4884864551768753 3.7571985148447693 -0.2771788047436904 0.22361167015051164 0.2681282645056479
Ni 1.0174509940860343 7.193667981933045 2.830451582138078 1.6159067122993007 0.4012103639060187 -1.5813413156196054
Ni 5.50706372339063 6.1163739384588 1.4748557372410946 0.11143855298866615 0.28635301504379074 -0.3163930130493067
Ni 8.15657371841313 4.495808762600112 9.992880007442261 -1.129978756339228 0.4276166218136893 0.7826566578112327
Ni 6.498878171429976 5.243750639790611 11.724832630382458 0.696697994261226 1.1949633887407292 1.337192958968323
Ni 8.451902695949896 0.2975516669955856 3.081472505601088 1.2685702155936023 -1.2986924889002796 -1.1415448639102725
Ni 3.6229838178779277 3.7353648300618536 9.36302022632594 0.6088053469132999 -0.052616083533819066 0.5345225770393246
Ni 7.775700985333377 5.105008988911557 0.9105895843437658 -0.2095593058225036 -0.9302505776745335 -0.7636986286514912
Ni 4.411869009759365 6.169003558551785 3.800837470648447 1.297985435530926 1.4571822297404777 -1.122348750597796
Ni 7.905616038485237 6.716234286178334 2.7432680775469125 -2.250769161310969 0.49698061422980866 -0.9508826521025882
Ni 7.88875109578738 5.916377715813562 7.117943472646694 0.7707791896473564 -0.2825760644998618 0.37766497248591085
Ni 2.9486519161257374 3.0579165802024506 11.668194836679811 -0.5775949827487665 1.259773700347895 -0.946333599279325
Ni 2.855353953233626 6.603514141994506 10.272837139653712 -0.23403183704257116 -0.23547139770257514 -1.0019280487151778
Ni 6.396487804648585 8.902618289550121 12.350574249132393 -2.1506254645098317 -1.4486381968252084 -0.07003659300311163
Ni 5.475918573777957 1.942254792090581 12.756766394010276 -0.34156282744671496 -0.06734619065514208 -1.4602480131499949
Ni 1.8675999234633829 3.288260533974104 5.248809206026996 0.34801218261648453 1.114045115828107 -0.8897582739874419
Ni 7.5623411287460325 9.079718519337073 5.095020176654967 0.6678841553533271 -0.6904473853658238 -1.3454006915900958
Ni 6.5086121764001525 4.607355693378872 3.0871873380859323 -1.0002223788779805 -0.15281274506007875 0.7027634837290155
Ni 7.872335273846152 7.450931683913179 11.166354635807789 -0.2057936681324843 -1.0403153902441244 -0.7895017057575242
P 8.950885022293008 0.1933877315120015 10.920068728321798 0.05717593499035959 0.6589467436543813 -0.17287197770379906
P 4.116090911465973 4.919347967559498 11.269890718805067 0.6772954213648982 0.3479669312008459 0.023331218526772723
P 3.961831680158945 7.686820904169725 1.7256484340338993 -0.11566518947550403 -0.4109571588801374 0.5116405302348286
P 2.516093633114889 1.6429662193117105 9.501301757572696 -1.2517917105836829 0.6992981508882343 -0.27136399783412624
P 4.068126647804078 8.668397232103906 11.59819615875398 0.672782621096209 -0.8313168420210973 -0.23479314068862786
P 7.3570746115077155 3.172332384385792 12.630557961960053 -0.22968564425873345 1.594209172721209 -0.49416037117219413
P 0.43680751531233003 5.334133900629506 11.267650614459765 1.4763490324769155 0.9860545720180307 1.0135108684567706
P 6.762301243786719 1.2134417928405312 2.3199451838090863 -2.616483389192907 -0.2014852705651175 -1.0577844935631655
Ni 2.449715418431259 9.323288621104926 6.453124681778258 0.5344385019659504 -0.7853879406994667 0.6610396216276679
Ni 4.185906274797264 4.053690623483902 13.622099271253534 -0.1464297243518704 0.4943452334894906 -0.44264574823266994
Ni 4.088648716663047 6.346314600122461 7.875916324450527 1.3252555841007885 0.021037537396589576 -0.2639008566878617
Ni 1.7019935187542097 2.2284088741705226 7.424261243553275 -0.1198090364405485 -0.22383252791206612 0.8441435614721204
Ni 3.600069493560187 8.557638554081676 8.947840166877667 0.5961056399584442 0.5755877225107505 0.0470766417728286
Ni 4.397652962952639 1.4202481526730015 10.401432327724871 0.33587349037142156 -0.8143172221393074 0.8591464626388557
Ni 5.9722245070407585 4.827800659045262 8.363309502126702 1.2569537144005964 -0.11473753545491207 1.298739540088131
Ni 1.1985841449529082 7.823885226508721 11.62043771850975 -1.2545047386394717 -0.7821154405957821 -1.0464505566075848
Ni 5.55311234953956 0.8974165975799833 4.894089966150539 -0.9564897138767204 1.5681466713062027 0.84564251461515
Ni 4.205255130251164 7.688324083844969 5.64202909362212 1.5547854195079482 1.077456518070796 0.7848670351989903
Ni 5.172908714729885 6.985615082857689 10.251051116665378 0.5673735621310746 0.22750354900575012 0.372486513608765
Ni 1.3387373182099354 8.91774174359983 9.238153657107766 -0.6205159504820088 0.12662914468617548 0.17169878333130428
Ni 5.492655196259634 8.460674299298725 3.2443438565596954 0.3766920670496802 -0.29422753269586105 -1.5138087199852703
Ni 8.848531318430526 2.9086160086777815 5.674224635861518 -0.8488695061928799 -1.0642446473662122 0.8336444617130094
Ni 0.939148165027452 2.0413546618999443 3.1762223200819713 -1.8285387435098575 1.3936705823400772 0.6152878693138499
Ni 8.060856002873065 8.894469955822732 8.666742817888165 1.8362301986168441 -0.8869316031719242 1.4334563468784476
Ni -0.12239640505672375 1.79810536067254 9.073887282084693 0.5588480411585666 0.0009345959991274228 0.6764467002113576
Ni 4.673862228278682 6.610186793235831 12.625756036156028 0.1274146167019483 1.121403355965391 0.45519735964543534
Ni 6.15885709574389 3.123735685372728 1.2081018387015248 -0.41032261061993197 0.22069243962118767 0.7972939481084333
Ni 5.321421033498025 2.201764097853854 8.17158260084125 -1.1610415391823037 1.6347847801507263 0.7182716066669437
Ni 0.693987809151948 6.398678414053361 0.29838483182777864 -2.665484244571642 2.5953304092643754 0.06366308537660004
Ni 1.0729586533133286 4.112488779683225 0.02330570097708736 -0.6257224343836126 -1.2165305733885434 -0.674534056569677
Ni 5.962463004881402 5.247251948546363 5.889696276577984 -0.6218207853363613 -0.09478371804080452 -0.5131659657404195
Ni 2.645486239672305 5.627629732220853 1.3017966776908199 1.58326964299057 0.8367778651356685 -0.21034683472080545
P 4.241643077267736 4.367424386312677 2.4989271379090106 0.5603431376468544 -0.25912734655861824 -2.347511802850357
P 0.4678463424601684 8.780356620720385 1.2238989738861752 1.0870781003209602 -0.3727523656756419 -0.6095136858342342
P 0.5434764447303295 4.9513913586854255 6.103986454732629 -0.325445095949246 0.7247333031318873 -1.377548479967234
P 6.498649028186798 2.9595683002307087 5.40624711240338 -0.9749034404972178 0.6056516317756666 0.7769752911557393
P 3.328901379584048 1.9716034586767426 -0.03834483031330671 -0.3821461481857161 -0.4883159965762752 1.9707932534381156
P 0.024941783733374023 0.431656375205702 6.386881203321615 0.07195283618921802 2.2667344263909737 1.1702502022647652
P 2.42199825173652 7.318156923086464 4.540552188835904 -0.698699598072287 -0.20662336312263124 0.13664204883748723
P 6.895085170343161 6.858339759867232 9.012996589788676 1.0389151674624881 0.1822804155018925 -0.8227828364081572
Ni 7.014267153984592 1.2227175113243525 7.04330326918706 1.0709801663178329 1.2723494801303765 -0.802504031554463
Ni 2.2479502099486917 0.2541061080891499 2.3450574501153842 1.4525095068551566 -0.7943050406834384 -0.8853004953264043
Ni 5.937339739699431 9.224757026538642 9.172943156391367 -1.0651082809180883 -1.0089944686436558 -0.2667172430907342
Ni 4.4578626415299345 3.792540652099479 4.449974614526795 0.90207128702684 -0.8585342829761535 0.74208207882298
Ni 2.225100045739041 0.7666253006662122 11.8326353605677 0.1328823246847389 -0.3231329028763016 -0.3941516572870244
Ni 1.07803646758214 9.290108679492837 4.536165470588516 0.4766714703588113 -1.455757324368493 0.29446073175258963
Ni 0.4729021589776346 7.728937432265732 7.162870213477029 -0.18657621466376897 -0.7146977732727562 -0.7743478808352213
Ni 3.7700112884302768 2.2245867648743234 5.981535055297543 0.6525709220350245 -0.9286513515082135 1.6152353972638893
Ni 6.915863879634487 8.020609283641386 6.925411820291203 -2.2604478220513133 -1.9322400757552658 0.23170421735065902
Ni 2.0045634227753806 4.866131740763977 7.78767326150291 1.0777298263368407 -0.2318695392839297 -0.48947299299885383
Ni 7.933727331558241 1.237144369914802 13.188996543896895 0.42486477010016505 -0.19515444325108328 -0.47596261721724487
Ni 7.045998910299799 1.4142812626206618 10.83060479017453 1.0680938459089735 0.4764490699353601 -0.8193334444069761
Ni 5.694209592958478 3.3927223556738184 10.801788652485513 -0.12878707156944272 -0.38111616425930495 -1.0976440487622645
Ni 1.3565738282588644 3.726107443037486 9.815761446195856 -0.394606742546572 0.05933231921173008 0.8046282769863174
Ni 4.656309855851293 0.47677651293327816 0.991591720806978 0.3825657522216379 -1.341042157511084 -0.7294232524083889
Ni 8.988427851255194 7.005917174203208 4.695602422618381 0.09074837162916628 0.31499381870893495 3.219454903033249
Ni 2.3577556520793035 5.0907287819967415 3.4974976453301996 -1.9890714829220133 -0.7647872337299796 0.4168645255035079
Ni 4.3483505027505895 1.9055002158849252 2.669740593676147 1.2325238634930065 0.2607710528096283 1.3763824846835908
Ni 8.642714857408583 4.848331893633956 3.8949704315186966 1.5440667475388632 -1.6512087300347045 0.6118991553472751
Ni 8.374708920188292 2.6691246566384863 1.6177650454270598 0.834403451366221 1.4404893424658287 -0.252012847001024
Ni 0.9517418776724821 1.7288857697735096 0.52693871858373 1.4791150252578267 -1.2984616038363959 -0.5702395708249599
Ni 2.598979327037019 7.9502623079859225 0.025767615981785386 0.6190892453378113 0.7943112113310256 1.0788950502895356
Ni 3.1915987482721477 5.424544658657584 5.6067208695674005 -0.6330097120736453 0.011354248670554639 2.5578264987816466
Ni 7.55395448604574 8.556639489541423 1.109505167454179 -1.425633508399919 -0.43245903750765513 0.270707852307366
P 2.1701331645656454 6.936945058006809 8.200854275297704 -0.6759227093870875 1.8498398189804786 0.5029314324966049
P 4.715218000807339 0.2946846267369499 7.238638718266069 0.05667971208023142 -0.2820934684364883 -1.3463527710907202
P 7.2975615283896795 3.0064326763253515 8.774545548073405 -1.3083402964026887 -1.2654931193301755 -0.2184100713449142
P 4.200323967657987 4.178335382042683 7.407478792422961 -0.3239296877459841 -0.478476384778034 -2.674617060110845
P 2.778068520174751 1.5366070915584868 4.090037324716702 0.6543221003981763 0.35496804510902735 1.417091789477495
P 7.06004080824171 6.914956472391505 13.258351787595885 -0.7163605056871598 -1.0608978423811664 -0.6561743231155668
P 0.5553112349539561 4.977587014245467 1.9735163464707877 0.16175581318597948 -0.29289338726546976 0.8756956252467887
P 6.430905119773831 7.051544176784692 4.63481896936017 0.8237038055605298 -0.058338073619260813 0.4694039901631207
