# total energy = -340871.851786191 ev
CRYSTAL
PRIMVEC
9.20344203127451 0.00000000000000 0.00000000000000
0.00000000000000 9.20344203127451 0.00000000000000
0.00000000000000 0.00000000000000 13.47016771094569
PRIMCOORD
 96 1
Ni 5.839795672599529 6.410317046520483 6.444801423612666 1.6236778716042874 -3.731867278437095 -1.7323571166802616
Ni 4.694546951731621 0.3556338864047283 11.843928006801454 -1.1191348716461886 -0.8068677078397976 -0.1018812483175342
Ni 6.1818415971320695 7.402227219059676 1.656722651155984 0.7115918806539229 0.5331228684783205 0.27406674147726995
Ni 6.543085901822686 1.5286365071790087 12.55773869065486 0.3953510769117643 0.8696486477217603 0.38642497806672804
Ni 9.031245668896466 6.344015449848009 0.36827021236687496 1.5987502551246724 0.6889530602084843 0.7986080389341667
Ni 7.836169512661432 0.11696838595638288 8.838867959995111 0.7699291829422353 0.875392235073757 -0.1759858407424324
Ni 3.6338042359506977 4.331213465691109 9.47571117816109 0.10294619924693883 -1.3817046682274525 0.4073262469957695
Ni 0.5544254740846832 8.430334529260284 12.450287584143092 0.2797169977845118 -1.2941465214008097 -0.5616808826216713
Ni 8.761860919506784 3.3575721256609175 7.400267806242967 -0.6800979238106997 -1.404875707027277 0.035831407876312484
Ni 3.1997146872758204 0.6227481466357332 6.977587764702301 0.35206398408835493 0.7113735939955297 -2.5616584709332266
Ni 0.19099351121402136 4.96313100166121 10.050941033045069 -1.5705496243207404 -2.13103520108273 1.762481703979784
Ni 7.752335358845561 0.04571073572920144 3.7561428303549413 -0.7532314105715802 -0.34560023074088225 -0.42765673102300544
Ni 8.947899297510304 3.956237625432012 1.0350181748509917 -0.33799285070726953 1.8283559380750898 1.529327641556476
Ni 7.5924899769733365 3.601813071315285 11.0222741498041 -0.8868698966960532 -1.906926793801458 -2.16792538924086
Ni 6.815470973327196 6.842759179064825 3.95442362700001 -0.5092231790425875 -0.6917388504837377 0.40420081399291036
Ni 6.47859738323801 7.649091145704 8.244173745477234 -0.22243796155738466 -1.2447124351393983 1.1438439443570945
Ni 1.6228153298815917 2.724246463054103 8.752039006129653 0.4139023575513904 0.1522252479877249 0.7188647601662523
Ni 2.0811375415268496 2.823698858062811 6.28713357613421 -1.359637404014768 -0.4445329379530537 0.36967886895664076
Ni 1.7150890400756789 6.529372773138347 9.868164354911167 1.9264653780550174 0.3153524875999343 -1.7120878249082643
Ni 4.265712568478729 7.679370470114389 3.0835911773014657 1.7418611995159548 -0.024907561874957105 -2.700535836859136
Ni 2.874244161911397 7.812277377047644 11.448214970870174 0.20043960290942253 0.3008681779408302 0.8192108027861827
Ni 2.874557078941778 4.330652055724837 4.607888261544457 0.9622901226085815 0.5633227891004685 -0.5932080066956752
Ni 2.1499056606740887 7.949684767153142 8.104407513169189 0.28054026501675555 -1.7622256221049197 -1.088945235436686
Ni 2.6778243012528886 6.182899992970124 6.120615698761218 -0.3833303983018043 0.7441150500926088 0.6054258889181058
P 5.206819740791375 0.5267562458453551 2.652114485830269 0.41126980502454974 0.18468285429579806 1.0840555114445525
P 0.030652063814223807 1.4989646099452427 4.526218757303455 -0.3708834307877032 0.9126516336458476 0.925193217756284
P 5.229257732558101 5.003524908906556 4.764101965175848 0.2793747839537446 -0.1619571305635082 -0.004663724024256484
P 6.103566322326493 0.5874087697752449 7.507706027935837 -0.12660883297120132 -0.3441922946497621 -0.02277020381698014
P 2.6658138093515036 0.08342920236479172 13.053724148283289 -0.5507120423149935 0.43617813823045526 0.1736145122967784
P 2.591569642172598 0.6414688681503745 8.948474512639681 0.10384917067718245 0.8591878573997527 1.6358070507676536
P 3.9842529030931733 7.797975228070822 5.050518604460319 -0.5388019211409688 -0.6293476898410257 2.3025462938832604
P 8.814219301443167 1.983654683121127 9.378820101080471 -0.20511206868442738 0.46080416430925153 -1.0638011320708904
Ni 4.460531030217053 7.816750249893677 7.075502264541108 -2.0834803341219024 0.9780810668942511 0.38006355462507446
Ni 2.688132156371318 1.393355112191687 10.935876837371723 -0.560022521082642 0.5485906250966165 0.5494537444278602
Ni 5.379227821089184 4.9009249367099 11.709819130333853 1.3422896567649398 0.9893093315099026 0.39736527912831565
Ni 6.9434908525212675 0.8934020506868703 1.3272882032920004 -0.07948436867957279 -0.24042539927374074 0.4828256628856652
Ni 7.495356849366276 8.099157869812444 6.111104861726052 0.37413124830103955 0.4889968246933836 -0.2522956683487655
Ni 3.8059914336388267 1.99497491686726 13.374677624279741 -0.7321745899012809 0.8059138285669604 0.12314221457883952
Ni 7.888362232640555 1.4930836104624956 6.474705247586596 -0.33013144568132174 -1.8792298421068214 -0.2600202906865328
Ni 4.275118486274296 5.959532453930576 0.48174865309030374 -0.2719928896673768 1.0253150601805503 -1.23418659590741
Ni 0.742072613762043 0.8709576165106964 0.6065666547882124 0.41169969347311675 0.6899642750818182 0.7724732895203277
Ni 6.074014069839638 1.34955593138043 10.01191751832395 2.3338142507586066 -0.5967589572717271 -0.8424319780976522
Ni 0.2572435686109013 4.291261323665123 3.77407205585156 -0.08284274362884442 -0.16400655689336915 -0.6993457162967182
Ni 6.2122129559631585 8.34237723339704 10.757599722065859 1.4913797015577928 -0.9862404627765918 -0.7183590241744274
Ni 0.8320914806489738 9.19840778721436 3.1134811961122915 -0.191276962573548 0.09341794804152942 -0.5365426927931469
Ni 3.2380194131712714 0.5167272550216471 4.46471399463788 0.8240030819685035 -0.03721851803182623 1.0104057471688856
Ni 1.3022410356984229 2.8690626240259722 12.960496961490746 0.049643631169056436 -0.6890888144554003 -1.9929227383473034
Ni 7.985550580900036 5.550605115875151 12.109478602224762 0.34756506777673685 0.4157324687815937 -1.7359697737321846
Ni 6.235221561138225 3.409415114841378 6.933566780937157 0.026951588888179386 -0.19331353338760254 0.047109551893293064
Ni 8.353421363881072 0.8855073380792016 11.139532444185686 -0.21194991754186726 0.15845580227846906 1.0242467668170359
Ni 4.622401169344682 9.021664885701568 0.7362413128664741 0.49953474811023 -0.842371300063046 -1.1343671152149108
Ni 0.8662721441528457 0.6523721859707351 7.640629501064818 -1.6958533653272727 1.3433425235094865 0.21706204195745196
Ni 9.176733681139448 6.573521684748266 5.128187372433482 0.8068093437980363 0.545114493622558 -0.6775126795820268
Ni 2.838249499975523 0.4208347514056252 2.186288707865318 1.0905118085928573 1.5000551178446038 -1.014193496346092
Ni 7.03805621979079 5.655966120692817 9.842934038820397 -1.0957591730347258 -0.06838774454577899 -0.5961863725977088
Ni 4.444130496448266 6.659334578609194 9.913598987378268 1.3707787653435681 0.017350318352989474 0.8798620979196524
P 5.170125617258179 3.5594404240248827 0.4533100170939213 0.27740171938777386 1.2038154398147203 0.29676444018510184
P 8.18366387489943 7.46882332587839 10.881726545264305 0.26739755698721046 0.9230311771079588 0.4318573993679143
P 7.5796051580753 5.189682931656986 7.703023316234358 -0.42667585516697487 0.434092202235704 0.035031794793152576
P 0.24908195618320167 7.779135782153478 6.908619930862144 -0.25734094408215685 -0.9015007592353506 1.9519758636212965
P 4.128995436528482 2.3780773964741897 5.845352710921411 0.18767998925090904 -0.284432143871994 -0.08150731264687254
P 0.9247618591962793 4.712686936051644 5.7436933305043105 0.7993685712492749 -0.31930375893819846 0.34666029657428044
P 3.2642768333970573 6.04360589724027 8.345267114207028 -0.4887466563557905 0.4645176086050968 -2.7292445176477385
P 5.730937359795254 3.6722101997089194 9.54357367860864 1.1989069467695095 1.0191300144157611 -1.4204763896790116
Ni 3.9533569480640938 4.31102111378947 7.043753150432138 0.12321343413640713 0.03512564005853951 -0.36403838284141177
Ni 9.012397019537051 6.939303286379405 2.6510367627638685 0.4465733654218502 0.05417751448366798 0.9455622683309393
Ni 4.591956182977034 8.897031873189267 9.048329098066848 -0.9463009462691766 0.7686534015536053 1.1580199787471606
Ni 8.764051338719451 6.969140845570431 8.775908133138266 -0.059151827769807805 -0.25330122679514444 -0.43412511235616846
Ni 0.8198012041086602 5.000147245666856 7.932190864466435 2.3828894110187027 2.475991884702342 -1.1222474491332415
Ni 2.0541898631458113 2.2646449729611113 3.732677734453201 -1.4866139047380333 0.2753152691723904 0.26267906846561856
Ni 5.081063908346531 2.4386452487370356 3.7962974481064675 -1.6353414239851447 -0.10025168313391122 0.8401840626037401
Ni 6.54776125039426 3.2188486433394057 2.2493295250123797 1.6862526090127155 -0.032920661987420725 -1.393691922496316
Ni 2.1565873596169283 7.391661667563286 3.8896728103163376 -1.1706685207491065 -0.9416765601232879 -0.07833277157363283
Ni 3.2902305400345324 3.7235746099017377 2.143117201803237 1.6664278609773042 -0.15090730050724976 0.37186687774689503
Ni 1.8824720410032538 7.777212262760843 1.1442989256462812 -0.05873556616799561 -1.0076436110427163 -0.048367592670110246
Ni 7.371791436134098 8.069044207359317 13.096895654345369 -0.6498908040997001 0.2545782937353551 -0.828982794571282
Ni 3.1223965704455265 4.876508204898118 11.737634693302095 -0.029666930936813427 0.697983545841869 1.0001215916340582
Ni 4.849054337203229 2.6836132663149352 11.076775093054382 -2.9426764190517707 0.5716871019047638 2.732258364773398
Ni 8.743702528302622 2.1732824035319562 2.5255349453201568 0.39861894902975864 -0.8803570352781999 0.07243954601764944
Ni 7.351175725897238 2.672256218800522 4.520723382043442 0.20233219194644508 0.10985732454447532 -0.24861204884959115
Ni 0.9159293158416747 8.99163405422707 5.476431815200185 1.2690458696784401 0.8416405925446085 -1.8197064899302082
Ni 5.745432781055546 0.013252036236631395 5.059974220843065 -1.171447565006976 0.6629268113480519 -0.2448199287970106
Ni 4.491325747383363 2.024628407216886 8.396036061697917 0.11424285520668065 1.4535083804333162 -0.38298587047819205
Ni 0.8316819274768575 8.742073519056227 9.972490892840163 -0.1468732396471922 0.5750668170102742 0.7875792919238307
Ni 7.538962757894063 4.954663834956785 5.401402594412707 -0.5062332431763281 -0.7566008412644454 0.254588063927368
Ni 5.112843393814333 4.985642620964494 2.4184068796250466 0.6979748040911206 1.7520479102409696 1.9618612410558085
Ni 6.605384001194698 5.473793188358709 0.4144355981343357 0.37826995305976147 -1.210914769863663 0.8696116238362378
Ni 2.117942106364886 4.806663283028685 0.44664396400260103 -1.0083658339207215 1.6749155867333412 -0.003470989267735958
P 5.026680769154744 7.16870828341689 12.103336224987226 -0.3088532530288358 -0.6298732233271926 0.844549024440655
P 7.750927232208846 5.196843209587467 2.669194233623824 -1.1056589486469408 -0.3336615703217673 -0.3949420143988037
P 8.196769576407148 3.053968978654878 12.881817655578296 -0.32964884961794844 -1.487087501940342 -0.5347022971502985
P 2.833316455025989 6.020624902391413 2.228693567202966 0.2832118983116477 -0.3436148248797372 0.16641748032770692
P 1.2420597280025185 5.977442352198848 11.749973748085381 -1.1001251633129054 0.427252039385419 3.736707380138216
P 1.7952234101794013 3.6139155976373707 10.784795893382785 -0.33680577237770387 -1.5716935081171963 -0.17284909488566363
P 8.582807954034417 8.609728022089245 1.4277971534503477 -0.5055848109590518 -0.26887516997400146 -0.3579091300152223
P 1.5502830029277117 2.853490400043487 1.72473332702086 -1.881941841721346 -1.2328941023482316 -1.05675013876138
