# total energy = -340858.76267448923 ev
CRYSTAL
PRIMVEC
9.39318989323348 0.00000000000000 0.00000000000000
0.00000000000000 9.39318989323348 0.00000000000000
0.00000000000000 0.00000000000000 13.74788288693131
PRIMCOORD
 96 1
Ni 5.560711925977471 3.4823841726052254 4.652613103406 -0.5852378440060049 -0.020654700135874105 0.02950058056227823
Ni 8.928395859512518 6.714158044793422 9.90669656372667 0.6843160756571053 1.192524440281933 1.5639233772534744
Ni 8.9209376669139 9.18182411683079 11.305969970779278 0.4723129362797994 -0.5793366480302217 -0.020589908336209703
Ni 1.3623224775256009 4.102156220274491 11.60699352015951 0.7242594488192623 -0.7634417754456787 1.6284210427162278
Ni 7.85612568583165 8.9902687998741 9.174003347110878 1.1811478230138754 2.4724458192222967 -0.9028590730354581
Ni 9.091715248318774 5.733283606609468 1.6602359418058281 0.5193985769136925 0.605402491879338 0.8956538135362705
Ni 5.878577464437452 9.234858065712144 4.194259262953619 -1.0855817182810916 -1.2955678272283688 0.5553965922748565
Ni 4.234421724029072 6.571635177918325 10.112035447206297 -1.4335941580078924 2.0898633548301104 2.1379347564160405
Ni 5.361642057284139 0.7174058004265617 8.684537383830863 1.5118536531414284 1.5926752525751862 -1.50123551130595
Ni 6.5707240385202565 8.697849412232324 7.066452441353797 0.9646514237519065 -0.5968564020815398 1.0066002573798665
Ni 8.36332035529634 1.8361713236589394 -0.1837627268057914 0.4189178084881107 -0.5640964340416995 0.3884985727663052
Ni 1.4371392332535484 0.8550160291038286 5.3387978200047455 0.32553559878052324 -0.9066218825119998 -0.5061314274911412
Ni 9.022788022514419 4.427799319781897 10.209219266178362 0.17932853196242018 1.1256114805094677 -2.2360693932069493
Ni 1.100712752004061 4.850680718761457 6.259713649882029 -0.3571434554937914 -0.657312550485068 -1.102897840962036
Ni 7.655731377394734 2.6946149276736437 3.9769327908161127 -1.6780255931172328 -1.0702198911130407 1.717159840114533
Ni 2.881661513588348 8.48741378403732 1.0262811170526163 -2.103330793188926 -0.6827191634836307 -0.3638159824179605
Ni 0.22743354422328962 8.799577656367124 6.916381207259242 -0.1794951394472715 -0.10040234977916257 1.1915368795576833
Ni 2.412819237549548 3.0967655570497414 5.116604736298797 -0.6216750037871164 -1.8433853216043865 -0.28631959070269397
Ni 1.2658262400374396 0.5497824521131444 13.11482026296172 -1.320355832806326 -0.5291152899808242 0.9763373447302669
Ni 2.670991055651574 6.118864649406268 12.089530127419374 0.2251900703812251 1.824811415256941 1.2357727094476072
Ni 0.6191351894095857 1.7561131680946838 10.946449393405155 0.4872165928645093 1.4459645066477873 0.7114108749913683
Ni 1.0517460542501638 2.054506624367089 7.466034972673897 -1.7766117156232628 0.6747271464170895 0.32624445192208973
Ni 2.2432627708018793 7.795323569092541 9.049722054576481 0.474901265832266 1.5467664058582136 1.106586345557217
Ni 1.932789672612821 3.428260613722057 9.488499548435941 0.014415918315013881 -0.7431115485287589 -0.30123276036910057
P 4.339813312135483 8.958200450337976 9.881840305219791 -1.2041453123503132 -2.939569497991673 1.612341363545546
P 4.70781030386854 7.350715722404413 2.6308361091278574 -0.06785218375728314 0.6993950814774148 -1.0945990912883536
P 3.7994137171845046 7.778594298288841 13.167130936238422 1.6270215912655397 -1.676473161028448 -1.417829696084784
P 3.793993846744451 4.352907418536583 13.071060210242349 0.11196074404072331 -0.20896846631604013 2.5598514996314754
P 1.084237097321472 0.3981275262400925 9.44328261199863 -0.03379612261383857 -0.5242512770203036 -0.47152360760928475
P 1.5492657383539263 5.867822262264382 10.244619380090718 0.4832681497397225 0.22666999736086124 -0.3610780146615072
P 3.2458636566944006 2.6429335981048845 7.36996518599679 0.6690666056972026 2.2703488832151093 -0.6272198448647456
P 5.076004552584684 6.3105796505873615 5.880794257199761 0.5920407258604514 0.8502098222708582 -0.27287657782391067
Ni 5.915943572947907 4.010760484777576 7.193167509331898 -1.5185902005343137 -0.5799627116499947 -1.3780153923013236
Ni 8.272281561006915 3.596896547881987 11.93860599170271 -0.6933280493477285 -1.1181915338963129 2.967240224434064
Ni 5.895259769292798 5.2033292385724215 1.8470552125304989 -1.082649118015329 -0.4728772934237017 -0.5072210610108941
Ni 7.774076174057184 3.820717471357886 2.1661165040355725 -0.06796634073764425 0.924393347562808 -2.1128040227866838
Ni 8.885591094182669 1.7932350536736978 2.3497467868670054 1.136398800932959 -1.376052869258314 -0.5023794166478768
Ni 5.531846654119093 6.108992407062255 12.710371120073177 -0.3427871867721193 0.6650749680393062 0.5320453191434257
Ni 5.348820353383493 0.3495807040644803 1.5983010063924203 -0.4647032422533416 -2.8897744288464167 -1.2841493009787819
Ni 3.4580464181681747 7.978124433276042 4.398030423077187 -1.021325736515499 -1.5020721482746324 -0.473657623233152
Ni 1.2617120229616279 4.907575268597512 0.10151689736720561 0.5843754960057097 -0.20178069031834928 0.9708596094451473
Ni 4.534693818235637 8.577851414187814 6.196458971319872 0.031193651993984984 0.6606344157694494 1.3385438165692625
Ni 3.6862069952719843 4.383097130138545 11.034421311267062 1.0826365196098384 -1.6167937428899446 -1.5507354178082906
Ni 4.629668358997129 5.604690840016172 3.871004851579498 -0.6011583718910034 0.16889962331961234 -1.7525672730795496
Ni 5.043776518824159 3.205773523179413 9.451256490710174 1.012971965234165 -1.1673194017712154 0.03245040721922154
Ni 3.7164248864429577 2.8448683896478117 3.02482311736106 -0.043901329368640524 0.7540402796261207 0.4592584170886865
Ni 3.2867897840900904 4.849046303758737 1.5183574477421482 0.7488505078950651 -0.4829408483072909 -0.36796934246470175
Ni 7.844393591932818 0.3013588862514779 5.346813028750842 1.8149424928826614 -0.025525140854297974 -1.7002700063377298
Ni 2.949912429736404 2.3295392179282066 0.8947285563940504 -1.472682896479238 -0.08530071825103373 -0.14189686947852337
Ni 6.9663933670235005 7.155891575442284 1.4347148509995142 -0.03635462736963417 0.8035772100139839 0.2374292927598943
Ni 9.396571219084692 2.922155554259181 5.419209159500624 0.783228985374935 -2.24474943747945 -0.0026551782346599436
Ni 2.733314869117353 8.759628420697197 11.710102563175916 0.06169619145821633 0.27984221050846647 -1.7301552239329363
Ni 7.6821262403696915 3.092162894111048 8.738415780463622 -0.011023347693697144 -2.1346429730386465 -1.1308735002393557
Ni 4.1076606294215825 1.3076822932105387 4.804005019968269 -0.4457606397125678 -0.03677885939124634 1.0649889817314044
Ni 9.199464527032557 5.00836419376523 4.0178870977808145 -0.4006856017508002 0.7303334229274842 -1.2950620912365438
Ni 0.9449079149344483 3.5230472906901324 2.511779308688361 1.7260576568247952 0.6314927612084866 -0.27732510051356757
P 6.174819880275242 1.2941373137052405 13.6867866111204 1.385524813304491 1.2748457641896689 -1.8824907722462805
P 7.248301775423645 7.812879440587272 11.614032776498808 0.18542564599909356 -0.4982201430638646 0.3031901412057875
P 5.459434554946871 5.302652826151495 9.151140323452143 0.6648489680714291 -1.323898812962578 -1.6055855328789508
P 1.0534274352012376 2.7641714971859415 13.414743869831499 -0.1931908917668092 -0.5430123596778906 -0.1729452541438957
P 0.7850470985649827 7.446986523340475 0.7286240868504019 2.2681472475781 -0.453264918509413 1.0996870473342224
P 1.8767217234677966 5.07174943766381 4.015316181767916 1.620757612633699 0.2626721264870831 0.09550516958786133
P 7.648028961864676 8.374939730919124 3.4408202476308887 1.6607560074035075 -1.0003396211821352 -1.081147850879454
P 7.113838265286097 2.2844613006980223 10.56666394863524 -0.7854689304490473 0.0038998492750384455 1.4391873358249538
Ni 1.0352610063779042 6.1628623498243105 7.984082533484232 -0.2873171787292729 0.6275954830366095 0.9111236270370954
Ni 3.074776100030391 1.7451794953178688 12.349241489308444 -1.2579173638654466 1.2759567378656607 -0.028214771871319152
Ni 3.320980994491814 1.405850518460103 10.014342517354077 -0.9074430928617145 0.8453046716597572 0.8674143590746027
Ni 6.648321178390762 7.218346893563454 9.605177993250791 -2.5251853157078576 -0.7697792876279325 0.30569799522930574
Ni 1.995733436596873 6.73167634352947 2.5350960234081956 0.21450713674608216 -0.8196499472061304 0.5582358614958643
Ni 5.241756777515678 2.768783553314306 1.1537692445406258 0.3186851515175931 1.2228583153787844 0.43212839364111383
Ni 3.470614505947709 4.677817849249666 8.29019343439017 -0.9186261060617277 -1.5079044386856935 -0.35772298214634524
Ni 2.8076901449307727 0.7281196725650799 7.880849500364171 0.7546858836299196 -2.8706096829925074 -0.0162866529751655
Ni 0.959420392975839 7.209103994927384 5.231578317188395 0.9329587206343157 0.1328715260514615 -0.12735753821176773
Ni 5.124360693009979 1.721583802864811 11.566822605213352 1.7921584051086104 -1.2478584369675476 -0.778736239710904
Ni 6.027403161581657 1.538576288508552 6.262779586990578 -0.25372828703023403 0.6330415937528453 0.3185905349212578
Ni 7.201673981897779 6.583865110869709 6.063736958547292 0.8626616748809658 0.16963290194121108 1.1794760917384075
Ni 7.660071031022645 0.05054005702375663 1.4291888375161805 0.20750216618315875 0.5026799786074311 0.6596725660768124
Ni 0.8224855346359029 8.840438031435118 2.6673230150851253 -0.6253449964395359 0.7492148332130194 0.22772620653951747
Ni 8.641236658086394 8.269360279019295 13.5245756186953 -1.3829120582719925 0.3841752628006029 -1.5536803593692274
Ni 6.645522007868862 4.984890612777893 10.896983917279737 0.3565600721864956 0.6943302653599978 -1.0793046270231283
Ni 3.4555384365260697 0.11435926628512776 2.7847162816339224 -0.9098391038977169 1.8143830208347655 1.6132990994731247
Ni 5.7380083810138816 8.688512581699547 13.136720484679197 0.9153677470254299 -0.9409070289471152 -0.6800521581744288
Ni 9.428508063965422 6.176116140449814 12.275415715090766 -0.9039993572874883 0.30204265786490564 0.374846014979877
Ni 5.832438116774466 3.6305993124208293 12.551555765714072 0.21719291110836142 -0.15782073979763142 1.2992319063435172
Ni 6.95727257985315 5.87388086960205 3.992907788489248 0.3663464621492981 -0.1459602409146196 -1.536444197996599
Ni 3.472587075778578 4.91339904619341 5.6242728225228955 -0.07998779067855256 0.6248677996928013 2.0192402931959097
Ni 7.448160672049325 5.264807664967829 8.166970754331672 1.374025811525956 0.8629887192030815 0.6607722268988941
Ni 4.140856161718201 6.654323426590405 7.81091438530814 0.3917687588771447 2.3262197262408004 -1.8030580827402498
P 1.7975089549739134 1.4902389344625988 3.236581306661713 -0.6757812987132167 0.4036567685639822 -0.03457850930581787
P 7.985892601133797 1.1207484255718843 7.30562465470869 -0.06987589905553128 0.40474228831867715 0.9617231943615179
P 0.2790369103177812 4.029772300671282 8.258930081208835 0.16012316267856297 -0.3549711304328209 -2.0348309485453147
P 5.633866087133687 1.589600094800355 3.101549508549082 0.3536724662260554 4.063883599845956 2.5091537161662916
P 7.690786761246172 5.394273998200509 13.885361458718082 -1.4995786924288175 -0.7260337671108658 -0.6925526046342847
P 8.27632063256536 7.189284364721989 7.9960297314265265 0.3752676758983279 1.661231147267713 -2.1564631542375308
P 8.114776556606888 4.4912878887668555 5.6630000042166495 -2.982626219971831 0.7313137845628824 1.6495981910144752
P 2.4832211941322178 8.243087527510058 6.858626241249342 -1.1195156520243752 -1.2130158753670657 -1.4360179369580366
