# total energy = -340891.91262668715 ev
CRYSTAL
PRIMVEC
9.05442963196293 0.00000000000000 0.00000000000000
0.00000000000000 9.05442963196293 0.00000000000000
0.00000000000000 0.00000000000000 13.25207300215204
PRIMCOORD
 96 1
Ni 6.364557673594676 1.6539364140044626 11.373631037453963 -0.8413647131754025 0.6264863091328308 0.5626270485850245
Ni 4.578444698152194 0.2030827040792895 5.9390492877542185 0.11093847342379602 -0.27829646328790136 0.5433712856792062
Ni 2.758386666617704 1.6027245609085978 4.645620415850837 -0.07853948826780022 -0.2988912567201175 0.7735433826560548
Ni 3.5675085931298454 4.524262992189383 4.893844883507698 0.8221801698271518 0.011798021076192584 -0.1683848884667229
Ni 4.826481739118975 4.396495937904421 2.7269587419190215 1.7713517527759042 0.07485638298925817 -0.2201000574528274
Ni 7.400302915371384 6.285340470140693 2.7407278128176924 -0.1768031944374052 -0.8788863642699443 0.2421287551180927
Ni 5.019341086880984 4.489973867777424 11.403647376597899 0.4827462157979815 0.3935039964006965 0.13066397687718143
Ni 5.78900380975243 7.646619614738412 12.378324113355095 -0.87818136778312 0.9338210686346112 0.46143331325281817
Ni 1.8250651310327237 6.500365061251125 0.3929423193570937 0.815234591747254 0.29915170947035574 -0.15217793968955728
Ni 2.3184953195603493 1.4588134588743555 0.4208688961788008 0.9670176099912376 0.5344582994602924 -0.005680338214228927
Ni 0.6834554998647742 9.028072028200626 4.867261078576748 -0.0917708993564097 0.8151389467096543 -0.3575000675022617
Ni 8.536135820535947 2.630067292134925 1.6331854725396284 0.18136047479078443 -0.796107641109816 -0.3343984484877918
Ni 6.757284497530325 0.9081140039338331 4.769897893017139 0.7407746728654662 -0.8126172087290651 -0.3712572691873542
Ni 0.7475644823011182 7.301953702442233 2.462247969078825 -0.1174068547569591 0.5402453384557148 0.522832542295906
Ni 7.423527526968077 3.811498304122467 3.7567244384721623 0.8815353718570172 -0.15759731093291568 0.48450022237461077
Ni 7.681153208746125 3.7012062987192262 12.671379777658625 0.4731228337756045 -0.2275020063438533 -0.13522074300992842
Ni 7.691900816529858 9.150587513391601 6.829283509808914 1.572058861876415 -0.8597771542443192 0.7133433161273909
Ni 6.850717155255968 0.8479654289487147 0.32098948466881416 -0.6032065126692837 -0.4402947315019901 0.6038017230511213
Ni 2.042851323132235 6.675577325971435 9.06749229779459 -0.6755033624614817 -0.3042098407195535 1.0227012767067871
Ni 9.292017701750407 4.963221733011082 1.4997766032504167 -0.5911279842381949 -0.11901713666687244 0.6734919884584077
Ni 6.156142815999091 2.0092412809307056 7.024631920232884 1.3993779171374996 0.7613517256858694 -0.8935629924455126
Ni 3.448008232953179 4.23410474531702 0.47296627247706585 -0.04708281242041569 0.3636483464918447 -0.6188146515201859
Ni 6.086541416644793 5.628613646078429 4.870746128480673 0.6949828113423321 0.368317726943056 -0.5288412103838311
Ni 5.190370205185049 2.7700668806370934 9.584230398670055 -0.8514562930834498 0.5516636075949855 -0.8190639927956732
P 0.14317407147518948 5.580697605310514 12.652244146411666 -0.3936376937650834 -1.016648385644488 -1.268409264535706
P 3.900349420535077 6.103482254187644 12.497778295941451 0.5284303480986576 0.12098300214399164 0.9459584753280934
P 2.374687108866031 8.400726827776284 1.4380217724768953 -0.4356420632213271 -0.5793705865919506 -1.3033063335232071
P 6.348676204300094 7.849502215926361 5.795092008129668 -0.35827088423001524 -0.7224097972050333 -0.4939505691542332
P 4.37456610972228 1.3023076454440117 12.536342016507328 1.1652177820471803 -1.8510186697799282 1.440418122908261
P 4.1094071426231995 6.149016980004317 8.3636081941542 0.2122381382062474 0.3840189397283967 -1.3582214975038478
P 4.696297152164884 0.8260473715248887 3.819989548081679 -0.18133604931075223 1.465265263858928 -0.7883706774768746
P 0.2589231815214425 5.616363003002278 3.744519067543374 -0.28738377030115025 -0.4652927962082245 -0.31683652834462855
Ni 1.5154489152241846 0.8268649865062461 2.6245468064856063 -1.1806194613142313 1.2790693153527133 0.492762462383403
Ni 1.8512777043553066 6.4002683434338 5.082938494052138 0.6353329608901832 0.8405303901995653 -1.5070932556383076
Ni 6.319674866700013 5.624892275565274 9.253538187378624 -0.3046533560148753 -0.43811546446248417 0.11260454827230928
Ni 8.699097442180108 2.322443050810313 10.354626530328765 -1.3073164831238646 0.8243735779340448 -0.6691725351474475
Ni 2.2900644110170294 5.283775699622273 7.119199097971417 1.208653741743628 0.20859642768860204 -0.1209511204647917
Ni 0.47813997347759224 -0.14352357245282393 9.0869068054693 1.6183037517765677 2.390736160756631 0.02987210496908404
Ni 1.4357608814376381 1.2885630215049164 11.41753506052266 0.5774283752639152 -1.6188632238244636 -0.2971915004201914
Ni 4.02800782166637 6.806105981245478 1.5225575478029618 0.9419814929582164 0.4413213729942916 -0.8687775579707167
Ni 5.70306821962993 8.098200230244629 8.149693676097085 0.3074949392287285 -1.1815147194349909 -0.1705620986236998
Ni 5.2230929132982835 2.7834583818267653 4.749410435449952 -0.43328410451211186 0.3894159423742519 -0.05991853073250325
Ni 0.9800242828035924 7.487551397767381 7.0651305723770115 -0.7179232221885894 1.2365828640537284 -0.4229369569498329
Ni 5.256730118788231 4.626197759189604 7.201189673172793 -0.4127795568008569 -0.9511204791450073 0.5664060560114825
Ni 8.24365963971865 7.225624861989945 9.141744052125912 -2.008055994444316 -1.4384679411604258 0.31992982255797153
Ni 4.384408274558774 0.23171552639984347 10.510973891243342 0.08791861548985502 0.6335301033534896 -0.13553313204402462
Ni 8.3646087086109 7.198832805181129 4.968891616746696 -0.6188341919042117 -0.20825832762289295 -0.48396131915200513
Ni 7.368168745173856 6.317945470670787 6.978912484054974 -0.5133726824345868 -0.6359788220042982 0.5903893062999573
Ni 2.5911060821152105 5.2104800930432384 2.6574650902754446 -1.851116371700057 0.18246784892235027 0.37225074344887504
Ni 2.1490597808434257 5.480917792524725 11.3974315107651 -0.28586861920820444 -0.908087668424249 -0.22018336119525306
Ni 1.0025788666193278 3.3392554805602455 3.7916826852221313 -0.12478077862352704 0.3109245337355678 -0.4265280167352009
Ni 3.415919334903012 2.6206597399131075 2.5859966675639385 0.1940907778732593 -0.8832556969822336 -0.18263497062783388
Ni 1.2400041162444633 3.3649428969734294 7.924301763240762 -0.2427216515070852 -0.6548381208026464 0.30573553333546055
Ni 3.7219590510699554 2.5659709858998427 6.78829501303033 -0.10993240075678487 0.35356216590043626 0.7879611007432817
Ni 4.303633709235539 6.45879617554336 6.147159916519529 -0.6595694648400448 2.4320504461243857 0.2197907537425247
Ni 0.47784570451973934 7.244376585427275 11.321550864571694 0.14150091959168534 0.343830283324653 -0.35692285484255304
P 0.2173407141694695 5.650398603389011 7.880385063970805 0.04847275078940684 -0.44960829559343213 1.0262833376310905
P 8.903220500205775 1.6272620647787877 7.9077765240106945 -0.4067240946353964 -0.1560505352710861 0.7053523275021143
P 1.4958370209869776 3.35606050166101 10.286020212773483 2.0350798313313274 0.24644512310525943 -0.03796850882397332
P 4.332417740528283 6.2449033881169775 3.637270255885805 -0.9045434027164163 -0.3053059019972097 1.0174050613048544
P 6.886292008653006 3.6323473625816645 10.490658467836129 1.0122394579435148 1.7191789274270908 -0.2020905082492842
P 6.2668151074401734 7.947190455504028 10.341122754213634 1.7879577367637012 -0.2149444813938169 -1.0142559741529114
P 2.584786090343479 8.421026858653391 5.7874980581311695 -0.14259003889080601 -1.0814435277430021 0.0040613145535672
P 6.674807699466282 3.984646158923072 1.720012923965158 0.9879926695810081 0.45868300420119074 -0.8208475670586572
Ni 5.522378025078821 3.0385850410704323 0.1775211442357718 -0.8566941444436214 -0.7185184325704271 0.024399511890287013
Ni 1.7781179142183567 0.9261775907312608 6.9578944369207045 -0.7824982778564975 1.3534644424348368 0.4009527393692579
Ni 7.124568374648547 0.8646156193055016 9.167399778035943 -0.5323435671101349 -0.12268867198118871 -0.5125584140634076
Ni 2.685100114468141 1.6880082321090841 9.204478572168346 0.017126375267641474 0.9455203593494103 0.3013888263309906
Ni 6.199486369883446 1.8881563955963705 2.5948220199706817 0.061979784136906156 0.2834309563009893 -0.9521152389581086
Ni 4.315259596678095 6.800573724837845 10.379394016707552 -0.2087113559999115 0.4251820442302678 0.5995694301373287
Ni 8.01578681318689 6.975831261705518 0.5657551602672202 0.3490884463997988 1.0830918619797025 -0.4709605360169631
Ni 7.846260730175244 3.7312036235612704 8.0210157462072 -0.6789409273881211 0.17704976323057248 0.3041573902150633
Ni 3.174455809733188 8.350592451787634 12.482749753903171 -0.24026290555394753 -0.057613536748410465 0.2630133118765857
Ni 9.025672604390442 4.959690505516848 9.961476864536753 -0.2090592262576335 -0.3974118160955349 0.2817006038734439
Ni 8.61381377097962 2.3648539984590102 5.867395249238529 0.029072491885924125 -0.26045480712079017 -0.7521644027596466
Ni 3.41931474595516 2.727438626681059 11.501553827925852 -0.9851503150362066 1.6205742929782994 -0.9276105689485251
Ni 1.136892273412832 3.4574520028928872 12.570810418622841 -0.5888972951354633 0.32657483867831494 0.4602588333287428
Ni 3.3428319802018414 8.705444597240255 8.278384282188233 -0.7394199586097846 -1.7257738070357893 -0.5077548220271771
Ni 5.713209180639012 7.913634739879334 3.4821805552249443 0.14279187048896697 0.1942391305256655 1.0803248407575265
Ni 3.171893406192501 8.219991361077811 3.5353617467310547 -0.27503656158970696 -0.50365365537461 0.9302806595815204
Ni 3.27972260677925 4.490797820859412 9.473429534330466 0.2870816656796991 -1.0626060833215247 -0.33603521276026643
Ni 7.30602819570481 5.882499848484377 11.497511930609374 0.2606592098221123 0.37771999409356233 -0.6013722876740224
Ni 0.45056561396236117 -0.1836609528610027 0.1455046816213839 0.5522678168378875 -0.8849953053811597 0.7397467458215841
Ni 4.363057929862867 0.28726626209887984 1.6261882094433615 0.25736331267966 1.0119003294365414 -0.9029783722221417
Ni 6.089339235351763 5.638609736215952 0.2377068423817271 -1.4360274500397334 -1.3813025476930276 1.594914683428666
Ni 8.070964506391665 9.108122239166068 11.299260670096555 -0.10496194412538698 -1.6247196826052408 -0.5203228885001748
Ni 0.10934038486569198 4.81489206939431 5.846522978418764 -0.7011591153563731 -0.6782197329513804 -0.393301136361271
Ni 7.836210313460886 8.8847132463642 2.366422225643629 0.7738128342673577 -0.05054814526119682 0.6706964279911416
P 8.642534421266058 1.5334762843037228 3.5583934989799855 -0.7967141643455633 -0.0949338704654236 1.1380923865852979
P 1.7130799473181453 3.369931887612719 1.53579602913455 0.31536997110143106 -0.7041066280204712 0.15335627626837461
P 4.90956518395767 1.1031192514807993 8.32444869212904 -1.7504463700818047 -0.5691568792837423 0.6021924695824726
P 8.657112052716613 1.5669595644926384 12.642027128195016 -0.04749855980159561 2.1534174254326715 0.25237614387771373
P 6.111676512860161 8.012029224955848 1.3568270816261423 0.822142631720997 -0.7580697125004879 -1.0452413667908322
P 1.9998337287088876 3.5214396559743006 5.775465626805304 -0.9919837930182722 -1.3510900286653893 0.5900002983916548
P 6.787698326128099 3.827271120263379 5.984477171303118 1.2229570457401775 0.4101973978959774 -0.6688760869529513
P 2.1563395421392313 8.401858631460332 10.344501867292733 1.2644757338092545 0.9812833758816326 0.6638758055248823
