# total energy = -340865.961494391 ev
CRYSTAL
PRIMVEC
9.27439854541194 0.00000000000000 0.00000000000000
0.00000000000000 9.27439854541194 0.00000000000000
0.00000000000000 0.00000000000000 13.57401974178502
PRIMCOORD
 96 1
Ni 5.203160078727355 8.000643235146555 6.973584301435396 1.1411568844432347 0.2151707384720101 1.447341846611288
Ni 7.571906346672251 5.515809322634885 4.42275469746629 0.5066561896463597 -0.488931518673087 -0.7140706812117186
Ni 1.9214513083051277 8.577900339334876 9.024429233668164 -0.5003873259185124 1.9273387817989065 0.7082605022878447
Ni 0.618427086052694 4.230859975392133 12.764166224979432 -1.651815510380768 0.0013850532729847115 -0.1854423581696419
Ni 6.396144491598921 5.353794857272817 9.799329332048758 -0.5661859695808765 -2.8859211165385976 0.24135639572844236
Ni 3.8467700407361916 1.640223726121033 11.21110885950594 -1.5704940884924565 0.4528918514407103 -0.05966142041637466
Ni 3.4883794640010413 6.694232930044292 3.238190510887141 1.8649090546087754 0.7111007999501172 0.4458444576756257
Ni 6.049003760103004 8.139610820525524 10.37486789021661 0.5584865440540898 0.6338054685020632 -0.08786565076473254
Ni 0.8082118824945957 0.41194373532122786 5.37179646453527 -0.5471945160800382 -0.4637331650305884 -0.6434424773711951
Ni 5.330070946207721 4.66628370510097 3.9875173831649624 -0.21134313719580375 0.4830488346400649 -0.13107226805919361
Ni 6.590971778441953 2.280620934504496 0.8189330870259685 -0.7295278963070532 0.8716201696258343 -0.1555147173722741
Ni 3.8915468361319245 5.417398681387137 8.81643415600018 1.1676312765846795 0.017859910999556337 -0.9020915987418141
Ni 5.22873886946916 3.402591278953292 12.604875650422612 0.1757140751382845 -0.07051584663237533 -1.444928352073789
Ni 3.7171417745294475 8.81385958300891 0.7281209603738562 -1.9549280042710848 -0.17742283029927508 -2.2819558713264185
Ni 0.15065889198125998 4.645156625583265 1.5730928483014528 -1.0124968253699596 0.0463014541697009 -0.2039028788676746
Ni 2.105214237876597 2.680217663257716 1.9490667569319575 0.8436293408398632 -0.31996196134748767 -0.04195551849617936
Ni 4.918463871547816 4.413129726823851 0.8738653486516781 -0.8527593281655894 0.9612184868109576 2.357416720668895
Ni 2.077122085172853 4.269626960635332 7.158436045377092 -0.9390350087353827 1.6787928103005603 0.43868187848891543
Ni 1.4121848186665422 2.752706361023468 10.871839309918135 0.6810281489344528 -0.9044462150169197 0.04194369142163744
Ni 4.562707223953591 2.1093135219621213 4.607008242712248 -0.7604641808745936 -0.5112605211875905 -0.145791062326607
Ni 9.151679544129367 5.5117564105412775 6.400394948378096 -0.08247584720772892 -0.7916421491392948 0.01304757721257753
Ni 1.553396808454328 4.753110622767675 9.708274216158998 0.3357711604656024 -0.9684312025093129 -0.18977183878293125
Ni 4.31033229514069 3.880686515624799 6.128683826375353 0.08563110500725897 -0.6599710711538376 1.0135250095241577
Ni 6.697395499893078 3.319084595907895 5.850443527910596 0.47888159063625274 -0.21428730742579224 0.043767632004253654
P 8.00376870740181 0.7043247090013682 6.766255125571351 0.14897845891565312 -0.33530039147677093 0.1950397720500899
P 5.54264943155685 3.832682229591594 8.326479746115641 0.26978456916214827 0.15422299514404406 -2.8746113479527327
P 3.3473529621809264 3.9328271833370625 3.793001716107616 -0.8618414929725158 -0.843990580834024 -0.21565256320443507
P 5.772060949972104 6.796983989735535 5.0872569946884125 -1.360200732717406 0.1166218969618185 0.049051763221328426
P 7.499538216085486 6.557472651480605 8.752839606284244 2.3895984476077623 2.427289791510949 -1.9777558007988778
P 6.721119410958175 5.3327790705357145 2.3409073063170234 -0.18527549357447445 0.024795975997757295 -0.7915418761160045
P 1.9007972231049832 0.42563181989549514 11.189838026813291 -1.096313502876299 0.6349418960993517 -0.18019833616188322
P 0.9810644098076678 2.919191086406401 8.628868723091461 0.9426093563502024 0.10308478170733214 0.5065101509867986
Ni 2.9629847955734787 4.162099585776565 12.593785324835572 -0.6495403627388168 -0.3811269628925823 1.8904141408584152
Ni 5.662409737883507 7.995384651263088 3.181261471289455 1.1809315932380113 -0.6121758060474296 1.6850022815453818
Ni 7.038248189284954 3.040379650084123 3.1083693371940195 -0.5986631162729754 0.7038127509291362 0.4681469778275679
Ni 0.9268852293307017 3.842179213536339 3.647529067702432 1.3199087179665783 -0.34095656132128377 -1.6316441776392157
Ni 7.326450119053472 8.718435298040662 8.398734729042127 -0.6126936262241125 0.17323167503606293 0.6815894207545616
Ni 5.105315175781004 6.770236624797405 1.423860358791581 0.07703436447718345 -0.807726713405983 -1.5310518233364343
Ni 2.061281412733766 5.4498034293392275 4.853675706759918 -0.07570638969437929 0.15598548636110557 0.2609091210493894
Ni 3.8362806961644074 0.06765209900873526 2.818183613611263 -0.5031612891192238 1.519332992237609 1.1548166413185144
Ni 1.394832419290938 1.9373569015328993 13.160975997018397 1.1502961277403416 0.8336933126730738 -1.1029469490324166
Ni 2.4429971014035208 8.58663682261217 6.709339070131402 1.0636314392622455 -0.015376482456070293 0.998559646463577
Ni 5.771161333328902 1.005214943198407 12.37132033080959 1.1364368532597462 -1.3377845698057347 -0.1809904930458754
Ni 0.13246808699178386 8.504994293641865 7.401627464910612 -0.1324444658163719 -1.8705575111438042 -0.6085358953019971
Ni 8.993439758909402 2.5483357182437723 6.827446678666113 0.007445914755083951 2.4516623068180423 -0.36097568475568803
Ni 3.6843753250403997 8.407205037085815 11.067305602809794 0.8787123005859254 2.723135576536523 0.045387941216496024
Ni 0.5048472388088284 6.541372295886779 8.592123556695872 -0.1639960153704079 0.05807479265554514 -0.7663597204234222
Ni 8.323216085324473 1.57498760789121 4.647934307899136 -1.7390990633897856 0.13475717310994856 0.006708522368427157
Ni 4.969881136186164 0.7873537605300135 8.602398662664998 0.05377719372145577 -0.1306287527638718 0.12499135197243635
Ni 8.17029980477666 0.7190125737213812 0.5122862337522662 0.4655249668236886 -1.8931315397895785 -0.5262639365749582
Ni 7.175212504613079 2.1789086074322084 8.427687545915864 -0.535167409712175 -0.4015494924129923 0.004607931085656581
Ni 2.073801850551545 7.927180725550532 4.509954445948013 -0.7625760850112737 -0.6681458936551461 -0.9380006539335976
Ni 0.42160951331655366 7.476955056021565 1.9461481037606574 1.803844326086971 -0.28884492822770896 1.2452191995724877
Ni 4.715799718070692 2.5050150033942553 2.1963166531981138 -0.8780926647240554 -0.7045465437713673 0.016533735988965074
Ni 2.1079038134078236 2.6923578507417707 5.532594128829416 0.3430242424835899 -1.0576621090526883 -1.0291588594066727
Ni 4.110506107568929 8.680317520684312 5.059810340112163 1.6910896253900423 0.20034601475435174 -0.8835914830550976
P 8.648163181488577 2.8249539244312474 0.5426283555038569 1.0138433120955248 0.8166690102009354 -0.4980193399069682
P 7.839964283151719 8.174844259984594 12.70267603625672 -1.3421379616784241 0.8127732746909551 1.0339418826176128
P 1.7747396002759024 6.636425604919684 6.697951036356252 -0.2926378196112379 -1.59037977167279 0.38340418896253325
P 8.822197267155714 3.7207495155006454 5.017717555608627 -2.280560790751105 0.20136597137843384 1.3124802867129912
P 4.03482701675924 1.8300057402434196 -0.09720589689772502 -1.3453603252704636 -0.3639381098181216 1.5068736834283338
P 4.082849851589212 8.031220926617088 8.904054962168518 0.2670316890073595 -0.67226454380921 0.23849321524803446
P 5.164597130248594 7.568938539189519 12.920579881157678 0.8818454468982685 0.7983678978989025 -0.7056050669428687
P 9.313721832686586 7.497516397237874 4.346319743188342 -1.2186393922014302 0.22746266846548566 -1.1447597713031445
Ni 7.19423429569772 4.7584063042446765 0.26321670052325935 0.7004980847336065 -0.9122394858090934 0.19171893520697306
Ni 2.3338374324292506 5.181643474477541 2.1260575208037653 0.10426517516867849 -1.948630087077515 -0.2776328615619735
Ni 7.936668435096895 8.905277327875467 2.6876149234084283 0.11365021592800428 0.7110092686775755 1.1696663047368372
Ni 3.928894838422442 6.056775705948411 6.481933604086507 -0.7565977559406518 1.0930823975335109 -0.8511500746969406
Ni 9.047314739119388 1.992873450256772 2.5317308353778816 0.8416483058540923 -0.09994957851246011 -0.9069376139802058
Ni 5.921063434402065 9.1247281424268 0.9851340158183655 1.064779693934076 0.20559286497558785 0.3846174925443441
Ni 0.5311846753384064 8.678917086528397 12.789685659571582 3.1715007437514733 -0.5731688286566128 0.7631090746966083
Ni 5.566289873036495 2.92183428994571 10.169329600680427 0.33630877813662724 -0.5224576754549906 1.3739461073279564
Ni 6.2106565239281135 0.7802310225714545 5.751651708889286 -1.0905138654753865 -0.3322076114840601 -0.139944630848159
Ni 8.740508366193488 8.38324926606113 10.750555219937063 -0.5278719044920264 0.3175325259703886 -1.448437393668312
Ni 3.43354922075755 2.9462816040847226 8.518172286305038 0.3045194015401724 -0.7301542170371426 0.5921913925057026
Ni 9.25546933643957 1.1693903433838388 9.591266551272577 0.31095847229729673 -0.2754155421956805 -1.5805247332555812
Ni 9.133798504045902 6.155492402342815 10.764536375500251 0.37676122972471887 -1.697205251369477 -0.17985200856605799
Ni 8.593082529488731 4.218367360769504 8.861621807244305 -0.7643493748616127 0.842417322809633 -0.26743098132830717
Ni 3.1368612164680933 6.871086432820023 12.638009366087646 -0.7542896766327655 -1.0552558136040404 1.6728702741685384
Ni 7.753638182997725 7.081318495378117 1.0979607819134873 -1.8537697501625043 -0.7354172652082946 -0.5790044615017835
Ni 4.8292534334965405 6.29536887876337 11.072409304240256 -0.9837963721114734 -0.7891376375498861 0.9770217723918012
Ni 7.207051514263773 6.286456181916789 11.999786076685284 -1.3879424216070484 0.5249593588309217 0.21239523260940196
Ni 1.1775147163678201 0.5306291388752323 1.213405710672283 1.0087350443346819 -1.8485334414642292 2.856047983128249
Ni 7.7449944437042655 7.3526966664788915 5.849696938840721 -0.12119434682384934 1.8880767509744902 0.6736028030046592
Ni 2.503762959612477 6.756315752823711 10.05605488114338 -0.4044988048493034 -0.9942337653947136 1.6497393445780297
Ni 1.239949966285814 1.094137874899792 7.500066856793348 2.605351026725171 1.750635089053843 1.2524601974056173
Ni 6.354493168458441 5.558527201589472 6.861178593026887 0.024511354877802947 -0.3239417719308421 1.313259588081177
Ni 8.822596066286206 1.3631325256159972 11.753852217549753 -0.6497815322153454 0.9400721917506455 1.696713399334723
P 6.029536797895953 0.8352921983346954 3.394414041898525 0.4975953649956721 1.1316707993296704 -0.077467338249544
P 3.5708288656307148 4.460679567336263 10.723027878094875 0.34191712546234015 -0.7274442743051472 -1.431053908084542
P 6.972872955079378 4.172561107153198 11.639490538522155 0.8778520094681591 -0.2323292525291676 -0.8546169501996186
P 2.435123137175895 7.025301129141532 1.1937588251365912 0.47837456909284715 1.3733254430248218 -0.04969762433544345
P 1.1511105041698806 6.2713018149580835 12.425087727998328 -0.4483409988452343 0.15074892055251454 -0.3249416739502662
P 7.071534005083481 0.912085144390248 10.58556367269388 -0.5068490223834562 0.1379823649154656 -2.117103678603302
P 3.933142512882103 0.9767610889577051 6.621148815902317 0.3096263837494345 1.236495960766877 -0.03699791738058789
P 2.0223289395228963 0.7992472490170657 3.6851154220314064 -0.13068583125405234 0.9945695514675774 -1.0813034026207118
