# total energy = -381175.11458744534 ev
CRYSTAL
PRIMVEC
9.18411587998093 0.00000000000000 0.00000000000000
0.00000000000000 9.18411587998093 0.00000000000000
0.00000000000000 0.00000000000000 13.44188193501895
PRIMCOORD
 96 1
Ni 2.368151860163287 3.614537425173661 0.716627386521317 -0.797465183578975 -0.8945276703516272 -0.0984861065930562
Ni 6.405654563103582 3.727198976013182 11.958422521223675 0.608215535848101 1.4211417911771527 -1.5188069445308099
Ni 4.470745006498845 4.887832450032391 8.050491163482217 0.179290222525317 -1.0694853269398614 0.3758567156325785
Ni 8.64158270537035 2.368372278947028 5.948234155791863 0.2912031440472404 0.6798971206538033 1.325323975444879
Ni 4.8471008956202875 1.2161422710579368 5.475832618478561 1.0940072233406257 0.032596702989098704 2.139911163416121
Ni 0.811555327797291 1.769751598770947 1.892670888758806 -1.4109949325511375 -2.2396352561813364 -0.15894611165132627
Ni 9.216168554002696 3.306245019648182 3.580501091317684 -0.8227424700885251 0.4734658189373201 1.4842253499011986
Ni 1.927846971409042 1.7051780792508788 5.375798308712592 -0.6233066258532685 -0.6896356880978058 -0.3538460156894422
Ni 6.035249981143141 1.6108388398098124 7.675449521358829 -0.016837897492945196 -0.21640743909258858 0.10816990953972339
Ni 4.509456055393325 8.43359921467892 2.127957837874532 0.22232560434923646 -0.8283963259401927 -0.3225495195690058
Ni 8.214264156624836 5.267963010825395 11.329476808462854 -1.2388269228928988 0.05994424176411612 2.585351957895425
Ni 8.884768912648388 1.1156864103680628 4.112180586871681 0.8382971299936723 -2.3389474582201135 -0.47550213264105856
Ni 2.1886115766904086 7.575775228939636 2.5377328882574766 -0.9493111938504104 0.885911646547842 1.5965733020780115
Ni 4.745340890459947 7.357542264804257 13.166699515348462 -0.099125539949268 -1.1677667737212791 1.9922097714406786
Ni 7.53415281527658 0.16196464070434555 5.847286026484968 -1.3750097727057802 0.730946888141767 -0.66379095912056
Ni 2.9507921785181597 3.0016354446343727 9.18459631846662 -0.8084440511879819 -0.40514183774994095 -1.1885158333431725
Ni 8.170538580400253 1.9603495578948225 11.175540003544667 -0.20128498162885336 -0.2761652758775115 -0.1636715421514536
Ni 2.5610642165164412 8.312855641768902 0.3874631589987816 -0.37261738275967443 -0.5632888505387396 -0.7491970926012065
Ni 6.7966683013437885 5.0272105942844965 0.5261313710849215 -0.3745079149141679 0.16189850941143083 0.610411000837523
Ni 1.2696489308110182 1.0913301347647035 13.061705782948323 -0.4248717120787005 -0.0053512370095843325 0.030518223193515184
Ni 6.302342442341067 6.091410850417102 7.317383799229878 0.6243288964701957 1.0900037586081872 -0.8978847597493181
Ni 6.535279176175157 7.08448012821335 4.7671632684618865 0.40929262669352096 -1.0177809565870342 -1.2016243457006723
Ni 0.03710658383116632 3.993997545499453 9.812641069448903 0.5429807351090068 -0.7485813133940785 -1.1228575719134148
Ni 0.5948974395540594 5.08241631549558 6.637305520699183 -0.3714035649572313 0.34647569136730005 -0.297488719945636
P 1.4298015454306943 8.832630686177698 4.322183664669138 1.0253482274113308 0.4765943372639727 0.04039434465664656
Ni 6.735621482363574 2.3394882341609926 4.3781691173277055 0.5440994220944823 0.7093221107831397 -0.9833068340695645
P 6.972645147812857 3.1790541973137456 1.9476075153714056 -0.6479532207573551 0.3312524466596424 1.3641795148594957
Ni 7.616782306831416 8.626805462743729 8.055316498022943 0.77320965346572 -1.2194536605726094 -0.32173576541845883
P 5.870257337397157 3.201481808559373 6.206426290184655 -0.2431872782895941 0.772941744516314 -0.342674572453655
P 8.267577949942144 6.3004137779833345 8.160459013102106 1.2800627896142343 -0.05288553514512182 0.3367024140306202
P 2.5872022106217054 2.6735237168042 12.060030070058595 0.36735690569168344 -0.13630960519873297 -0.5129816176437552
Ni 5.8859438075067105 4.828172432566546 3.260126981208413 3.1676222346326735 0.19275997487697769 0.6559089852693221
Ni 7.138648044317654 7.717146326361397 2.448774622374483 -1.9191485326786302 -0.49150930670259224 -2.1668771504820037
Ni 1.0865268421023515 3.1371378919390356 7.712737032274982 0.5510298306657284 -0.45966105184374384 -0.3839387213097646
Ni 3.978816201769305 4.621327772257775 12.814482238281434 0.9328417354404772 0.11410890073197767 -1.142734770453316
Ni 8.658049825338988 7.247948208705128 5.90661817101 -0.8540160833908259 -1.4425750213502642 0.9616167506906407
Ni 0.41423393869570174 3.3338983928916646 12.579087835008634 0.6092223798460604 1.2424699189621247 -1.2431980553774007
Ni 3.947920835581635 0.9730938255197378 12.901518268687889 -2.4235868887380647 -1.2746547312247853 0.44578043720690963
Ni 7.6709226705877525 1.0018676609139026 2.120967807195151 -0.5890446193466049 0.11551375149930429 0.07000933930960201
Ni 4.426826563838489 3.8286742735778567 10.442312327372871 1.3724065307549784 1.1235296582797747 0.6287144271324011
Ni 7.217732467100658 7.107302656446514 10.050239660559109 0.39259331166096906 1.08011606718083 -0.3183802186826646
Ni 1.1109474065176355 7.306010189988853 7.536473641387051 0.26434720019666086 -1.2364445387036511 2.3248421291669836
Ni 0.722012952137384 0.03002654881509174 6.508613095400513 -1.688203562091499 1.2362648185926772 -2.7886467708654554
Ni 1.6828790456291005 4.909148783243325 2.6763726295840495 -0.029316232465614028 0.9624017084857813 -0.26825810521529286
Ni 9.039429425906523 8.711115647524586 10.227511467382655 0.13877580735103842 1.8528909471019765 -0.23440387567000917
Ni 3.552223198186936 0.35827787520830057 7.441116801894381 0.48077700788675265 1.7594033221647765 0.10909679222936695
Ni 8.901254400849004 6.027884320119803 1.6064929161237227 0.433874172687627 0.6245330420612019 -0.4618845418576239
Ni 4.3552180114706935 4.161809712854122 1.8275040753458356 -0.5723496751894273 -0.45712003058944495 -0.6681242963885913
Ni 4.56659962507813 6.272411408332263 9.984024939511771 -1.8270891555475242 -0.05141152170275662 -1.1253145180943394
Ni 2.0680057655202293 3.93270275538753 4.763682488501979 0.5918954585318387 0.964496643341597 1.4663713524389135
Ni 3.200884841020075 6.019122673466105 1.1641050698631275 -0.15605670591867318 0.7666664530305636 -1.0436215717992219
Ni 0.45923151498478904 7.7474998297057045 12.45368883370369 -0.031242760064365546 -0.21776498156174753 -0.3128235505304935
Ni 3.4708886669865775 7.440777908014379 6.877996403662955 0.5331745476518625 -2.60168643338939 0.43402226822971707
Ni 6.033073345653701 0.1894967836167705 0.3371139983227872 0.8726316416094841 0.16554793323856004 -0.13852589612376143
Ni 3.419411696867109 2.757576746337362 6.750082791400168 1.1513685348689138 1.259847491008624 0.37910041938085676
Ni 5.173329879672674 1.841121364123023 11.44639427865177 2.171526476328557 0.3322603190988665 -1.2727397735902597
P 2.348093750842873 2.720068816637468 2.876106028882383 1.3861375071878257 1.0491067632835094 1.1855847757393065
Ni 4.099082200647884 0.6850138224632913 9.848315849597352 -0.6631193869748321 -0.27615679123707926 -0.5510074620682253
P 8.279866297135694 0.22310054560965578 13.06704175433805 -0.9792869142768941 0.7682240273256704 -0.31217383276163657
Ni 5.240768843381373 8.086999861362486 8.544479965428135 0.238012418956874 0.4610502188817866 -0.027883870894461652
P 6.528648244430954 2.608546096180607 9.567797129234814 0.286463572479726 1.5186315952952103 0.7156794204597352
P 5.399396894746842 6.3328153391932345 1.756826792339345 -0.26929863066466525 0.6441677855729938 -0.11415595191982919
P 0.8055424870591614 5.64819459689428 12.694795757121772 -0.7529467894516259 -0.13769517269234996 1.0311928591175659
Ni 8.617465216782712 1.7616144720045153 8.575611363396728 -0.7875484386858953 -1.0778588957155373 0.043814683192105186
Ni 2.7774511733379916 6.749976255654694 11.985212587564172 -0.22902281386375398 0.08373440220517837 -0.17985972187554186
Ni 5.2759807440839674 2.744718983952481 0.237937484990209 0.05859646948697005 0.1224708995434278 -0.7297510680614528
Ni 7.5659298565992135 4.618535800997058 5.3022307844042995 -0.5225492067275324 0.25317524274024145 0.21980309503769888
Ni 0.45060671165933097 6.523514323592991 10.179551095275452 0.8713486611320026 0.0234065518493984 -0.7863958131386908
Ni 0.09279906318967746 8.435573799616597 1.2699914983374152 0.45570360985789266 0.33686696463294247 0.7795898459604509
Ni 5.173063540308988 1.7924547334962502 2.211969538885742 0.5633886093413975 -1.2830031031894806 0.9208717075627947
Ni 9.093413659691043 3.654736300858391 1.377671584664394 -0.6573176926913905 2.607056182341736 -0.5682734482375246
Ni 2.136427429639772 8.908142487840903 11.366401546797434 0.9583149400109174 0.9403676115038773 -0.5975655123334226
Ni 2.0010168234950014 4.7400049190702225 11.211282746151438 0.6576794469061835 -1.966056252973762 -0.3958722395225569
Ni 1.2213221124758455 1.7823613900241189 10.099732861624911 0.6660131635828594 -0.758923575860351 0.6081011217574238
Ni 5.420731596189754 8.151555012650576 11.270399982362322 -0.548655674006597 2.4687611712818582 -1.4461313712429547
Ni 2.2358914058028123 5.531896136123036 9.034087025635605 0.7473541258551969 -0.8693066910013092 -1.472920980631973
Ni 4.397244526237274 3.1794858507652384 3.944654963935875 -1.2956778704436718 -0.13390408108103388 1.545102130781913
Ni 7.245358287996173 7.312521728225196 12.755553276448328 0.21922074017166762 -0.07180525486776021 0.4057025953494174
Ni 3.855666390470117 5.980512649847507 3.564733800987425 -0.655619221943045 0.10059029742025258 -1.209987115843071
Ni 4.095197319584452 8.003038672989216 4.701970739524147 0.4943254359951486 -0.3580842221405059 0.22281334261893238
Ni 6.697149220484814 0.5411538296084565 9.880899256303838 -0.5255887648848044 -1.0843401325645068 0.4040079812558139
Ni 6.027627164872105 9.26447700410589 3.8362732111473212 0.2666581077180246 -0.049285476498689314 -0.36614514477176946
Ni 8.9204767556144 7.584187879185744 3.666824434323376 1.364465935751663 0.2936081539443073 -0.24866732756755885
Ni 2.91093311512503 1.0371071139644643 1.5767731167826704 1.0648336871004629 0.1940064456895691 -0.19546091874790852
Ni 7.688712303258833 2.441523762801009 13.535303092163419 -0.4606486125679938 -1.8136697968178248 -1.2522249414663593
Ni 1.9361677804952577 6.788420965185487 5.146775845113099 -0.5974032757239454 -0.38862275704899524 -0.5524177121521906
Ni 3.535030533055153 0.8083326214966806 3.8197665994799315 -1.7614689464445534 0.1417729423061494 -1.5943019895453316
Ni 4.903904653013492 5.350326163016545 5.473427298500989 -0.47798041897822197 -1.3222396800926002 1.227918503510511
P 2.8608613147519093 5.018889785198281 6.737299420354801 -1.2307107215436675 0.30402060752688287 -0.7137490362062417
Ni 7.669655262581242 3.8148705472460884 7.726043897931735 0.5611404367371691 -0.8722400625980204 -1.8571618065631885
P 9.135577936197462 5.476846544883768 4.094142064657293 0.6191082715012047 0.2571465686831636 0.28490754084651576
Ni 6.763274855607056 4.951900843173053 9.322294687904302 -1.3951281407222103 -0.793650180708259 2.2443295763332123
P 1.629556068195803 0.3161971741573833 8.227749194131778 0.133194456608519 0.7233302521367736 3.9260138492489545
P 5.897157613129525 6.02321878919729 11.448719696820234 1.5729466637980072 -1.556564880005874 2.368646527946443
P 5.736288637462691 8.074224756021508 6.3583600394055955 -1.0009476870797795 1.3253792541628464 1.0227354723788322
Ni 2.7250649757355925 7.844787170379304 9.394961250434053 0.02985359302632278 0.33391662375536685 -0.5066595320804693
