# total energy = -381161.96262710687 ev
CRYSTAL
PRIMVEC
9.31988072558942 0.00000000000000 0.00000000000000
0.00000000000000 9.31988072558942 0.00000000000000
0.00000000000000 0.00000000000000 13.64058750988131
PRIMCOORD
 96 1
Ni 1.6120224739862552 0.33660240095725164 13.478619208284243 0.23964301258176146 0.802397844993902 0.616989168275673
Ni 0.27392993163629853 5.953250833607335 7.7166579927308625 2.5876176140011498 -0.3438847907116723 -2.445763424835104
Ni 4.2029399707527 8.88791348785002 6.845773862598759 0.23155869291173026 -0.8528470027833893 -2.112938234371703
Ni 3.9049647470770155 6.667992479537783 5.326226972229407 -0.09564375204825463 -0.20883759716513065 0.5422734246293371
Ni 6.845713283374629 8.31587785420914 9.184221384880027 -1.6733654686374018 2.1413095864255443 -0.944173872623845
Ni 7.81955693085042 6.639613443002926 5.382930058003372 -1.779201073616994 -0.33963038631069253 -0.11341778820222402
Ni 1.1069967821140536 8.22438458601121 1.954832847434761 0.7117330342174775 -0.9631151896130382 0.07455530680907159
Ni 7.474003716530911 5.261613171772096 7.562614345648305 -0.17800158562088056 -0.9245262735962464 -1.3828045861598506
Ni 6.478426107413317 3.6360302714613026 -0.022095573010456473 0.07416912711424646 1.409477724575663 0.9164776922601572
Ni 0.07636430596245031 5.629813696035678 11.956084364183173 -0.12544823700419686 1.2992722726631494 -0.39809727219833374
Ni 3.265173581216624 1.610773609981109 8.019342552091627 -2.3613247974740497 0.00016892147769648327 -1.9072278699816443
Ni 4.866888267220103 1.9221135424879878 5.969352791381152 -0.7637978732335168 -0.26780301995574524 -0.43026048719443966
Ni 9.165860288040182 4.343735407512008 9.424895186444951 0.6984633136917648 -0.193542361568957 0.7537273763713922
Ni 6.46189263916608 1.9220110238009982 3.6831087165030687 -0.13574447672388235 -0.6024902033285495 0.030610782907321474
Ni 6.159238835411413 3.9321881184130807 2.2841023663080633 -2.608359474534192 -1.6757177709196625 -1.008520614331031
Ni 0.9904330350068414 1.1137816552166404 11.295906891420861 -0.3253983018717106 2.7229825958984266 -0.36152358683935804
Ni 2.2105545282736374 5.048793697462253 13.49156359049878 0.40077147659638723 1.9355444575381509 0.7566939151988838
Ni 4.756978914886582 3.7389869928408 4.335646683108526 -0.25587618661117223 1.334614142497553 0.12779334019760571
Ni 5.230121295105008 4.1910105235393615 8.325873426190627 0.4288386671462486 0.9355951298158984 -0.5929488394970176
Ni 0.6239818523385264 2.7906891381866976 2.0859458602019294 -1.3098053109839893 -0.6610018264111971 -1.0734826210247126
Ni 6.833998193415905 3.2007825259064995 6.045631354441756 0.840449657560301 -0.3614294844636549 0.11655736227247024
Ni 3.490630813668097 3.9490664222438285 6.5413436895949815 0.38873717113967243 0.623663494972055 -0.3525869464713605
Ni 8.329829715520363 4.4605507913963764 1.9103919286128186 -0.02012171045053954 0.2170666699431423 -1.478263733001125
Ni 0.705297810882576 6.969947292244793 5.349292744814011 1.8219335794885139 -0.13686213526809332 -0.33419738822057926
P 4.292038029627327 9.305322981868626 8.832566444708506 1.0637347976093292 -1.6036075832169736 3.032898228753506
Ni 7.293291231010095 8.943077861331076 3.0169161927786563 0.5612314537890786 0.3025885030660466 3.7581884328301274
P 1.4757937787383042 7.930910864682433 7.92594523227988 -0.6440466866140974 -0.6975336027886438 0.41047019194138984
Ni 7.0406013073419205 6.449403999114615 12.663361717712714 -0.07410896330027236 -1.9216023935357616 0.39457331820547525
P 6.444921136528978 5.842148536552479 1.2122676298553263 -1.5322936661633353 -1.4388350946918576 -0.8866053301807569
P 3.148283638287172 1.0535752263118197 4.986111908260664 0.6749130371756505 -0.6456076033433139 -0.7087994055104503
P 7.467256122950865 4.334806961863275 11.913389059004247 1.5130870113278974 0.7184538978810788 -1.5093810232312197
Ni 0.6124335882431761 4.731162845526465 3.5203901245250604 1.6530740653782177 -0.7081232053790321 1.417466142097778
Ni 7.784402341093612 1.2070363808546642 10.098386108694962 -0.10688795750350624 -0.5993411161766066 0.6985520167508291
Ni 5.484460837645651 1.7222487022613813 8.323022474704253 1.5811212291889996 -0.3468366742511446 0.12702843700712316
Ni 8.534913688902806 1.3110742083878708 12.779852769750969 -0.09389385923668346 -0.6290671824861296 0.8343306891467567
Ni 4.683901730824244 1.9134087739745043 0.21826601255318215 -0.41858202241524683 0.833647289926487 0.8936241847007513
Ni 0.7666981164967941 0.941140186326099 8.643003800536293 -0.3050030260448102 0.05595543231969717 -2.193188020462391
Ni 2.491194773967439 7.9603803272516345 4.041064827972197 -0.3391737583892481 2.1479497174498814 0.3447710499713675
Ni 4.542519141584905 5.95535712663094 13.161120698653475 1.8382904235799824 1.4823361032982858 1.2801566348796212
Ni 0.0557552539133435 3.574528379148158 13.013338147381795 -0.4384219399593094 -0.4170079930599076 0.7539672602963402
Ni 8.830018389342783 8.188540325087379 13.502831326187001 2.9691659807018675 -0.4591802555525834 -3.3031396829474144
Ni 6.352095125400183 1.7890722464173507 12.351060905512321 0.8530436921752276 -1.7523232753895437 0.5502266180381428
Ni 4.354313472033211 1.8619537129863442 3.1271452170179734 -1.0948173779467467 -2.542931069727053 -0.7443752457325309
Ni 1.7564060647901996 9.147155287604892 6.124909987078903 0.4617220481378306 -0.13435145303109763 0.45614943914605954
Ni 8.434081900308184 2.651040046745547 4.066572409283282 1.8357681713787608 1.1954364717224057 0.25275101071862915
Ni 8.715765972633154 8.214179316715423 6.966889439408311 -0.04765873952854372 1.0975782285213356 0.9108958272970055
Ni 1.767739039642872 0.9882521829381529 2.920285806374483 1.3047692912219786 -1.1267864746541756 -0.24084140376523686
Ni 9.236355865166509 1.1653671945336965 5.752590075574463 -1.4611455852635997 0.1504830684856376 0.9829391663175007
Ni 4.175642040371552 9.178703083555794 12.742491232259692 1.2145014587736567 -0.4923441438990617 1.9010929607285
Ni 2.11956453363002 4.243537370800595 11.524782656089409 -1.762539039580281 -3.3895094658929112 -2.6987468632795135
Ni 7.000786777267402 5.306441797628471 9.712480607188269 -1.8776367865880887 -0.5096638661244319 2.6314145565814426
Ni 7.565319906996767 7.535589487769774 1.379335810125886 -0.7882408367672296 -0.9196733163793194 0.7340867193223293
Ni 3.0947595637979486 1.9120387515210977 11.825488604791271 0.5093144532048131 -0.04531800721050905 0.022736008144935038
Ni 8.450857685451943 6.9051834417092515 9.24028419485434 -0.11899656784158216 -0.07243183270816557 0.8981734946343306
Ni 5.5785823121827685 6.816961451614354 7.807776601727249 -0.4850093008005454 0.22979388770182363 -0.26773102906722923
Ni 3.970474188063391 4.312933202011941 1.112563546817591 2.2623283269034777 1.1345218956252203 1.3403531018638595
P 8.939787943466772 3.836202667748878 6.247825232839155 -0.641159080653657 0.5659376010154963 -0.6779482244575485
Ni 8.96018916217771 6.697564460793974 3.117187856547089 -0.6666274001280907 0.8785487784248676 0.28287225558404183
P 1.2098975842097386 7.776461802792233 11.885384681670933 -0.9224164263420952 -0.28596040759106234 0.9736348581974393
Ni 8.837259936596505 0.36951276345705075 1.5637156686767404 -0.2466454120415236 2.4903563809541303 -0.4459573291044061
P 2.8233646396944843 5.137723998485442 4.21307254497953 -0.19507499616339952 -1.4029342670301905 0.3166478093725901
P 9.041859276185905 8.765385017136136 4.433054347557694 0.09698098280243943 -0.7940204195634841 -0.21177096876184176
P 7.731539978129503 2.2569302543154928 1.1827907113816163 0.5463175127917236 0.399463299307925 0.3239479425784291
Ni 3.0268083140850925 6.365133638409137 7.6688059975963565 0.8527842678662539 1.9420647751551714 -1.10089855114382
Ni 2.7690576952318855 8.981121614084865 11.10294715075704 -0.34266403093069375 -0.48062582702086903 -2.011543181661968
Ni 7.762509941481008 8.253546492519442 11.255817424867598 -1.1451258963933115 -0.4790659387329168 0.7490220004759229
Ni 5.7265167775088095 0.1833556036690216 1.5808623850697883 0.7248248344044291 3.4701387468102043 -0.23712795946939164
Ni 4.982892821489191 8.63366714411573 3.6905021778111484 -0.7502831265765337 0.5172375647066317 1.1592499944995196
Ni 2.156937254978059 4.746009415378691 8.719881631921757 -0.11861141658802153 -1.932264758345614 0.9493597877001585
Ni 4.340669166782955 3.8078422709752915 12.500138920192327 -0.7827864985208776 -0.2923411143064255 -0.421675573738906
Ni 1.5360840865688437 2.426104727609658 4.765529905369581 0.5296984161778039 1.4821129315438861 -0.7170084236838038
Ni 2.4188352207140293 2.9734053980441297 0.36613523871477416 -1.3467021840103388 -3.0315124041495727 -0.7416493621609357
Ni 5.74291976742715 5.247474912848162 5.923507366547451 -0.27930793527155123 0.711358167376562 -0.1291953627514549
Ni 3.6858916328608053 3.0714412224481245 9.62580758125498 -0.29247995387713493 0.4613952609260312 1.88343385288584
Ni 7.425512377584814 2.924047310198939 8.685097973414237 0.15660795043645287 0.8713908272238476 -1.1699218723910692
Ni 2.744005856083873 3.294717602830909 2.6968127765102907 -0.7085579789236055 1.7497012643856642 1.2863635350212814
Ni 2.504456964111643 7.489223081608554 0.08980543781485469 0.1249036773546365 -0.7129831045744947 -0.24342716221454208
Ni 6.026803331582079 6.507625293444091 3.2986757561367726 -0.6023649906045948 0.8439085626431789 0.02842740210275749
Ni 6.557999248278542 8.590572016057541 13.082769394139554 -1.4702202938713582 1.9192768307263783 0.47399880862265464
Ni 7.194127701049214 4.74035224783299 3.916854118803622 1.9859735607229798 -0.23514641026298858 3.1530656769747374
Ni 0.514784538885551 5.91971790308109 0.8562398016896664 -0.8432236207610123 1.2276020007113568 0.7706953716842986
Ni 4.93552918809998 7.638294572372115 1.1904497892878054 -1.5234341588901763 -2.7170523464569207 -0.09367917212271608
Ni 1.3058923547545764 6.654842127961204 9.982004099260141 0.7416935851353098 -0.03415736260799924 -0.4601361917079495
Ni 5.820349335746229 3.2648473853943845 10.8421936663631 0.8297237865023646 0.7123017622367539 -2.2012643697126215
Ni 6.755403640017398 0.44180614555794917 5.659274770712309 0.31878979541625746 -0.6555742276377226 0.03364288486542593
Ni 4.623210668126382 7.699022914592518 10.538172636119215 1.3194955416885596 -0.29009217037124874 -0.9540692773606859
Ni 0.1451273172786511 8.795385712901558 10.16152829999994 1.2956963823864331 -1.5788200918596487 -0.9001370461186046
Ni 5.370413458310002 0.689940511571529 10.719305448256689 -0.7213404754002545 -0.6779577375392454 -1.1593584950529259
P 3.5272206650427607 0.5200726391580889 1.321171367068286 -1.1546896288223467 -0.5715647173942866 0.1740845099546615
Ni 1.402586116347071 3.0149534259168367 6.987800455590006 -0.44522199360027837 -0.34780186637789134 1.4806831410758952
P 1.4766046083535858 2.734359779626212 9.43033799673604 0.4419196686999228 0.6499669087532742 0.9475299335802713
Ni 2.57576337085325 6.3949013371586725 2.5360849110360086 0.05385844058135241 -1.2801892878897694 -1.9373943662626956
P 7.854422604307531 0.9531721522264277 7.556040101848078 -0.4357911872046817 0.24830248802897234 1.1665835520464554
P 4.383885453289403 5.041151395341208 10.61640091820875 3.373480437454506 -2.772882051832031 -2.962921542454052
P 5.850154314018306 7.664679154450992 5.5343138111525825 0.04777289650890482 -0.18589487232602825 0.4005076814120393
Ni 3.1422629953966896 6.135398580746006 11.498523892399108 -3.3052310182588047 4.830703804845564 1.149825101641194
