# total energy = -340887.41071833257 ev
CRYSTAL
PRIMVEC
9.06511552487229 0.00000000000000 0.00000000000000
0.00000000000000 9.06511552487229 0.00000000000000
0.00000000000000 0.00000000000000 13.26771288657454
PRIMCOORD
 96 1
Ni 6.926772735253852 2.0362788042797364 11.188516588456364 -0.16229934439427532 1.2096112205608909 2.0853772940342985
Ni 4.880368196762973 0.8646570221020251 5.849894103062114 -0.38468048457179554 -0.6819177506282579 1.0772395169639835
Ni 2.9949873080415843 1.709798663174733 4.4852297760323925 -0.48361113490143814 -0.32117500781898234 0.6437970324971365
Ni 3.612720550731001 4.3326992331406275 4.409365635955215 -1.0187710884144456 -0.5953859881836004 1.2857732097354502
Ni 3.881211146850618 2.955118929294401 2.499544288857227 0.07622061032663648 -0.8206331370550062 -0.4791664688665232
Ni 4.959551982201047 4.966368949190105 2.4377301715677393 1.6627990059754654 -0.8091158804440258 -1.5651233110988465
Ni 5.502035699656182 3.438425571610471 0.16750248794379902 -0.3507882026997249 -0.9792239222494427 -0.26602715900224505
Ni 5.612938324847869 8.032843759460041 12.52900697151039 -0.3960761280032469 0.2601979539149777 0.5587197431108184
Ni 1.9245784489084785 6.788013009586927 -0.024262782109330604 0.22857492769305796 -0.23843639386816998 0.5831449660327183
Ni 0.8349316012857703 0.5413406063682737 13.57804482043511 0.27389164935198634 0.6773095624322851 -1.2161325666191765
Ni 7.687154638235601 9.232820316963654 6.550933039287909 1.1146434115337385 -0.36584741102569246 1.08117536168328
Ni 8.45671950339809 2.50733847531626 1.2136150240395696 1.7310057448586897 1.0025114320224733 0.8006392104315824
Ni 6.87996954301381 0.9202270877132366 4.5033935483142775 0.5781243728896752 -0.058077620869022566 -0.26615134328493517
Ni 0.8922476081763604 7.8782291464741485 2.4663750305953025 -0.14721365370574646 -1.0705356225812466 -0.07621958188537196
Ni 7.5136845846416715 4.0354359598624026 3.6350615283168204 1.6557174165383355 -1.5588238512433799 0.08213337626664564
Ni 7.809841913807311 4.156718142504187 12.492905148326976 0.49917685055017896 -0.6474569978472269 -0.5419188695033956
Ni 8.379539108524622 7.323706955400035 8.927432887015755 0.388288256527712 0.5382848722952341 0.28110333660907716
Ni 7.1811036206860885 0.9005376564629223 0.15564622314992885 -1.4949877306240251 -0.686809017282288 0.40631914588749374
Ni 2.1168586175320585 6.733250645782531 8.74429851359864 0.9388725150155895 0.5075658459448226 0.13475794444089695
Ni 0.028066504647374736 5.47831229192963 1.3169509971757147 -0.008608310494301304 -0.8891982877189137 0.35302763355320493
Ni 6.661337083117365 2.2597339057163137 6.936333712758321 -0.2899296766514555 -0.7410196989967367 1.164737242866336
Ni 3.348164214815177 4.522178281020033 0.2575317777777635 0.5298092307240553 -0.4629996292986736 -1.128397270784721
Ni 5.839919756282777 5.318313000231634 4.731041265751439 -0.04187375741565046 1.6757134000442881 0.6851025761141426
Ni 5.504582997161402 3.0358256541662003 9.451732888934517 -0.5843952935000516 -0.5595160137598686 -1.3747418637563742
P 0.12737937944609373 5.974165054342585 12.411348115604682 -0.16374584703281475 -0.12780336749993473 -0.2622093279180516
P 4.4686850334104085 6.042860500942439 12.520250069766467 0.09029611458309611 0.46760344661927206 -0.6747623705303992
P 2.5342256084140646 8.548422213586019 1.146647388487741 0.649488683565275 0.4265475571192267 0.9098876977474651
P 6.482600197315133 7.842702958136219 5.4779868542768275 0.44115245151659505 0.24196986094272518 0.4335373581734985
P 5.075522007056143 1.2595434326167874 12.65024745462006 0.14817550339838353 0.7116044790594132 -0.21549778279412565
P 4.562282352774817 6.52722776179271 7.664850827624057 0.08442525762461589 -0.270873688461269 1.3184591300042456
P 4.940841583443842 1.3189380705320999 3.5494188479589273 -1.1967924715296678 -0.9134039384308399 0.8952434654717292
P 0.08292858472421717 5.584936182521802 3.679946542079623 0.9552501850426645 1.1742161288910489 -0.6115525706411338
Ni 0.8555257310806431 0.27702721555259124 4.467305322804378 0.18394854723293483 -0.6125213623123065 0.7314495388097983
Ni 1.9317761507559692 6.762449383377956 4.587020146945618 -0.47940121058514856 -0.936286242345652 0.3979388922435986
Ni 6.379765525075923 5.857143476068964 9.111867198020944 -2.131608557087697 -0.46913736676529527 -1.509563314445355
Ni 9.334530914858924 2.3189835017807954 9.903936212851438 -1.1582948296751021 1.048910331001987 0.05554739824800111
Ni 2.9976796473976357 5.488438026140773 6.643661014058899 -0.72747795575656 -0.8019887824809413 -0.18368860870332882
Ni 0.7561765958192164 0.05086799010958257 9.009308105298311 0.7222832989294979 0.6609329208464746 -0.1393026263887859
Ni 1.9459811870217345 1.5846275459075418 11.403798581598613 -0.3337443598435607 -0.9975360902950692 0.252260701345772
Ni 4.255165298755758 6.974038248393419 1.2867269949972282 -0.08129545374638257 0.18070535770528878 -0.660633644438501
Ni 6.163952316155006 8.039098689277129 8.141002374136319 -1.843938108784063 1.388953636480382 0.32746881124749405
Ni 5.607644297292537 2.9412946278870673 4.891367808125373 -1.034017987271187 0.7175110743518353 -0.327846506301887
Ni 0.6817356789033183 7.947794844178987 6.6675430613097975 0.34202459757448195 -0.9085818344518481 1.232085233293691
Ni 5.4602545815011645 4.57276162649736 7.036690888883023 -0.18921416650724834 0.10021594479996934 0.1962517900803201
Ni 1.0613437434561654 7.558103651458679 10.935488360146906 -1.4265722181641045 -1.4581613058242953 0.8273658277931493
Ni 5.1313087289320345 0.5450292019372207 10.484624860327036 -1.0133067228657646 -0.3045433127995723 0.2844113179363876
Ni 8.527191712670625 7.402165531583954 4.7244862806054435 -1.0623471732331833 -0.23988341072734168 -0.7144537755827501
Ni 7.456112034977425 6.551576662500972 6.930416911755982 0.3230459995894501 -1.6724974642101518 -1.409546115919753
Ni 2.4766258634027865 5.499588118423408 2.0631024815678027 -1.201069501638467 0.637755968509379 2.3657476091320935
Ni 2.642599066331886 5.554858128705713 11.24110967007927 0.09710156754070373 -1.009312514104707 -0.2320654573448197
Ni 1.2652453903775829 3.5456477598373204 3.6219932575569436 -0.8543606112144384 0.3474069449323178 0.537330478801765
Ni 1.6066920374652147 1.2922594350948649 2.335675099276745 0.6267341634775787 0.8655407962009739 0.681244121600001
Ni 1.217726053999062 3.6937989453455553 7.923783165773908 0.672104621192578 -0.8250394936528178 0.3246992189221569
Ni 3.63929946989579 2.8948721705054563 7.285115851451733 0.8085697781325687 0.6913932942188609 -0.5492256875774542
Ni 4.317542359728783 7.545802289485072 5.669187367623284 -0.09511873278272005 -1.5746353643543398 -0.06778687773698648
Ni 8.583341039173591 7.8329398285521545 13.684982364029702 -1.4761487435406513 -1.7820742813997308 -0.21493239720895888
P 0.38157428814317557 5.812543106938417 7.7275669239234 0.5191615212022219 1.2994998152929231 0.37858337053512214
P 8.705656645002547 1.7022746171628726 7.900312674774741 0.83612891869776 0.07030810149694344 -0.6795803607443328
P 2.1159339757330105 3.4438011852068966 10.222600411219782 0.6100510463949428 1.1501745145608127 -0.5326837240583729
P 3.960938839229308 6.257848784336753 3.6815909540634197 -1.4926850506327776 0.7587698238913062 0.6463519377085062
P 7.332028731591467 3.8569800926461566 10.106945852390243 0.888251093314296 1.2742125014810444 1.0095876221429645
P 6.48725966677308 7.971799270491525 10.594215763280271 1.732519353289739 -0.330631782356508 -1.7995202447903202
P 2.503721494161161 -0.39677467411026895 5.788252222970487 -0.3614189429406937 0.5949345024684787 -2.1708050247815
P 6.989503335738278 4.168838202164255 1.5121746088595969 0.28000033335288554 0.8860502290082353 -0.1994263311535598
Ni 3.237388501242967 1.9356741504970534 0.3395538509342867 -0.5135079224608705 -0.3961067241308662 -0.13868093364438694
Ni 1.8259499903433685 1.3105528385309302 6.889830575847185 -0.8787369831762737 0.5933373331846878 0.2633462697359723
Ni 7.327314871439457 0.8430675426058241 9.370149567376757 -0.33280410741747846 -1.1395167777366504 -1.707438241951395
Ni 3.337385792275295 1.5779193603066062 9.244385591544294 -2.4239401583124254 -0.0464984006718554 0.5488215101604998
Ni 6.354736740691891 2.1959426866976854 2.288136726155303 0.45633815811809797 0.15029177841043792 -0.055251207163820974
Ni 4.365233933305166 7.037194909314662 10.33702120780569 0.1161848094243999 0.67862288192707 0.017386313797247473
Ni 7.664926974595743 6.1337473507194415 10.778915682174794 1.594148751796919 -0.17674920127101817 3.4815009659005587
Ni 7.727059277445492 4.1366661066267945 8.036094509941792 1.4944552551593229 0.354249421775448 0.057888901896984174
Ni 3.1910566950181254 8.719190862708219 12.281073338211371 0.5421836931290082 0.03957596252040926 0.05336530299501777
Ni 0.687303472952095 5.253370511522034 9.785442459791879 -0.9169808571488208 -1.4220630174398414 1.0758624341107987
Ni 8.87529215466513 2.426894638799092 5.688359180768445 0.22943444747987585 -0.543079208360084 -0.14395555177976496
Ni 3.913383242388079 3.0151209299600685 11.387333611994586 0.20896923764698852 0.03976185327897023 0.17546467813163974
Ni 1.1851460282561386 3.6158752109865766 12.633463392944206 0.862743950182127 1.2808634311386586 0.3726914305307194
Ni 3.3740179247258104 8.528469893981073 7.66742441396474 1.0727488281824815 0.3351659227814357 2.0961551013760933
Ni 5.516122889418148 7.680428322403311 3.6395061545332243 0.9618139543031112 1.5084130028909957 -1.7928844846413574
Ni 3.173234677597261 8.266270488141252 3.3077736854050017 -0.01176459673509587 1.550578323405136 -0.07323350267385452
Ni 4.057563907229814 4.877086624887921 9.120226141186649 -1.2423758165864216 -0.09495341084944937 0.01357259647811211
Ni 5.6006097675272315 4.654510839672008 11.25238758049295 0.07074827435815557 0.7341671948512776 0.3400037104897112
Ni 7.8273738475265136 -0.006131644243882391 2.5483028265487855 0.339207439840661 -0.20634439842963173 -0.4529085636112587
Ni 4.774687078201204 0.27022656577175064 1.640181294310535 -0.9531601352828553 1.2900813501925008 -0.8315353857898067
Ni 6.6806457795092475 5.9493266373877685 13.538905276988352 -0.8502396470675292 0.8601412224519573 -0.08473687532776374
Ni 8.433385895645646 0.05232475419886687 11.553577861882427 -0.22041964557577523 -0.5524459942869647 -0.9881819027736788
Ni 0.3252808263009442 4.784141993852253 5.910964880866093 0.030739338065385768 1.13927637959107 -1.5646535705512796
Ni 7.1713495562177005 6.227661949132543 2.7944859860105873 0.8823691806122222 0.4622830628476232 -0.9670875439972249
P 8.790623974242509 1.7890730997695756 3.5205083810420295 -0.987400287412648 0.48794138684567573 -1.0097472876492803
P 1.9689431250314242 3.426795028196957 1.6002848137047532 -0.7068607937268407 -0.569901984979883 -1.4721105689155356
P 5.121101408679799 1.2321214576940431 8.253751563391397 0.9607266347762035 -0.7000764238151556 -1.5307530611490927
P 8.883242261113805 2.070336443878001 12.276296928761193 -0.5502245611556137 -0.8615614998382518 0.0067416895992077445
P 6.342299401983129 7.968091638179657 1.3383274464535075 2.2484034892922695 -1.23712665237234 0.43163834137857277
P 2.0302142418918634 3.3853039937436016 5.783847483263063 1.1576847068949288 -0.5149611099676292 0.4855849707983572
P 7.320769857920706 4.0127006497446365 5.870459224486821 -1.3993426930241901 0.9089592723959248 -0.4585043125314813
P 2.5971919019060916 8.61833238568658 10.138589451683737 1.756815249722626 1.20234708279931 -1.1078983795004211
