# total energy = -340861.3318021942 ev
CRYSTAL
PRIMVEC
9.30302724577066 0.00000000000000 0.00000000000000
0.00000000000000 9.30302724577066 0.00000000000000
0.00000000000000 0.00000000000000 13.61592073859113
PRIMCOORD
 96 1
Ni 5.470580141195619 6.702347484051508 4.910349970580837 1.279328739661687 1.1298250043701832 -2.122719482128183
Ni 7.950450943021252 7.018985324627341 3.132955419219457 -0.03767360329137383 0.17788897130241624 -1.239360941019498
Ni 8.136930127248029 3.141027656094168 11.006783837668648 -1.382107045872194 1.0381574633608572 0.669027524929151
Ni 6.746760136857626 9.242632145810726 11.649999803596879 0.7649592405314697 0.5680528475862863 0.04807422979940753
Ni 1.4503791837211932 3.893800724194844 6.07069890239205 -0.5073514159411714 -0.2930764498105533 -0.23323376662130801
Ni 5.990842645495855 6.434429597967849 10.842412367754493 0.3709037425026773 0.3234643180737913 -0.4250087518771971
Ni 0.07081371426369658 2.1738012003758493 13.20978538044664 -0.7397863408102678 -0.17651831620713473 1.171433423939589
Ni 2.94620365628987 6.531088052650624 5.152400788979658 -2.948363185023903 1.132489952796856 -0.7816043052873185
Ni 5.7068584310929324 3.8710641252300024 7.1733299916101085 0.43998722756390035 -0.24697039948111016 0.2657826470916068
Ni 0.41167477758284027 6.923815354328516 1.3600095755606094 -2.000568170707703 -1.3079132361675991 -0.9464986641022797
Ni 1.7756223246417384 2.59085591870393 1.1498281381249043 0.6706118386971354 0.2896478837449786 0.6381930560467977
Ni 1.0312219812007828 9.219644365106092 0.5049599545304868 0.5741471334094822 0.347337268036647 1.3593219296568784
Ni 0.8775955079332701 4.511112410328641 2.7733041011584203 -0.27958150064791204 0.5059753615292512 -3.1228094491933573
Ni 5.253298633248471 0.34256351733328694 13.289438831345523 -0.5675491684769902 1.0814430135223696 1.6317832743202414
Ni 3.046657746151717 1.411557650382289 6.531012698128687 -0.3421217852739785 -0.06459202494877261 0.1280368236669795
Ni 3.9583079161842907 0.18093271929108135 11.363739138389253 -0.5041326518935576 -0.8409780192599453 -0.6920890347343048
Ni 3.8808136979448777 6.3699968301976 3.1768396600692728 0.14833594023564778 -1.469221934513831 -0.2606314419079705
Ni 7.740974675062445 4.700531351213718 1.7342322254377798 0.4673964728147886 -0.7807131609316167 1.139254268103883
Ni 9.085662164495766 0.6111772698664418 3.0936054739242502 -0.5703416436204629 -1.5701120225626894 0.8560012321416549
Ni 2.0508616932889523 8.884112075881491 4.742329853320524 0.4116333590115556 2.098419214819921 0.22721327145884096
Ni 9.097681675896164 2.0443495741091695 9.12714622427646 0.376777427674635 -0.16779790561500132 -0.5004783429704218
Ni 7.713474926068962 4.888405989550449 9.089049396771992 1.0632884541005299 0.25187606431284365 1.4861058547533632
Ni 5.048436666879907 4.2051916573172505 4.798018705637806 -1.0725256564280818 0.7157820074758705 0.026213168060258082
Ni 5.5145090365769525 2.073551777116795 11.138367717815335 0.577173836050948 -0.05884535227298253 -0.39492710200046827
P 8.609970464467441 0.15715976307391477 12.989860882415242 -1.1155800644153948 0.5838751593305235 0.1669988067524737
P 6.883096003400076 4.852021849390264 4.144182403630087 1.4413380636193693 0.7287966745679837 -1.098873293183675
P 5.584207317855427 8.671333233195792 10.053355632189547 0.923539484202945 0.041698408180050765 -0.13351353051083456
P 1.8143322216518465 2.2389875133654735 8.219141910681826 -0.3479317070875363 -0.3943540031058176 -0.4052883906301342
P 7.035274925604196 2.0516710566727254 6.314192620340562 -0.9043824516585198 0.5713400029779901 -1.0921220905027706
P 5.4592118417131985 1.7349960039872943 1.8255274848246328 0.4936384372304531 -2.2869283848403454 -1.3681644676491727
P 8.09795974547073 5.613381611780852 11.385238434709935 -1.8351850451817813 -2.841682972655829 0.17274856475205733
P 3.3433964111196137 8.27830823464111 6.519466710822932 0.48899965290686115 1.6758460689674104 -1.4043092930008458
Ni 5.416548158058221 4.3520120357391505 9.62423674792955 1.6668029849285357 -1.946250531101745 -0.22822860009723273
Ni 4.989018230878091 1.89542671149494 5.204712642350851 1.1702586869051974 -0.5464766640774071 0.2771322677764711
Ni 2.6217140605886997 4.333778102035759 4.156940575406021 1.2850124203100257 -0.08058454372228702 1.491770252127992
Ni 3.2923134876679185 0.5157691420661861 1.1422024465653788 1.2054236648421046 -0.37939326803092727 0.5315403544825491
Ni 9.22334697001117 1.87115511300915 5.982972284315718 -1.055738409667414 -0.8653268804179549 1.1761058897145937
Ni 7.737672100335554 6.544949563476161 5.31802444638181 1.20587823588102 -0.39414805774259865 1.5424446385544082
Ni 2.5056960058871725 1.5853009900988904 12.670377245757843 -0.3059797881357827 -0.18370969174925136 0.3357865870845701
Ni 1.72913509672549 4.2929471147785225 12.065666510236927 -0.5734408513710769 -1.1373534515367443 0.5664880742023277
Ni 6.356460925331052 4.94469860834597 13.008637182616035 0.8136808741068889 -0.39371971195592836 -1.6810867485410594
Ni 4.575963814331876 2.7957364911272915 13.47743347873571 -0.1344887499399103 0.046393756773191075 0.3934703149492837
Ni 4.363278001920175 5.99307537207178 6.550020643711733 1.8233294313947759 -1.8452763679795126 4.0803988238921605
Ni 0.26393712065933106 6.590794882501831 10.340979190911229 0.9616458041563632 -2.0314558614254947 -0.5087518958331239
Ni 8.02425185938299 9.099616705595299 9.160056614005601 -3.3390680214129076 3.598384086943564 3.6742591410053236
Ni 3.6351858655108753 2.184229894090901 3.157518202462857 -0.018069970127833394 -1.5148749564662556 0.37136988350581845
Ni 3.9223610183118907 5.167589841815131 13.547868559784238 -0.9535578849419063 -0.7117667156688903 -0.29358012891984925
Ni 0.742891392396726 7.503542809767568 6.043167523105408 -1.5448288225158686 -1.164535668378491 -0.6264197175609534
Ni 1.026096013103554 0.2253676993629583 7.35214813277324 -0.27260738332292406 -0.6878120046255057 0.5684071456019113
Ni 7.152409343593687 2.1187179751422875 3.70756062777224 -0.0024572032912409296 0.49351759538187273 0.04168375289203144
Ni 4.187274026545449 8.425007673706814 8.596180586952881 -1.092856911786266 -0.9718068038497651 -0.8631381002967522
Ni 2.417242821370924 7.453901855562825 10.766108937022238 0.4232637441616323 1.5749171572608167 -0.7426446361946694
Ni 7.919229983067895 8.088879990728632 7.399558221007538 -0.1403953452323324 -1.8731674379628254 -2.550367728510756
Ni 2.200165980026569 0.5033737883588398 9.533813182210046 -0.440682453858712 -0.9597156770131859 -0.5095031721768516
Ni 6.520110480318991 9.159667747460295 3.5312887252084026 1.7346718808563673 -0.5850666085354633 -0.67783920968351
Ni 5.38098268430921 7.225019472448263 13.190504856160786 0.10115259768162578 0.2965998895827795 0.29619931171025116
P 0.7386157210038286 2.2776508952385828 11.293085436196831 1.7738326102162287 2.3967407150794986 -1.9183633177731738
P 6.810430056381101 2.3647551407818757 9.168130711485793 0.4175810919545582 1.5618161011024845 1.2549068591738968
P 0.6772362068261571 5.524807487908408 4.632163402853401 0.36718669866240633 1.8667203967859012 0.6879341320256668
P 0.4590681203678185 8.28041071883344 9.255735459903189 4.133688793564551 0.9994587612390787 -0.7437340126041062
P 1.5377811261412764 4.825480312218949 0.569706234324106 0.9781304320749477 1.110553557735081 0.8167754538718127
P 2.1876627112013867 4.667319543396828 10.018757673290104 -0.10694220778020937 0.8900084423250348 -1.929806012392476
P 4.7973851694718865 4.015828534596571 11.547472068927641 0.706927642409034 -0.9456424867495714 2.898405365048537
P 7.418113109156219 6.750397620570904 0.9496548975657851 0.4327871102710353 -0.9705569906030641 -0.2478083220013732
Ni 5.508713250506945 3.5848006691141565 2.6084293374619434 1.4662551385760232 1.2780100208502636 0.2642129886116418
Ni 8.194487957769908 3.693208847402739 7.214545193898953 -0.07502247625347724 -0.17301673081177943 -1.0517205467572726
Ni 7.192570512878147 8.85598902405223 0.9841347080172544 0.09828607476710816 0.6681677480320171 0.31886487162856697
Ni 2.4143030647126227 6.84284180384162 7.625051511240393 -2.6958176054478606 0.05861960941542162 0.9561140757048566
Ni 6.0769514671073805 0.8911314127998183 7.8576662689477095 0.23040709580579027 -0.6172478212536983 0.6816164173377551
Ni 0.9023973789808424 4.444688794694858 8.07843455156426 0.4056689138980046 0.8739567881788111 3.0678379780534843
Ni 0.7163284582623924 0.28311438134105105 11.253408954639896 -0.8978783319914149 -2.993651624548057 0.6749145798375473
Ni 1.1529707007805194 7.295220117206321 12.780652541645544 1.235860126955091 -0.6721203049218618 -0.7185215178942205
Ni 5.577453319963252 5.539664422665713 1.4082132120321007 -0.6360027332636982 1.5335082552967267 1.8372087604800293
Ni 3.4023310896966468 4.162741943292468 2.128059144954316 -0.7294373934757761 1.6948647761617586 -2.3638267379602964
Ni 2.959172076485037 2.5384705714162785 10.60402508154567 -0.3035452105523611 1.2220275919473729 0.04855502609056799
Ni 2.779735283999826 6.874816309014352 1.2076297079646552 -0.14872623369553095 -0.10209850653466286 -0.4476509147567451
Ni 3.8565141903768887 5.812345458778013 8.87274656730729 0.46191179555113354 0.8215502495526367 1.500609704796493
Ni 4.188809026066398 1.4188047087266473 8.953883851076423 0.724850802546358 0.2851857342085669 0.3629376935780652
Ni 1.4503419716115946 7.276865244146734 3.2651253900923263 -0.1292663251987064 -0.8397816849589989 1.0780350162820855
Ni 8.140818792701099 7.477317575527843 12.313721502519508 -0.928260286717382 -0.49572822987994625 1.1269883062523365
Ni 6.256630138304985 8.976714410618001 6.052917095820283 -0.9131306301647951 -0.6762590096805837 -2.4148857614196415
Ni 7.067593642790718 2.710213760241946 -0.0034477019543249325 -0.48399885725816005 -0.7785416072015947 0.3591399170985298
Ni 8.876595229742541 4.494813506324385 13.1942363004508 -0.5393817049038389 0.884609897017283 -0.29804073579436413
Ni 3.546630347693231 5.5777510168400415 11.358088479546682 0.5103112699004436 2.0275729814313213 -0.6514445217400653
Ni 4.39697356716185 8.979291349207715 3.9501826520534022 -2.0475342550445963 0.23466972773688619 1.462417252887172
Ni 1.481255931660763 2.140300998709567 4.439770284108642 1.6267243717400952 -0.7522988714549818 -1.1743361994086807
Ni 3.616477477410099 3.5489095894061546 8.32447450811207 -1.6387591914174422 0.1391617299355474 0.3865620178652246
Ni 8.9707511700548 3.5730974606453474 4.496371763413833 -2.246131405428642 1.0080264483034318 -0.21064096892245657
P 3.5444534392817033 3.6638298868745194 6.235996953835212 1.2256675026928052 -0.34538785761976 -1.3307420611366565
P 3.3332282021717528 8.103308986225551 13.197952859896976 -0.2154566451435451 1.1783000691524352 -1.7594331469614473
P 8.906318402284551 6.223957906077274 7.705630613365544 0.8117299210281052 -1.2443157139216119 -0.2370022325248047
P 6.153301412976632 6.10812591192374 8.37508483777186 -1.7578580891648434 0.3227865752804764 -0.5127224504450977
P 9.21676042661219 2.5444524180342785 2.3014312938776693 -1.4524796820584855 1.210421118056696 -0.019986727534572032
P 4.784584203769914 7.9050242602285685 2.2014088644871674 1.0373704486831876 0.6809065357549241 -1.2602084738924684
P 1.8992316497014128 0.7792671598322519 2.7709355503824593 0.7596319147812852 -1.091712256658862 0.24249410887731143
P 8.358100300648248 -0.09704639092534106 5.563859736326825 0.6869933653789524 -0.7488669629552974 -1.1657083485303537
