# total energy = -381164.6274673171 ev
CRYSTAL
PRIMVEC
9.22810438017384 0.00000000000000 0.00000000000000

0.00000000000000 9.22810438017384 0.00000000000000

0.00000000000000 0.00000000000000 13.50626355146357

PRIMCOORD
 96 1
Ni 3.194908155782778 4.816765955690739 11.094976650148855 -0.709304884391959 -0.5577923462005425 1.309368223446571
Ni 2.7623499913642466 5.584664204949588 8.998777674838571 0.4039298197197108 -1.8343844036573569 -2.021902156298789
Ni 4.98443138405871 3.5363203333010698 12.551938375811426 1.4612024066434641 0.6420083160278298 -2.4802288056018256
Ni 8.70186249380041 6.163967685120636 1.531570026714487 -0.33601747214845357 -1.4749830053673243 -0.6557575472931222
Ni 9.189337107347557 2.6457621207053794 7.628054430170238 1.5329734658391792 0.1871259165196519 0.18953092641671876
Ni 7.7492083668732725 7.555169016204918 9.419430661804434 -1.1302533501568535 0.03693672512534929 2.376686367531784
Ni 3.1169491300327294 7.10330565743635 10.584710464419244 -1.4972179055061248 -0.6605290005398367 2.4676090599552856
Ni 6.338840263004563 9.235117733146089 0.10086964047893596 1.2994123977854397 -0.25795286663454287 0.15543167074016456
Ni 4.29895856306684 0.8896197143808727 2.417621233134003 -1.791922120728088 0.7064000520403383 -0.48374354671424424
Ni 0.5067881131911183 9.01125314914154 10.500228091687339 0.5568227831984216 -2.48240215910406 -0.9707608790837539
Ni 8.831849572010068 7.61981188734354 13.099401204651043 -1.403189834684422 0.4311536884326704 -1.3086434294654041
Ni 7.455754647785733 5.185493322155544 8.928045177623662 -0.6980280259265592 -0.9800998970964927 0.35599751481480624
Ni 5.564214725657199 1.0602630520302767 11.750368619313377 -0.5021117648087869 1.412386927802658 -0.9273786554433769
Ni 3.223007733601066 2.3217356918273677 11.45547254751221 -0.4747665400266146 0.04321638748647396 -0.9370012661348056
Ni 4.121289869557645 7.693922793569705 5.867323810351068 -1.176012301559523 1.0880389215723327 -2.9188641471235215
Ni 5.407115476797253 9.187546855099034 7.003132738837638 1.9214668963991617 0.9882824329072849 0.6500059895213256
Ni 7.765902007685516 8.127837489331188 7.395030029764235 -1.3410413861801358 0.04628294222693965 -2.254480291613969
Ni 0.6318639942530266 5.462991648780745 5.52861362179343 0.013319342816725447 1.3176494896187565 0.3113333391382122
Ni 4.67250300001478 6.127239829712825 12.613594109564245 0.15509896999109418 -1.5636513545390103 -0.06426369507507641
Ni 8.588347581898025 0.20828662101109863 3.880254551744727 -0.7188048534625943 -1.015706847666825 -0.47316962785313993
Ni 3.7923817734658822 7.635407383735299 2.969378821749193 -0.2846362894630001 0.4204270460437856 0.42483931617886833
Ni 6.799055056231439 8.486524678237275 5.266915655477087 1.251902268019618 -2.49325529976848 0.9077904488988044
Ni 9.192419294208413 6.234968720172823 10.526794881369135 1.1977476363540858 -0.2655455913801362 -0.37114953996489625
Ni 8.999081279472469 4.971244422908519 12.385972764269116 -1.7910703142507542 -0.3980432790319467 0.8770791358578767
P 8.90972554482075 3.938804105565316 10.037922210009356 -0.3840958157129192 0.47425026251182845 1.0567043731251091
Ni 3.6563410587869987 5.308817709007301 6.417460943838215 0.07508932493567068 -0.7106575417651115 1.5777248019129408
P 9.051773755446993 7.6257086460384125 5.337783805826291 0.03322430927076858 0.11429222038737737 0.1609369168291099
Ni 1.5218805171219738 4.216653100156722 7.437764458308967 1.6759239733931974 1.340144842507795 0.9629095013601352
P 7.236956293082414 8.047313050565219 11.585780763754075 -0.5975873667102934 -0.05932974810856879 -0.02768615306135877
P 4.4186193924821895 1.661677070281003 9.830168973431064 0.654051620345609 -1.0035954091152717 -0.6298405703170443
P 8.978262676005127 2.3068046189505242 2.8464724680255697 0.13965178219808852 0.033092925899226876 -0.029248612452472206
Ni 4.785067417166661 3.721805231214892 1.1373546359691855 1.9739215146544522 0.9161408777460286 0.15935388861270622
Ni 0.4727640923648367 2.817257212388487 12.205353845791608 0.20961844119521317 -1.2524293441676817 -0.6700297409414203
Ni 6.3141735400133365 0.31875625847012157 9.402412191718232 0.7395816809986295 0.9099617455185103 -0.8741984718759719
Ni 1.7389347600986407 3.3059776200260993 9.741960292153012 -0.30901960340337103 0.47628657621556675 0.27134394322946814
Ni 1.552102558946241 6.265495289441426 12.50636815079262 1.9732041768724533 0.26631640810788976 -0.024512383319067462
Ni 1.112401841742371 4.39621355506255 3.2435153499510108 -0.6385998045669131 0.2599200176632427 -0.657482500404029
Ni 6.239149051454165 4.0958664420077655 2.8425551377188825 1.9008451063837517 -0.6193522691912108 -0.3884142405826149
Ni 3.6127936342469327 5.908090807043301 1.316399239840517 -1.4376930106676142 -0.295919061465671 -1.210783129381805
Ni 4.725878355712966 2.8296782408756513 6.477604191284162 0.33551302170820924 -1.199001820476161 -0.7548347505029581
Ni 7.333371527580106 3.4261275389732617 6.646823632428685 -1.2829825343641903 -0.0682681882487792 0.7387684410687146
Ni 3.3497834314886323 0.4194699439851399 7.568032070891587 -0.40582035187420434 1.4684110085767612 -1.504870536955376
Ni 8.749996286214266 1.658373408915175 5.461730166912843 0.7864392647821165 0.3262735053878123 1.0444679789599174
Ni 1.4355516007048692 7.541013104095474 1.0129930101858111 0.33341371597701935 -1.34875623832589 -0.2723466734623697
Ni 6.433723632176201 1.5226925903068702 5.393294544876579 -0.7947372431248506 0.2955264540129427 -0.8217765066308299
Ni 3.626377403885199 0.8830732971380835 5.1334606556437485 1.5078087936480935 1.4115322931118466 0.08136873018647922
Ni 7.800978032410414 3.772910473237118 4.457958801427792 1.8527392520154604 -1.0180699485823628 -0.22319052345269302
Ni 5.718527086996249 6.782167625227345 6.891935926753957 0.822474561139119 -0.7862515742513427 1.951991290240264
Ni 5.327190864815581 7.529071937035749 1.0305688577761924 0.4348046549216963 -1.0968858304400013 1.4687717343502897
Ni 6.320642441179387 2.6472939860314337 8.792105049282453 0.3019423848416155 -0.6078625233840563 -0.5513604745322698
Ni 6.650796331361615 5.475200430867312 11.353513990717165 1.3453289578118959 1.2281959255416137 1.069548318967313
Ni 2.553914797872729 3.6597277730921913 13.149117616965007 -0.18708477886907135 1.4793417965566522 1.4099482364541782
Ni 3.799847309904304 3.1531878959087285 8.433621801483028 -1.70853173212589 -0.2616873939763106 1.1970133292912224
Ni 8.167499881929874 5.984148843292341 3.902918776086834 -1.56860509899986 0.9033054165442572 -0.42958557261460206
Ni 8.070752435674725 0.8147428754916812 11.573449247879337 -0.6602433509786179 -0.3407904680570647 1.909594313331292
Ni 5.578398322079762 4.625005946802719 5.291443034092269 0.9145087414592443 0.5135922546445606 -0.5724666603832657
P 5.446131902089772 6.453499459849302 9.361920192536338 0.5087588378116593 -0.596800866253256 -0.02678935227870225
Ni 0.9682311671101501 6.955905146273292 3.2186105418669397 0.2906878949737188 0.5735308399817219 0.8015149281683164
P 1.553486774602314 5.055450875319645 1.046114522404333 -0.5517733936999724 0.3422269433932751 0.00340131237206511
Ni 9.027411559900102 1.7714084593901203 9.690392722101658 -1.920789410716163 0.582050447416959 0.830174243776222
P 1.423222853261443 7.220760969906356 9.093146115786148 -0.29957774126418085 1.459600352263667 0.39059710716654666
P 7.76873503572828 1.120236502355746 7.4812952722611605 -1.950521390562957 -0.725038493077132 0.5502466726428008
P 6.592253237214089 2.1452574237823967 0.029303845439071708 -0.3307012021418627 0.7918015575352944 -0.2515456775566184
Ni 7.080918276225458 2.8525916240358513 11.054390524302349 0.6522287082042574 1.3150688733757738 0.3707353352456131
Ni 7.646757952115101 5.690178350359869 6.325604392901191 -0.4671918130031502 0.38520267562385274 -0.8072765132424419
Ni 5.18364770128078 4.2295909024888205 10.238044727080933 -0.4298426829307307 -0.12328388236302638 -1.288858533528993
Ni 5.436977622550941 4.608746026896044 7.813724812981974 0.587261302193937 1.2962052037020515 -0.0984349416401466
Ni 7.977982302404693 8.395129532518942 1.871589683282769 -0.3418831869006112 -0.49701763811533106 -0.20608394567939348
Ni 1.8720593937953964 1.9389539224012322 3.520718377236249 -1.0239413197614753 -0.7907623176375027 1.3897074839272712
Ni 0.04660008146692625 6.072987804099126 7.887333710330202 1.0574785322869722 0.7338753746424715 0.022522863692864437
Ni 1.749288693206069 1.045221241900947 8.8608784199388 0.3302767130099344 1.0773472461864413 0.7737974076483899
Ni 0.6184158777490559 8.887928762289784 7.386291937732663 0.6705439615736775 -0.34975461922888795 -0.320584425422835
Ni 3.8837492348710936 7.754837510541304 8.509135379574014 1.6591899484679684 -0.8546526885335602 0.11530909168766591
Ni 4.076145982960909 1.664694660411243 0.08970917104923565 -0.8139791220735981 -1.4518057959199127 0.6899429349255795
Ni 8.567944243127506 3.6039438821524374 0.8103419925158055 -0.35727123932090726 0.6605277149882559 0.9998138305856524
Ni 1.4757492233572378 2.0589469635740394 1.1000001922743916 0.7283469886250746 0.5263531538546549 -0.49809570167085826
Ni 4.077059565293917 8.263306061538895 12.659866593325901 -1.9938804742748824 1.4226967943690982 2.8113251862995776
Ni 4.920416024017507 8.388614490831023 10.732103593098802 2.4305221824053174 -1.7626524252296933 -2.01796245492475
Ni 4.390778201586368 5.129718659320164 3.2647344531481766 -0.4100649860831712 1.3376436733524963 1.0274835285867787
Ni 1.0393983080410651 0.13166751601612944 2.3540469764818686 0.40043106253783295 -0.6219591106864386 -0.3617644992055705
Ni 2.7737651564746644 0.11770631690897415 10.881239910694577 0.13613194197028816 0.8998547389914954 -0.2372251471688882
Ni 8.531751617773377 1.2665573253070672 0.7189763767314689 -0.42687562988260674 -0.920712556277111 -0.5583191652382901
Ni 3.1133686255356867 3.4919700636804816 4.8807453261248845 3.866550403775999 0.7481177434940987 -1.641389687061754
Ni 6.801731206499848 1.6109224962249822 2.382126252470534 0.15692728144908458 1.032702096673241 -0.20324133402427577
Ni 2.7329769351423705 5.968848646240545 4.546600280800977 -0.7028871537910734 1.0400652219065312 -0.507276596839178
Ni 2.286124437048789 7.149289301531105 6.979091681322957 -2.057489309374779 -0.5816015328049984 -0.05147991304684683
Ni 5.927128386366495 8.985645159504184 3.3779706762984714 0.011094567251264766 -1.4857063053220994 -0.8075287384625641
Ni 3.172345440588783 3.3476425112739054 2.3996439630033604 -1.0542289150014232 -0.32812547099488654 0.3100069070173048
P 2.83097940359236 9.05978375004347 0.9519131101459207 1.1304001601473628 1.3477450234525563 -0.12124833999023636
Ni 1.0423328452319407 0.365491993071343 12.743672546007202 0.9958178220523818 0.09418747921770229 0.6184138165373414
P 5.004197983627438 2.3965294777771953 3.871056900115339 -0.1100910378218362 0.56509325073733 0.03538737836035841
Ni 1.1975587889040002 3.3063098317835573 5.479031939803322 -3.1579217195154583 -1.809185792904542 0.03219175424119617
P 5.958097904645042 6.7242059016553695 3.492125095833962 -0.09624539018799554 0.35736328481408136 -0.13950805753137266
P 6.957999925966149 5.241913952297092 0.3957001927390493 -0.2130529207980589 0.22198441895973384 -0.7288766358762995
P 1.6202521097469162 1.3071886688650054 6.37640141623733 0.9604888077337845 0.20648503777255406 -0.49849936486718016
Ni 1.9973032263569086 8.693594112281467 4.723775270726173 -1.8375108651014804 -1.2019585891116396 0.023271054712798632
