# total energy = -381167.18052384275 ev
CRYSTAL
PRIMVEC
9.29350872404035 0.00000000000000 0.00000000000000
0.00000000000000 9.29350872404035 0.00000000000000
0.00000000000000 0.00000000000000 13.60198941989060
PRIMCOORD
 96 1
Ni 4.592127036716757 1.5034945213388602 11.871544562943265 0.6858584804435607 0.5023616760360639 -1.0230527465089347
Ni 3.29995760652523 4.522416429007706 6.433726834277653 -0.5091128787169684 0.2697997386707999 0.4870574415788257
Ni 0.4542648397142968 7.031422109002868 7.080434214446942 2.608426837437017 0.039980397047679535 2.416873738383947
Ni 2.740646380854799 6.213045038712047 2.6564007257578037 -1.7651741632102826 1.475596213471291 0.20876046407029208
Ni 2.4860414203432404 1.22316512913304 9.003047384827642 0.6939679969245726 -0.4208980721429332 0.5678535870912865
Ni 0.7478820904592989 9.410420897751273 7.926232711095093 -0.9849004038089295 0.47931944950461963 -0.4707880149948408
Ni 6.160137094479593 3.4756235053275906 10.99859601038774 -0.4685547547889479 1.0730720158498552 0.8441713293862623
Ni 2.585165982644901 8.479304275118295 0.13221409952977392 -0.4169339452888626 0.3385890895303717 -1.0387259342698174
Ni 8.735284674896743 1.1719950710013185 1.0939900069024076 0.026811206655573183 0.8729849111838449 1.1209976358865403
Ni 9.660973888530641 0.49493602122571206 10.371503509385324 -0.16286730108260336 -0.32007303300405526 -1.1994975291656569
Ni 0.5324529859318411 6.194597424220317 4.458432481273365 -1.2799550603917762 -0.7324993202305514 -2.2196379871238032
Ni 7.279242808265578 4.063707433499985 8.770739410053393 0.6887926233712202 -1.162136057798063 -0.11803908902431928
Ni 7.582713036785961 8.437929575008884 0.7210703182635093 -1.2211469891146323 0.7956594978288039 -0.31642232362534534
Ni 6.950280485764934 5.028169164846477 4.278722976896519 0.6191054432877273 -0.2981852317920284 -0.664470758796404
Ni 0.373176189475156 5.450113040490578 2.082464305666398 1.1731920585019087 0.611618647992379 -0.5816033325772112
Ni 6.69479264194017 6.165109121559229 8.952394045771861 1.1962911064132171 1.781122973230055 0.5817064338139788
Ni 7.671131477226426 3.6364662579766467 1.831902021378468 -0.17156894262165936 0.2848669174165675 -0.5176157739816569
Ni 1.0002417393027454 5.550882553807369 10.48369195666987 -0.45981094715804677 -1.0786273984504455 0.6502055071266415
Ni 5.115342275139894 5.659560842908777 11.689141799785713 2.214815368924179 2.228027496739079 0.5216174389418823
Ni 5.919546744876614 4.786835334558693 6.701672626327186 0.04014520476031796 -0.4490935607405427 -0.8310913562738526
Ni 1.7619284073771657 -0.0666372444282387 5.696417968507142 0.6261883182764377 0.1792629688318074 0.03312532179905908
Ni 1.066569509895934 2.9250110036693813 1.6517575808010116 -0.5516214415031403 0.2553953903200118 0.6445778765272189
Ni 7.002305546684182 9.214141996962686 9.748545690341285 1.2148192471243915 -2.3840803460030107 0.5705984968262754
Ni 0.1614607709683005 5.153845281104244 12.996578605839716 -0.06192244853640949 -0.4871870251781545 -0.974451954782096
P 7.08845637103599 7.937855172900311 7.432181431884298 1.442601246602509 -0.6590097356818327 -0.2101025799204833
Ni 6.288359632082819 1.9862458234914702 9.339669417083492 -0.6962750477911944 0.6481589090102579 -0.2862748535076876
P 1.6738631202619836 6.427622857855403 0.37175892941974603 -1.4935345431172666 0.021597523665117642 1.9101118763976586
Ni 8.117117659515417 3.520399629569987 6.018540268707577 -0.6007971318968427 1.4935461130814922 -0.9124755130792994
P 1.206604096879003 7.744373618188304 9.43202737580257 0.14788316896894532 0.4315010444697601 -0.527557201465085
P 6.129793789030979 4.581523143449722 0.4864538359629401 -1.3060425015074475 1.0991535434282556 0.8800662435106585
P 0.7727691770322986 4.839213548803222 5.878943405977687 0.7351195314622179 -2.2151416419153462 2.4074143927432603
Ni 5.994108564054021 7.0274909548819595 5.284169080992902 0.18205210154117032 -0.0910342783007013 1.0416479930126188
Ni 5.954490337062461 7.204950500836413 3.032971833909952 0.5794428345907827 0.024163741730397092 -0.9620078154814723
Ni 8.402270382663911 -0.031161134201900115 3.405285585790734 0.060502428260431285 -0.26826427586287993 -1.071750211714638
Ni 6.1407229550976155 0.05581588306089826 4.546791443259045 1.804038444375648 0.9147203432494182 -1.9749255304389344
Ni 2.5828797795391245 6.082750048699927 8.799589248676405 0.2082598702847897 -0.6582854559212985 -1.2543170481086978
Ni 4.610175030340405 0.0006942250894369038 9.691879451247141 -1.3575111017003845 0.07341913632209937 -0.5057084810211097
Ni 7.420606366972736 1.481236568337503 11.594186305424099 0.4637406212297562 -0.7053453855235788 0.32338358543452694
Ni 4.471264957893104 3.7281281329045743 12.880771266321881 -0.16986352989477843 -0.21748704531001253 0.8878448590148128
Ni 7.838907187261291 6.09735015064779 0.8424611977242308 0.17137071056792422 -0.996569869727058 2.196905578523294
Ni 3.893989380176066 1.6283713958604624 5.170252041116185 -0.7437008453733257 0.07207830602348878 -1.7797325206404317
Ni 7.362233839706964 6.301119619335789 12.32134851854873 0.27526718954327434 0.14863033154761499 -2.244257071224064
Ni 5.708007903032399 0.4996599116267934 7.574676010583216 -0.10390856316020813 -0.8654646915473998 -1.0967778441072271
Ni 2.6280926986838438 0.025816437429006356 11.294371213820387 -0.29991969798463186 1.9729388390262086 0.6144193506659676
Ni 4.085500711073339 2.2869001189181537 7.363913176703768 -0.02768049663440394 0.7026141026353447 1.1714840746718664
Ni 3.5776569358085513 6.171335772294472 13.448694786374926 1.7257894907650728 0.01742385190340225 -0.9079115478577008
Ni 2.792020896174842 7.176949159544936 10.922927334340827 0.7624411020953061 -1.141917416758343 0.29053619988720286
Ni 0.17681457646038495 4.815942603368819 8.177039414658152 0.8096810089188765 2.4542164406984637 -0.44242000537510906
Ni 1.7842792954641236 0.7099655048850869 1.8486461357511383 0.9821850617602955 -0.23148747335416262 -0.2110073511229398
Ni 2.1757404630312087 4.322829039171735 13.81812476254952 0.4980483933726906 -1.1471506401328244 -0.23580512689291003
Ni 0.42712035991205705 0.5478263077919017 12.618632987771534 1.4739933877605453 -0.29442087965358976 0.8975523161105639
Ni 5.795431938056938 6.89305106005205 0.30397765408776317 -1.9463968268716223 1.0986812317775272 0.24862773257887502
Ni 4.60804681688015 5.531031619523069 1.939071974040577 2.2238597385146344 -1.7527315665715557 -0.3184128716928129
Ni 2.213992544264439 3.485623320538221 9.055102184974283 1.1301646470977893 1.2643147827513581 -1.0827198233522644
Ni 0.48408863803440344 8.16856652290394 1.3324251918703076 -0.07330960732742858 -1.2238448476617698 0.5317630120163164
Ni 4.172088330327471 8.233174994413517 1.9513003726039113 -0.2651303582195886 -1.2703874713079992 0.18187315276114485
P 3.191948450040147 0.050604083460413445 3.599861915811116 -0.19651687081624866 0.704791827012954 0.540216027879676
Ni 2.779586181721474 1.846313465102562 13.522159042191388 -1.457095583563942 0.4447275704623631 -0.8531894737244725
P 8.039962951449752 4.657636978556661 10.994650916003991 0.7937800214179038 0.2977743695068549 -0.7776455777498866
Ni 0.010913367102085089 3.847261619136056 3.620197041891396 1.713980413945287 0.8556430774712876 1.262065581705865
P 4.916154506172006 7.079376613172806 9.942918492524202 -0.7486674453499816 -0.3361840796333049 -0.5475328732560635
P 4.571774252970213 9.098790968715152 13.241318507014764 -0.23824844622708 -0.0384161378843532 1.0721523322490631
P 7.72965270062916 1.043800413923773 8.11753122064634 2.8944288968992926 1.0262709963359165 -1.9351438796656224
Ni 8.366471787690537 1.0145909165194869 5.617675929179417 0.3926555323574722 0.6746263591731673 1.212404981255944
Ni 4.252495766389158 1.113724772329707 1.3874576321595924 0.8619697910202638 0.5977544884157769 0.7761471388274891
Ni 8.994926717047857 8.053364190793367 5.313793998229823 -1.4119521542580844 1.8315610752759488 -0.16529956467317983
Ni 4.808052414601323 4.006143441478938 4.507127678075541 -0.5877881212316844 0.43178412292781765 1.0102658791569117
Ni 4.508271708979285 8.734950108588581 5.754919675541899 -2.942140344042643 -0.7204279908883141 0.9297756949206438
Ni 6.407920619708064 1.6081208407080791 0.3082508093236814 -0.6949871822177063 -0.28073566885701334 -0.3107198739239294
Ni 0.1942742909921803 2.663668249451775 12.98625444718034 2.2531782849730937 0.7721634715893928 0.3288847177584142
Ni 1.0583168742945956 1.5495624432711055 3.8010756696450976 -0.4982309416971419 0.38062174112138963 1.4274582203134836
Ni 7.58948800452625 3.5050467534287586 13.068274306977198 -1.7738783758524999 1.0967385062288595 -1.6770076933756795
Ni 2.53689549918392 6.896164385419672 5.5857926893624 0.6422404866432939 -0.24912678370248062 0.08487597200878931
Ni 2.3107658489004024 4.487537891381779 4.062261363568038 -0.2057414747383102 -0.4405261307865059 1.1917993891904506
Ni 1.3517687005872285 8.053364190793367 3.5227518165865392 0.8091577894255549 1.6776854361689946 -0.20208562315327774
Ni 6.092861386013277 2.1062621930361582 5.726356076982537 0.3714457310490764 0.8351413579735102 0.39892876696069357
Ni 0.5139960779315508 7.549656026837809 12.60206637941236 0.8137322961701147 -1.1421022790756394 -1.1504560503569734
Ni 2.9606701960143536 8.211781337708246 7.823823822868305 -0.6992742396288344 0.8607878548970208 -0.1903390241403109
Ni 0.10488282020547686 2.7734617595803908 7.6014171521139495 0.17844767201936365 -3.795649663000379 0.9353696440686535
Ni 8.62439453075804 7.249215482108006 10.450258559625032 -0.4218596647252541 0.11684352605432136 -0.5361971365282701
Ni 5.437399520780408 2.399416627054869 3.1006276468763736 0.6388286327482675 -0.36058719106801773 -0.2383435770440476
Ni 1.8013793512146443 2.315115210906513 6.107809994532143 0.006448583838821153 0.7121017304108059 -0.08517164887233719
Ni 3.500520814760007 4.741910514179335 10.744524497267529 -2.23034920289372 -1.574741808025217 -0.5854815845856949
Ni 3.220200716062746 2.696074713800724 2.9691914140130775 -1.1412705272029635 -0.6822604786796572 -0.532213983510806
Ni 1.9332263571562958 2.927213565198117 11.516844797836375 0.8652867712086387 -0.09320377514819432 -0.42797580492532106
Ni 7.684235324296119 2.5621738424672986 3.8682426440612603 -1.4752740542451817 -2.567424941103359 0.6791476440822884
Ni 5.641810241559052 8.398227706440283 11.587752409447964 1.4526730290162144 -0.8170881000162251 0.8475782981852823
Ni 5.159793126582687 7.223035668494302 7.569480009947284 -2.0474753767822027 -0.47564919974188397 0.2884060409180775
P 8.061505304291984 8.604134682097097 12.122092906968355 -2.330712986125463 0.8279571815202451 -1.031588294783772
Ni 9.455680284438792 3.1788631899875748 9.892631317705685 -1.5844412947011681 -0.42346249043599976 1.7511433961488292
P 6.8169279314365525 1.0002510328113055 2.3264570087532173 0.37569525035404977 -0.16157763573690237 -0.005211626107926508
Ni 7.909835244591713 6.145973787434053 6.241599343762849 -0.589640601059391 -1.162849796035636 0.4119794294970647
P 8.104664358044928 7.078038347940157 2.82286140433142 1.0874372834325916 -0.22805505063384596 0.40052336514132314
P 4.277541771958536 6.107619477606662 4.391551746920853 -0.6672436935558508 -0.2691739321613429 -0.6652269202361383
P 4.332289830885882 2.7949018838284623 9.785746675756371 -1.6498036221570622 0.10148606976164457 -0.19715013352487334
Ni 4.786184788959488 4.869603321794637 8.685372957824056 -0.8860101197989193 -0.980710276986982 0.31324186901483475
