# total energy = -340890.79457718384 ev
CRYSTAL
PRIMVEC
9.09112242431527 0.00000000000000 0.00000000000000
0.00000000000000 9.09112242431527 0.00000000000000
0.00000000000000 0.00000000000000 13.30577661272073
PRIMCOORD
 96 1
Ni 6.380013487892141 2.0777215280703083 11.446560671001004 0.6230430877792367 -0.2902731760338033 0.6772581403690595
Ni 4.649427385944753 0.21881786679035758 6.000532756599444 -0.18639778010437577 -0.09097822825178524 0.10812105857965894
Ni 2.7484009171171917 1.6841304653590758 4.6953030089099075 0.0169044890648225 -0.5160993373371305 0.4491205573237361
Ni 3.1982387554785 4.192134827035026 4.605808179613887 0.23838651446684106 1.1478209267269717 0.7540420793983337
Ni 5.357362195488486 4.675127989591555 2.8456668380288073 -0.25467342455232267 -0.26266724139107667 0.0334968462058649
Ni 7.553741055995321 6.2854476303986715 2.6742746306103182 -1.325566687583304 -0.736487615454338 -1.9317459097276668
Ni 5.24343224681437 4.33469272083959 11.276978506096162 -0.32731300239592015 1.6872453119432875 1.5295680397020561
Ni 5.770971910209007 7.950432191519982 12.41310519104293 -0.40957544804126234 -0.2655435344976072 1.1140476869312685
Ni 1.7417500005247755 6.884661704529562 0.4011639678537109 0.37404974433082677 -1.5732955624969938 -0.08680095694564405
Ni 2.6272162525922984 1.5334451079322111 0.2612297720372842 1.1068426845423969 0.19848376473463236 0.2694022461220651
Ni 0.3319687062559374 0.07798546805907274 4.815613107438755 0.8435213545070892 -0.23434114075287382 0.3654632882133964
Ni 8.675076484439314 2.2592985201600078 1.2885820839477526 0.7986774587195212 1.0909969757593918 1.0711755701580907
Ni 6.816132822219837 0.7059429445776865 4.678869895661956 -0.46129678767495397 -0.37097110540550304 1.6911045377883778
Ni 0.7564095844659526 7.5424316994560145 2.597301004498854 -0.025806162429826522 0.871895534774408 -0.45743139118227677
Ni 7.501185276128974 4.18575285895577 3.97656430924454 0.3837654289566939 -0.9002445182307464 -0.40407842948243317
Ni 7.644452277497901 3.7860525618438827 12.81784106097405 -0.7325509994040932 0.7960721598861902 -0.49852173346468337
Ni 7.9289407776462495 9.063049233371375 7.125163716993197 1.1393455422661087 -0.1207048087819405 -0.2402176541383089
Ni 7.0765480296703664 0.7636233902649402 0.557019446714582 -1.8392682141122196 -1.0312316827753016 -0.7280801081169331
Ni 1.8459888124859478 6.642956027431038 9.112661307733358 0.09653952438964665 -0.5552690655580566 0.8976042523944219
Ni 0.18248064967812963 4.884714730473541 1.0551029637080855 -0.9880921712733498 -0.32570194915505846 0.879683406249943
Ni 6.377677069378795 1.9132540287514903 7.164149178124636 0.4670074649064861 0.07329572337035764 -0.27423874827876
Ni 3.462054042788919 4.24349057871553 0.45986534661119294 0.22733539885900203 0.4686426865170638 -0.2912977606435757
Ni 6.0893339332395575 5.841609932966578 5.116802908952346 -1.2152077408120618 -0.1297347801946927 -1.2664205162404512
Ni 5.353943933383357 2.667462652431136 9.281111627872008 0.3729256580287126 0.4383877442872644 0.4785167510976662
P 0.4762457313479486 5.500492830018112 12.301868942001128 -0.1455663479103106 1.4584150737063142 0.6169961102542084
P 4.195162170867493 6.052551251118949 12.72642982302973 -0.7597149614133948 0.10699131585058992 -0.46039715867882003
P 2.61556143339343 8.586119849602401 1.426685327668507 -1.148031757186197 -0.055099254966988975 0.1235502486505356
P 6.598982267317991 7.895494537527189 5.940829536129236 -1.5136372274044125 0.3109366179204258 -0.7380104798567677
P 4.866005200121536 1.0118328564858288 12.68603341966766 -0.4614127444275279 0.2851731358030766 0.7718587958647803
P 4.029340094278292 5.9220754592763925 8.41193848576409 -0.1292159315767452 1.2534097058030802 -1.2317288783955367
P 4.647818257241009 1.2183740712901088 3.7251784047802157 0.04677993646801621 0.4218920606250863 1.7261712995845238
P 0.31467102724682156 5.575149128973733 3.4938438803666116 -0.21228698916631183 -1.3684259488406756 -0.7545262181236038
Ni 1.425069835178929 1.0848709356150856 2.476590896574726 0.06231119933439591 0.34261466574999705 0.31675682414662865
Ni 1.8941808534946845 6.526771480347156 4.501636641960103 1.646034899143249 0.20829715128062834 1.479877614455464
Ni 6.213164114446878 5.749680501032915 9.153203169057347 -0.23205311604964549 -0.019696449987662852 1.1989897362913027
Ni 8.710704593987181 2.579787865883644 10.417478318455947 -0.02051200391042274 -0.9353974119827954 -0.8519517446626296
Ni 2.327481939810173 5.378371779863357 6.925697213811817 0.19385397927210482 -1.6552841856556588 0.061974641930583586
Ni 0.5267987369011049 9.373947444730886 9.357886158398095 -0.29408997867673226 -0.05187406316147196 -0.4410406085290791
Ni 1.4022874818931537 1.1108806374309685 11.530839923249918 0.12118123419772678 0.48660338476054255 -0.7906885269767738
Ni 4.12776967888527 6.61514628333639 1.6161197770386915 -0.6385039024189972 1.029059614824647 0.3137748587001693
Ni 5.541402881808211 7.684171392224776 8.049516336955602 -0.1958758947981401 1.5757409387136927 -0.032085567680635065
Ni 5.1058017414698575 2.8445759033144045 5.165302229905639 0.6915079654198543 0.14237329489430967 -0.15144903194333273
Ni 0.7293734949062692 7.1206308832548535 6.639223212483256 -0.08649242456628976 2.2643299307145393 0.045431907080554015
Ni 5.253759762110715 4.290818963075364 7.406168498953552 -0.14618315555870307 0.98580491790107 -0.5046057348752342
Ni 8.307804221713047 7.395555522406939 8.870748353039097 0.07752133141593101 -0.27318356754136824 1.0423954127016046
Ni 4.789503403274051 0.1899790076151238 10.654840257166624 -0.9036756553994824 -0.2507285809719617 -1.1892982200351518
Ni 8.311849771278956 7.042783600259606 4.6632622563479025 -0.486510053715788 1.3846364971622669 1.1059844503071596
Ni 7.4132923026386015 6.192527266099427 6.97399653006747 0.308397653548656 -0.7558364522945951 0.588165302065445
Ni 2.1347410491430865 5.238386673760258 2.326914653758683 0.9600491490932046 0.11361139227026884 0.8047946273608527
Ni 2.568187593420496 4.882487405431637 11.503722013586655 -0.9135836585418137 1.1095492848402826 0.8326173060000758
Ni 1.0910074433836006 3.3233235116073834 3.7302212504975416 -1.0041602804798062 -0.03496983120696558 -0.34250128010058434
Ni 3.6064665256079684 2.96266049502587 2.6146514120191657 -0.06081327463263076 -0.7873473784186827 -0.586905461516415
Ni 1.3626592783924778 3.5787931483526214 8.32260366022618 -1.023624816962321 -0.5119884004925506 -0.09525422991931981
Ni 3.7271693606340004 2.562605644131802 7.293960408903669 -1.0417274401003027 0.36009842435705725 -1.3455079065919213
Ni 3.9959302186497108 6.8160510021162555 6.233250949875815 0.440142522194842 0.5975999651157837 -0.869232129009632
Ni 0.9832230936006195 7.647197796529148 11.415877223046168 -0.8716654210414729 -1.5951411976171754 0.13565191701007606
P 0.28608217394363833 5.532048116632208 7.942577461576282 0.11343450037277238 0.1769302069335727 1.1558365979425964
P 8.378514973451576 1.8187699913616016 8.222624039212489 0.6147875326386638 -0.19571185841645003 -0.04768805010458239
P 1.8956263419912678 3.0909180529491405 10.432487761901601 -1.514945918913507 -0.006727291421504543 1.0281988094862486
P 4.125933272116026 6.140626047061721 3.869612706293553 -0.8745535412225454 0.3124216871063845 0.6167996779726862
P 6.989955086714657 3.9810480509207347 10.323207013335367 0.829054785459798 0.27378957655648334 0.46565455042301745
P 6.5040436737971 7.653061570619062 10.269013013172891 -0.09160532031282288 0.21992445110691156 -0.053350133486366184
P 2.259271246792148 8.597247383689307 5.82506954447171 -0.012912080075977762 0.1423316430230968 0.15039822208131517
P 7.062847707881994 3.940647101997357 1.6875450910151562 0.11907215827452397 0.4015330373527601 -0.35922836304727807
Ni 5.423091012031245 3.0080615613902597 0.4498096558811866 0.07125786700472245 -0.8263543558094995 0.004527198446392203
Ni 1.4550159930892814 1.2752299521557264 7.158947237761461 -0.7895497853866402 -0.21142772648981006 -0.3552326116243237
Ni 6.896434708322491 0.6121625600785876 9.573519404934657 0.5112430376860937 -0.07241254943445594 -1.4475786452124424
Ni 3.0326621392000397 1.6083105027080924 9.363249011631646 -1.6938597319360116 -1.331188661755772 0.41121684029942734
Ni 6.353594685558357 1.9715099425005913 2.6784529105664805 1.0742722068055433 1.195359338627567 -0.5138683911240827
Ni 4.154061205502374 6.523916867844469 10.622480406200657 0.13477799904555499 1.1549878767890558 -0.8701289297922885
Ni 8.248230095184041 6.98279128209008 13.60914873784148 0.14809142832500946 0.8919483396602252 0.5857289247098106
Ni 7.723808686848073 4.1011326896086056 8.293597524394738 0.9164046729303766 -1.5863241135461779 -0.5141051897252372
Ni 3.160037858229168 8.280839952022061 12.399720331209474 0.9130033605583115 0.3252288661733818 0.01896419980732863
Ni 0.051463026927420545 4.917688232216362 10.318430537510807 0.4670524592118085 0.40642816066153226 -1.184643751982276
Ni 8.530127625385685 2.448848426787467 5.619162890026307 0.72754968953476 -0.48134110792033874 0.602689463823549
Ni 3.8039075266696063 2.6288071990508017 11.45276081662786 -0.4857819173005118 -1.1623044650551273 1.1521036132627256
Ni 0.8958974061617363 3.288304507275058 12.516504892386276 0.9140845094376321 0.10691752518986104 0.14694728741823723
Ni 2.7925564996826386 8.428152502956898 7.944600236359237 1.0878666576605265 0.48956940936740206 0.2097598518690839
Ni 5.168130478152728 8.18097397004112 3.372202841486193 2.288587003489691 -1.584574992065555 0.9101358092025292
Ni 2.9978795040558355 8.58247430943177 3.7768850737938524 -0.9725652792823445 -0.24715474757777434 -0.5557827719696815
Ni 3.474136144750928 4.1731434718818 9.468616941022223 0.8702546567368754 0.22284882384255814 -1.1817116659371454
Ni 7.364672978866724 6.127234823442429 11.607679909858868 -0.11593464108680678 -0.7931202763467179 -0.7561028185821043
Ni 0.6913980574979133 -0.025141499605670848 0.19050902006387105 -0.9411178594063406 0.11127323105539548 0.9311988005204157
Ni 4.517460649992513 0.6167672136856286 1.706120072752385 -0.18837238733224332 -0.20415664674969358 -2.2045456115670548
Ni 6.0198595741773495 5.713070550242087 0.5051736835248586 1.1205538634809025 -0.7905592004877611 -0.28311059684709305
Ni 7.984196620930744 -0.3866927188671599 11.697108373959763 0.048380448185916684 0.6390440911931833 -0.4312603892138638
Ni 9.183124780936623 4.987362595976211 5.605537115443418 0.297008694985424 -1.4398910467601977 0.8417210680735568
Ni 7.566723179096712 8.770105989186405 2.699249762672043 1.051873527395369 -0.32097111933829237 -0.10270734376325535
P 8.550300826479512 1.5600548238410157 3.525219162752832 -0.16327919180904138 0.7829376793867613 -0.4945223824973031
P 1.7587322175789764 3.264213032332 1.3467179948782693 -0.4678839539741684 -0.7104425975408282 0.8392255553452127
P 4.659936723693497 0.8959174066315003 8.267211450102387 1.6673879108977283 -1.850332699456497 -0.8445153429892424
P 8.402479172677955 1.7040854795100242 12.435792087541197 0.34759180724961425 -1.260865904970809 -0.13476000132342597
P 6.206745781877142 7.758045854635077 1.373009521495373 0.5128638611189684 -0.17555132430817508 -0.16253228634068784
P 1.836715867413525 3.0825178556482404 6.037629082450445 -0.6663756891286007 1.7677642925349621 0.06141311300015875
P 7.0074827711260586 3.904000786716048 6.200664729956609 -0.5993197760203679 0.8278587082691677 -1.5322602418222386
P 2.3905197840574055 8.699677062249094 10.300507389265432 1.550564182337749 -0.7091452188856432 -1.0224631925540522
