# total energy = -340863.3486647954 ev
CRYSTAL
PRIMVEC
9.35144935501465 0.00000000000000 0.00000000000000

0.00000000000000 9.35144935501465 0.00000000000000

0.00000000000000 0.00000000000000 13.68679139005073

PRIMCOORD
 96 1
Ni 7.836243263519039 3.1003046664395235 2.7023471984014447 2.2758245616177 -1.475348359126543 1.8329278737164882
Ni 9.35425466573198 8.647977111114294 13.14691538431906 0.07336977114140267 -0.09228974797435718 -0.10475317054869054
Ni 5.4279832459676784 5.527220825206655 6.428493864043454 1.232727237753064 -0.5439456701254374 0.8625110082357146
Ni 6.4956007988697655 3.5191373745958807 8.317175205438527 -1.4801180126010445 0.3324384965479436 -0.09662822744871101
Ni 5.105152515616385 8.577672915795915 6.627199068172487 -0.7131252865793138 0.8356548072748188 -1.4273597470624064
Ni 6.618778088140006 8.160542171399594 8.299313937407389 1.8402681161316439 -0.2178768245492635 0.1214745970684295
Ni 0.8444742064977782 6.851909717467906 11.145072155780108 0.8971676790776355 1.3119681229632632 1.3826963427167607
Ni 2.9183815731003757 5.987293424471557 13.582100971745602 1.115620687845343 -0.6558444505799738 0.3660492426238534
Ni 7.603644666797304 7.0877439156235535 2.2606745106433843 0.024908847426537747 0.6015149838994738 -0.24502921659433927
Ni 4.575879192042358 0.1776186212581361 0.42245826502320133 -1.0318793436616294 0.2630145974281664 0.3758310046009657
Ni 8.650885411825124 6.566484784040462 0.04162330052701495 0.6463406248545965 0.3194773084015852 -0.9852143355049225
Ni 3.431112182984829 6.797792880768325 5.678608631371941 0.8368485704726039 0.6552502686394006 0.26304827887957927
Ni 0.4126280215916133 0.8820978921887104 2.8965085333491536 -0.39927098079146073 -0.5511959239299474 -1.0445471689372852
Ni 9.13188655446892 4.532937337173777 4.155008803098574 -1.1561847253106345 2.257509565358596 -0.8350333716407361
Ni 5.772499987085576 2.43234935077032 3.0650066861723317 -1.5869820588451506 0.018579048553768004 0.6259895720020703
Ni 1.6828961550532773 5.526622332455873 5.025009660562111 -0.26721989375876565 0.26477631731427953 -0.28041710917532997
Ni 5.827018936102087 1.6003976699377245 6.725962528935454 -0.7738174622530479 0.148692295133802 -0.23823379093906066
Ni 7.935265759425703 4.213435722748706 6.397260958756961 -1.5398437105964513 2.509926332666258 -1.1429204041015606
Ni 4.324072718600225 4.776757672972668 4.470051646530322 -0.2574882682932985 -0.49656769506210613 -0.15003261121178033
Ni 2.940030178070054 6.291000441145533 2.896822742043314 -0.7628277960107636 0.3468348744789317 1.1076001315337118
Ni 9.388761513394234 1.2673177512292952 11.882831364233832 -1.788474785609436 1.3155517265494634 0.4351005888955603
Ni 4.878604306547082 4.522903232148954 13.302862957129364 0.8703713848203979 -1.012959623938991 0.016917344580628928
Ni 2.67285927354145 9.187873681014693 2.5763607337822227 1.6221624634010254 0.3700221112286724 0.49406292636238136
Ni 8.858188338377104 0.9421024013241056 8.665599917190043 -1.768518397092167 1.4571714311072002 0.7979894315135612
P 1.1775531900612843 5.1727728450054755 12.751737166992422 -1.2992187937173947 -0.07318259483126106 -0.33809312373055966
P 7.803803086136829 1.2717877439616954 3.9807894336358927 -0.340263134798685 -0.4599217617042982 -0.09722986558845191
P 2.4668842527802655 3.4512271502806295 8.312152542056577 -0.7349570377424246 0.4746156162710472 0.23907634144501408
P 4.955791168499449 3.056680155777083 10.570185268292215 0.9081879414475392 0.2600529436966812 0.5686411159895883
P 3.683255308599276 6.300735299794964 10.308699109751112 -0.034606277219959757 0.358764278926666 -0.4900918575297753
P 8.139548167876082 3.1370745648156686 11.956343106638428 -0.12927146740502898 -0.6343852522649333 -0.6660458165930078
P 1.518030105111405 6.758152087478274 6.94488276086706 1.3398069995524022 0.042336555984681924 0.563091904036585
P 0.4399576319691018 6.408613618123351 3.13515097170886 -0.3673468783893544 -0.1652895373708508 1.001534669931501
Ni 8.84417051597989 5.2997000654173325 8.562620823113757 -0.9944132283953713 -0.7279600375993012 0.06664196549926588
Ni 7.587756554553898 6.763379547598382 11.371287453256787 0.11510957408235015 0.04798578385065929 -1.0437521838398154
Ni 4.0612689408624805 4.671189162604329 1.706975201678083 0.09827116236877269 -0.21689929112734257 1.6026771009829046
Ni 9.176221775272914 4.896783523852073 10.904882052572676 -0.43995740276722944 -1.0040327537630065 0.6291576853174068
Ni 6.392444962403016 1.479717217612151 13.326841943247397 1.7371743355632472 0.41297856018554036 0.5697806289106703
Ni 4.418943171048342 6.914237126592273 8.120962162529544 0.1516590910716098 -0.45036034326810825 0.585513723375211
Ni 2.6829962445078137 2.7486901753553266 10.328997365451839 3.647582403045085 -1.0098771283589254 0.3943306060670499
Ni 2.011094617263144 0.6664805921254804 0.47518641151198443 -0.7114085609985231 -0.0033172372986910613 -1.1190130013563437
Ni 2.5396291763479244 9.093377286535816 6.493218984750639 2.578408436698056 -0.47173186696534886 -2.0110842397476785
Ni 3.3896385056455096 4.512326743068735 11.521677459789128 -0.5052307700537427 0.9121081024375517 0.1387701509240836
Ni 6.903202416499735 3.7109449497721565 0.8529662575444152 -5.363043772411273 -2.0333409942633494 -2.0081976622285027
Ni 0.4341157816345194 0.6086194351538219 5.5306958237408805 0.41291402549619205 -2.8075616054920873 1.147485911985056
Ni 1.2887886786635854 5.203688736163039 1.4273547127882984 -0.23548476743901378 -1.1593492390815454 0.35879410372333687
Ni 0.7726924822009085 8.875095758586685 7.678180392892692 -0.4682503361746516 -1.4961514119148234 -1.2168627599169815
Ni 9.01610626154037 3.1962131297522767 0.2956002453356538 1.418961495696382 -1.552355727020533 -0.6266189780559531
Ni 8.314354808350469 8.219063540686959 4.4262943452888015 -0.3571946204467009 0.3934042375980386 0.25436129262854257
Ni 5.122293722056739 6.214561695131644 11.96159862110623 0.6824445696660053 1.1974175067081765 -0.47797090589652524
Ni 2.1049457617450855 3.3251228574010976 0.15470008948289274 0.7597080194348594 0.48327534882857415 -0.3469498027902412
Ni 7.923314607308533 8.913174859855165 10.916283339475065 -0.2500858051816403 0.45753834907378627 0.3766640420252223
Ni 8.061800218969859 2.0247851389372733 6.326678090251501 0.2098354423020257 -1.2573872023935893 0.1666985019032355
Ni 1.1171428280292652 7.628921634068596 1.5437746448442453 -1.0666807676115306 1.111178850023906 -0.5273008624799048
Ni 4.603830673793706 1.9358902625477419 8.83710923666559 -0.3833365689493914 0.7670462049674854 -1.499709561579727
Ni 5.835182751280717 7.176638792013085 4.651222883351301 -0.8178920839747592 0.7264474576095167 -0.28525566821455395
Ni 6.424417567323677 1.0959524440719037 9.957126700188454 -0.03137645742875242 0.12988081885425373 0.6670837709392188
P 8.470598822101394 3.15184985460059 8.339786074534072 1.809747064724651 -0.9218986061654124 -0.2398353310982257
P 5.983216192606857 3.3433114261553203 5.283074123829604 -0.8082296211843306 0.036688356559969076 0.24538814259565478
P 3.8119125471188604 8.580833705635982 4.4291689807824 0.5784203068635393 0.2928615055862698 0.13787206458984644
P 1.9078172119563919 1.9635799037206223 12.170992531706256 1.0750605070347938 0.15634106992831137 0.8888059373765015
P 8.403380605029234 0.4694446216841734 0.9357247129485889 -0.5163505341159882 -0.19519018158502513 0.301219647742978
P 1.092380190465676 2.934204225199164 2.3306280266156003 -0.6391340798038283 0.5578702506263296 -0.08421622693760333
P 2.2260470292860526 1.9778408637978404 6.403679793509094 -0.48258912139482685 -0.15022981482425093 -1.2410799805931336
P 6.019359543884528 6.131586286105311 0.6923682090315544 0.4685622109881156 -0.46137469210074095 0.9239991974481828
Ni 4.112748668878931 2.1771202469096553 12.487143521871872 -0.14401777247626812 -0.4184447255064342 -0.4547214484502814
Ni 4.706079419685051 7.702040615605493 2.18580774324522 0.645397801325353 -0.6266511168454691 -0.30271268734873674
Ni 2.4513047383614817 3.377191726719098 4.055587935454671 -0.40167444802663077 0.9347435804488805 0.17291054425121832
Ni 0.8250980036912233 3.9606192927896298 6.767119192145844 1.2694063383416527 -0.563077762969198 0.3481775045497552
Ni 4.497785239514588 4.615192684609325 8.944906197385667 -0.9411186307372889 0.015035811287199913 1.0773757854315316
Ni 6.408566860877195 -0.002797953609904038 2.128117717794488 1.4562702594491694 0.7564802565261811 0.04779192267229834
Ni 2.524881940910696 1.0471565819847404 8.455220363841075 -1.3978902768483796 0.04654802296286822 0.47961538347848365
Ni 5.628020096467202 8.03946895820632 10.462565985107526 -0.8587919075129145 0.026675452408657284 -0.03764223583280614
Ni 6.304017658475033 7.9961530453685015 13.251989203023081 0.7143403899333375 0.3518089306547554 -0.1184347818008412
Ni 3.098406322245638 7.646016083262796 11.968920805854076 0.4223718284749822 0.14643126701376716 0.12507799814897166
Ni 6.149391445441065 5.401434481600975 3.1722967983440897 0.5665006726078179 -0.7588708682455447 -1.2466654451007109
Ni 8.333983500286259 4.935825824391343 1.543103210789462 2.123457902956104 3.5919432164142266 2.6678195775730376
Ni 3.8240226738729572 1.6080939126548066 4.850612613564042 0.5092656022447487 -0.8953306258688967 0.23114243130991804
Ni 1.5155800254128926 8.084150182631861 4.267076570682431 -0.3014333064156809 -0.6758005819869264 0.5301252193025774
Ni 9.231470137329442 7.53435042799587 9.173927864776559 -1.2304808649210486 -0.5034505382248684 0.8697023837778313
Ni 7.37067201210633 4.9921402516602 12.603686893057668 -0.9528986540913525 -0.8418203126555825 0.7208439953798101
Ni 3.1181285286737386 2.253951753791245 2.1010864186474674 1.5359058089946258 -0.7863096811827878 0.03972662916566062
Ni 8.73847108532232 6.880590612259269 6.813954990474198 -0.6336581442909216 1.240559075092657 -0.02677186877720551
Ni 2.8006935845287098 0.26348643353160484 10.951869344378572 -0.23910308091789143 1.307139334116052 -0.3592088226632524
Ni 3.960684752934246 3.4330666358741 6.821620373408818 0.5886108742432961 -0.22671164923207404 -1.52786031298233
Ni 2.5075911112826463 7.813341564352411 9.149674881196058 -0.4907004376480516 1.8134263133484512 0.8429179165951355
Ni 1.9251641502798276 5.598824871968136 8.971978642909304 -0.24201074148298968 -1.3211019669437314 -0.36346811216023855
Ni 0.6634030301835706 2.876290700111812 9.882862166120765 -3.1454734664497765 -0.061587690904810054 -0.9331394691865543
Ni 0.35719824142000506 2.5001847634917236 4.653371846384577 0.3519518839905229 1.347518766374363 -0.7068561657411503
P 7.88404787198772 9.238306046717275 6.724347533653267 -0.17011112712921025 -0.7197795586710378 0.3840351376783128
P 7.70055373517777 6.153870789622696 5.111879948193139 -0.8082689590626982 -1.0034869085618652 -1.209967575459045
P 0.58253917839359 -0.07690631847543719 10.335909021578445 1.5423158262860275 -1.1311694342132197 -0.9655448821004532
P 4.486554148988202 9.133700735619726 8.77345205146058 0.10616342063265587 -0.23301779395576 -0.5318108345351164
P 4.877080020322436 2.7528983275092593 0.8253897689072295 0.17384128359560386 -1.3770013492145126 1.0682987628309277
P 6.361631937186994 5.8837728814848 8.760778032317859 0.67166881920674 0.14008475597044906 -0.39150059281742255
P 3.026811626933388 7.951350252102959 0.6614794370767616 0.6143805270082322 1.163673320378196 -0.031006989904475632
P 5.328932695713322 0.24701666114603332 11.913859472782166 -0.2596073715188303 -0.267804562617642 -0.03855934833043682
