# total energy = -340865.69939692674 ev
CRYSTAL
PRIMVEC
9.30433683472370 0.00000000000000 0.00000000000000
0.00000000000000 9.30433683472370 0.00000000000000
0.00000000000000 0.00000000000000 13.61783745440077
PRIMCOORD
 96 1
Ni 1.9098546489358976 0.3009757493889047 9.49292618232616 -1.806908309724275 -2.663037839913678 0.8342425003083246
Ni 6.487597552651147 0.6285833013824873 0.5477602512110185 0.47119219241179494 0.6037330745967151 -0.12792215246598612
Ni 6.941630569282203 8.421206172886258 3.817147814010192 0.35606873437237385 -0.07578815077490819 -1.1265347636546856
Ni 4.647571949778942 2.0540811703260777 13.590043345019327 0.5037729545612938 0.19793431998906558 0.7514709762370477
Ni 5.465888352350798 9.36053477707096 6.0804183837566566 -0.04984340588468835 -0.9335133075862052 2.7850572537419844
Ni 0.2758782318869453 6.569726931679023 6.873521895052911 -0.18084111195220468 -0.30308986818249734 -0.370729164598026
Ni 7.391002113284625 3.9232386510431088 7.234911632316055 0.6772997922402723 0.22758916674102095 -0.8776740891293981
Ni 2.4504738218186173 7.240951077192796 12.078326841119146 1.9948991453473834 -0.5746518409600425 0.2509818346333484
Ni 8.38297465386218 6.230704819564063 9.608609790377287 -0.50981607543158 -2.705148395930483 -1.2303672221613198
Ni 6.372772734866731 3.381540175116634 4.848834984863331 -0.25977706432747516 -0.25645571326372607 1.08507443962737
Ni 1.2664783828183448 5.203413017313253 13.118675418898427 0.4813269668529517 1.6194571486547207 0.4471449216546041
Ni 0.3792214983265771 0.4478837805826234 1.0153199123680445 -1.4504281988460954 0.05687125926574721 -0.8562719693045382
Ni 3.8209095572911442 2.0113370480587087 4.309405836629718 -0.29522486361212386 -1.082329272782065 0.3945134115018173
Ni 7.739207605608095 3.5387555503782218 2.835723599818034 -0.1980199377243364 0.39469030339931377 -0.8513362225658178
Ni 3.8607972482271937 4.564326050360973 12.90320000968182 0.06877315290965574 1.3876868539528167 0.9262165168144759
Ni 9.485212887297937 8.690938890459403 3.1312721296774315 -2.463869133296879 0.4475652970214743 -0.7725514510564307
Ni 7.710345553524206 7.839499049648141 10.841418570398739 -0.5283169624492449 2.0762125968158953 0.77863622379793
Ni 2.1119076221962776 4.757800425290809 11.061441939337655 0.37573587378399803 -0.40885733892831516 -1.3464358177228297
Ni 4.121635020025937 4.354020130550492 2.3586502545037633 -0.8765644010049871 1.6168950443544992 -2.365550919740255
Ni 6.620500696418473 3.041866759440786 12.180569404540877 0.7096560970837907 -0.7205691444518687 1.0109464501637042
Ni 7.641149202348234 5.3558831809169485 4.692406756476758 0.8204778424240643 0.2940177306779001 -0.19496006785209005
Ni 4.858845520594168 3.2036133466188326 10.66367875906628 0.19521486417537348 0.6452553622102178 -0.22171779556190846
Ni 4.455930529156173 8.83043880886486 3.864251948400871 -0.2045407695619897 -0.8226216282399444 -0.016573845198281135
Ni 2.315142246202839 8.369232148727459 2.8197229321943524 0.9544551999451949 2.156454669597099 -1.566483681781483
P 5.678483138960967 1.8907528459287342 8.049176926739193 -0.7171955999939456 0.1983104723815617 0.04971947871231437
P 5.849413106347523 1.132114458207314 4.454884721724119 1.2825822136019782 1.6786025486666254 -1.8803292458185874
P 1.9889042925544365 1.3670024352729935 7.639729360585499 -1.140440317992184 -0.01722844806314452 0.8560583106318354
P 1.5478229124484508 1.5148669522675582 4.086631175362883 1.216441613219163 -0.7450643013797555 2.5195168045681706
P 7.173997071133591 3.9571157405458277 10.036413882177758 -0.3086997581701071 -0.034002582197689826 -0.01267553858513946
P 9.028686308462342 6.229616212183723 12.14096921760528 -1.1525360728144538 1.329015822474169 -0.2702504530549733
P 6.330168177648124 6.36360796333139 9.561110221681783 -2.0360743340341125 0.8998493396748567 0.15353599637934848
P 4.1703618307168835 0.7908704705160698 2.0596702853121482 1.0738317768340153 -0.1393100825879536 -0.020528716080971093
Ni 7.32638349570803 0.6454595070787333 7.862244430861638 0.6954852049000474 0.7800924966284823 -0.6845333338742339
Ni 1.0650301914359313 6.899119055429437 10.413764278417272 0.18791961606554086 1.701182233739354 -0.12937045487673848
Ni 1.0985909334947908 7.998817204977736 4.957955313888033 2.2483939762105725 -1.626909748278024 1.2993283227120653
Ni 2.3473352507838356 7.859131199840598 7.624000379590074 -0.46104507667546407 -0.38555414542600047 -0.1395178277233855
Ni 9.003211034895068 2.176154066309509 7.129849854909339 0.4351617811507989 0.8209910346150571 0.1564436569444467
Ni 5.022443670752451 7.2633652240239 7.829466183509503 0.5440204892274307 0.153519027098484 0.4715284927052912
Ni 3.144977417465815 6.430757360458862 3.2802513061947716 0.18602625569756995 -1.5989397454276593 0.8396438738295539
Ni 5.775062152703956 0.07719435890366876 9.56903658601778 1.7384817415207607 0.035525446600119456 2.105350651832432
Ni 8.101899949993014 0.9144115908124724 12.171582345834294 -0.42923384570213824 0.6566358361330176 0.8061316010047214
Ni 6.034420534985827 5.335199640690488 11.873065732604568 2.069825976563261 -0.19787364195445922 -1.2005861342441453
Ni 3.5654776050477652 2.8647121908794655 7.35331861968535 2.8127806877991817 0.3021161914153184 1.1396126798845665
Ni 0.300817575666975 9.349276529804193 6.553216386410532 0.3060214400069956 -0.377969133989891 1.7861865037958915
Ni 2.4468079132044807 3.5572711801805865 3.220795664988695 -3.281413604124232 -0.8359913646786312 1.0952652641174427
Ni 5.365652734330257 7.123828088272108 2.0199472811336374 0.27206488055589273 -0.74884022348242 0.0026307527546277276
Ni 7.898283848186503 0.9112769598172881 5.1581511415662264 -0.11312416822120519 0.41049693141426724 0.2562320272886942
Ni 4.271797708156774 5.7236277800670345 10.436329155501038 -0.1528356278782142 1.1745295463664094 -0.8676259608647768
Ni 1.598633894534237 5.264067987505021 4.924727667078884 -0.4273528266293415 -0.18131110961008773 0.615149801074089
Ni 7.478081399375244 7.958659688280747 13.130686386994846 0.005540727312571103 -1.1014623940670902 0.13295534401451942
Ni 0.284433569376028 7.242690988134024 0.9288919298383118 0.03197372469311913 -0.43429609071639397 -0.3831013130101338
Ni 8.994269567437744 4.063669003106975 11.394125937371523 -0.7366097428544992 0.37798970281518124 -0.4752707333565428
Ni 3.905997715352766 4.293355856022141 4.8907100820937455 0.5004372053198414 0.5279135563632392 0.4518886069871766
Ni 0.4352010393848327 4.639598133326365 2.1928665156818745 1.0004473504045932 1.060479266786509 0.010719443300033151
Ni 1.896158665484098 2.7715199556530905 6.01228830955322 -1.7014401153864311 0.5512360331392635 -2.421663703573423
Ni 8.154971885868736 4.735758451923069 0.4134195874414476 1.2790765144415648 0.21994501993220184 -2.2009527520094743
P 7.263970005901866 2.7634437914980885 0.7599354122412443 -0.10686610312663532 -1.0984904559229598 0.08089461876353811
P 0.46371790058144985 4.383887050985463 6.900511914616078 -0.6262132579771021 -1.0058754633987 -0.4780680935960217
P 2.319999109899741 4.068144389003929 0.9991089667375618 0.8406928839193586 -0.4720414277859677 0.3308454410292108
P 3.367462713864886 7.301094308872438 5.31237238131505 -0.19830121641018109 0.5565309629896157 0.9773341614258975
P 0.7454867079597908 2.0507967395118896 11.673414208616546 -0.17937481181932333 -0.8749587470807642 -1.7560372339060208
P 0.2059887076354558 7.985912090135584 8.616877301683603 0.5349984882344786 0.5136305640816639 0.8376394418050155
P 5.050170593773077 1.1772870123231338 11.554939299590187 0.5716287378630026 0.5820669024771911 0.018773423952761218
P 5.206892839195708 6.244447324698783 -0.1499961405059825 -1.6995002180512409 2.838143334933686 1.1364052286908624
Ni 5.283997876468169 7.802588746419004 11.523345494285206 0.40301990631093176 -0.007683998907819026 0.7076082134158265
Ni 0.6437847264935947 3.134649603857461 13.506075429082431 -0.6065103802315361 -2.5123987054661505 1.5883915375981679
Ni 5.410155376212022 4.2939885509098605 8.368460819224637 -0.31367124324276946 -0.3341120275956246 1.585617060176824
Ni 0.9055892188634258 5.272265108035615 8.892761116172498 2.3376292536293226 -1.6725308885512484 -1.599853258380864
Ni 4.048940238294341 0.2741550687515694 8.283675982535657 -1.3181909639445233 0.3601197645132959 -1.3148022499779486
Ni 2.420653423066567 1.5962240713589542 1.1750316411351471 0.5850270135467796 0.7984116066526443 -0.7713389188055683
Ni 2.889275639461497 2.2012292534036666 9.7502897148444 0.6602824317466692 1.7953694558467403 0.10752816219066642
Ni 3.0494684024299983 0.2725426272215444 12.059125481710533 1.2103175025992963 1.366157207411157 -2.2486384881212116
Ni 6.111320876853438 7.012297005638465 5.372114596087917 -1.4534654430105227 -0.8422527722073108 1.501447627316756
Ni 0.6386115153528336 8.790085901099605 11.929715185896878 -0.2057481596065295 0.3761274527954619 0.40222517832377824
Ni 0.6186248699365219 2.300227394658522 2.556108746358913 -2.4930339277862936 0.07769410954836942 -2.1641129574733053
Ni 7.846812258203246 0.9676975264296301 2.605065374163488 -0.9889529766117485 1.9938154253649019 0.07069016742671051
Ni 2.927395506446567 2.681761020626249 12.181876663830947 -2.067917703796955 -1.1020930856725535 -0.7477955842679895
Ni 8.75186368641211 0.6104277494059273 9.979777454956665 0.3109613005107741 -0.16232042744019787 -1.1935312842798929
Ni 2.648563147694169 6.778637201001888 0.7293520578892978 1.45098844222494 0.1508563926646563 0.8835071508714074
Ni 5.546184777071607 2.673135900612785 2.778678712220899 0.5892353952011724 -2.3048787986711794 -1.3979116170046184
Ni 7.805603351472254 6.178851751780857 2.2507422805359703 -0.43613597213861016 0.577467970252599 1.2494581773544997
Ni 2.9752291008254406 0.31728346011986197 6.068993588865036 -0.2737857199017414 -0.1420133404517296 -1.659015113453001
Ni 3.379790959838822 5.6284537211482455 7.361816270287611 -2.449719067048742 -0.3538874104503389 0.09235274000180868
Ni 0.6100332455347611 2.9654502430755483 9.253551654159626 -0.28062022632507155 -0.9639644249872108 0.8506484524701736
Ni 9.100655351940379 3.1123471090653663 4.76985140203454 0.15506837386347486 0.1964734191728229 0.2890698997543215
Ni 7.511093185575642 7.693383747931388 7.751095756461603 -0.3496042096939528 -0.5100065941758313 -0.4742849724045058
Ni 4.458535743399721 8.625855056053604 0.3032674074895692 -0.5802542747484846 -0.24312968557878126 0.06131566819034601
Ni 6.012006388154723 4.657304285845913 1.006674322814096 -0.5552772930881728 -0.6375723917436632 -0.30998788085391127
P 5.81806679639568 5.037274783267511 3.1350980728808144 2.9309709576893845 1.314213210243698 2.2026237119539935
P 3.2335453974098916 4.331038419187759 9.16449147481025 -0.9285958156799297 -0.5637020268167582 0.23560226685348454
P 2.072615408801611 8.952641965560469 0.0710451228552351 -0.6827662146714821 -2.4102570043983778 1.9664997682690843
P 0.6924985111133243 6.512579696379462 3.3465428434891886 0.21017328525741868 -0.19535396085639903 -0.9450981842103272
P 7.731038398087252 8.363844937845265 1.5969637661173905 -0.3326837797895303 -0.17846258441769908 0.5631834353091267
P 5.106768873214175 5.121004508187854 6.431990185056255 3.2260299851476053 0.17680088044456002 -1.3304278723303473
P 8.238571350076901 7.780351381982999 5.512704982741029 -0.5589519137262825 -0.011112307863077635 0.017945785845143284
P 3.5994663465894936 8.339281489263232 10.25504811366467 -0.3441169613271364 -0.7067579496003892 -0.7673704210761236
