# total energy = -340865.4383822034 ev
CRYSTAL
PRIMVEC
9.32171686899965 0.00000000000000 0.00000000000000
0.00000000000000 9.32171686899965 0.00000000000000
0.00000000000000 0.00000000000000 13.64327489136315
PRIMCOORD
 96 1
Ni 1.627469228420657 7.550739820540739 7.1410401097614855 -0.6047553452136423 0.7439332730991058 0.22615500539765568
Ni 8.960341882034227 7.475662712786527 1.4112333619475461 0.16520674784905742 -0.3947813204512233 -0.2062487533920319
Ni 3.2110238486180607 3.7424269628152684 9.85457884322312 0.5039323629572934 -0.11001956115395246 -0.7394233010438943
Ni 2.016417865252599 8.362661360817842 9.30861520725883 -0.3116254164573343 1.4021390248224046 1.4500638735281413
Ni 0.6099432397724637 6.583509155320388 5.0164409235975445 -0.03787132112447671 1.1754227476046402 -3.540186909777542
Ni 3.1117009552581 1.1530404477960512 11.228238228769415 0.9047691455739773 -0.6601240517919341 0.749516166503522
Ni 0.29581536348052356 8.397916094059266 12.801225750711271 -0.8303629627482603 1.9499593474118997 0.39521249445137097
Ni 5.203000172210423 5.448935028664279 0.024248582120813197 0.19329630699642195 -0.5292800976934625 0.4700182267083518
Ni 4.507106041942839 5.510831228749698 2.5287403571674516 -0.1688155482462383 0.3114235848591734 0.12823377016913398
Ni 5.858354155765435 8.13413947149645 9.503618999193604 0.4836640996265606 -1.4488359146583112 1.2680459676590161
Ni 4.9080703718335315 5.609231272138505 9.541506185282035 0.8975847120103961 0.29300008804666317 0.8544858239383929
Ni 6.269674913110178 3.2953294560838025 8.211901233712199 0.527437388057769 -0.10601121132550774 0.6102857881135684
Ni 8.401467668190675 4.5571729833071135 8.417382635420468 -0.5714644443709964 -0.5827616145513705 -0.1311540291397225
Ni 0.1534587641425008 6.618092724946427 8.84741860374586 -0.16074665519517478 1.189224686484739 0.3788286537767089
Ni 8.979759018295962 1.5618070547155836 6.2077582052476235 -1.4384172904281487 2.035307116850785 -0.33796354013123087
Ni 3.964647371525554 3.3852840239790267 12.137875598416311 0.03089514691695969 1.0437917788284992 0.5965213873396243
Ni 6.086484532977852 6.168096164265178 7.507907463647292 0.3745511094472775 -0.38788356489012554 0.19893139379501223
Ni 1.0450297143036194 6.982441350931168 11.21100610294443 0.7444912024851049 -1.3404271496349043 -0.9256395612650834
Ni 3.4850916466167643 0.6091714016147719 8.227522566860262 1.0059073450779001 0.9726408697152862 1.712660666692599
Ni 2.5752920790961524 1.8579113914193974 3.3095171091756708 0.3164827445496356 0.5878763100701165 -1.8815322649877533
Ni 8.717371331548318 8.717958599711778 10.443981679849767 -0.018124477514852657 0.5024629775006185 -0.045598257455089206
Ni 0.7096380696359492 1.3326885755138507 0.16164043504837006 -0.911334971716953 0.08320501206426961 -0.012327154106785223
Ni 4.111343230071372 2.0125679961810214 5.023549664890487 0.0475227281713117 -2.18169004712512 0.20028045162373895
Ni 2.8294300464047017 4.917196332659379 0.4712071952707626 -0.11083871462113815 1.2680819631032743 -1.872514120649543
P 3.9835424916419915 7.918537481771203 10.441921580419216 -1.3162101860690687 -0.8731404629251026 -0.01428864870853023
P 0.8739053645011974 0.940039217080416 11.250763225439057 -0.9861296482303403 -0.8331004162840813 1.1884474419990823
P 5.968182624049531 3.29107875318637 13.097857696590513 0.9964472281062644 0.10331386699900272 0.04402448521006612
P -0.030011267496235765 3.791589697642151 13.513172809618482 0.944863699602018 -0.732006696864849 1.7906180572046841
P 7.210357328655338 5.4148455100328965 10.157977423385796 0.6906440747576621 -1.280018309529544 -2.1005519448922083
P 1.572620246296771 6.780915153695224 13.315317504490013 0.3768021102649833 -0.16177329668747623 1.4991984262712632
P 7.811925005810821 1.2787624433611176 4.473383798956542 -0.05897030788662102 -1.817199407237638 -0.5921685096875672
P 6.716269047130107 9.063859547990338 11.490994123333834 -0.5959678288289995 -0.2573537995979632 -1.9707724275025091
Ni 7.352196572706502 2.5533953661442474 1.4142480051866462 0.6168004493036344 -1.7276545689982696 -1.3388906583857199
Ni 8.839979873675352 2.6610518743952265 10.216411537821859 0.25961071395294 -1.7671048045740922 -1.2811436813832386
Ni 4.023616552510548 7.403121112023768 12.878146694064412 -1.0133157217268292 0.3857402932948776 -1.567385624770462
Ni 6.829742306714415 5.535561743633224 3.6301478151633315 0.31599629183152034 0.9893106170614833 -0.46019841240445264
Ni 1.098909237871951 3.2789139126575337 4.289513865663639 -1.8472777146802573 1.5897089708580106 -2.506704997515483
Ni 8.187142753678032 4.0530824995692845 11.835772736900001 -0.5709607652617005 0.9763512286873378 0.02678960938901838
Ni 1.2261320298547513 0.660223648453298 7.394914272482321 1.012888147271107 -0.7948164331022183 1.3790214649683348
Ni 3.809534002636794 9.173939702630204 3.549693941112544 -1.0647946063324112 -0.73346836901204 -0.40135485990368297
Ni 8.58270048777813 5.943880908142501 13.10330157924863 1.5042688988156352 -0.276294345256208 0.31171077708228895
Ni 3.1634085187933136 1.9902331625357406 0.8950507470725474 0.2865874996521 -0.08199068004119428 -0.4582641714962173
Ni 1.1144951484958694 5.598893488118214 2.4052816744609298 0.3890683292268461 0.1053956892286959 0.4160461433672706
Ni 6.756371073149304 0.7182131169941686 8.759568879522215 0.31888981132923144 1.9190225486237271 0.482607376227272
Ni 1.5643984920083165 2.979155462936629 12.112786197432891 -0.42850288107338463 0.5629366094056435 -0.2613145840179242
Ni 0.6199603567320707 4.943670008599527 6.531444570028658 1.649065972660089 -2.459785193035493 0.8811054834084504
Ni 0.7907547177569288 4.739934564462945 10.06173815396985 0.3364689578635754 -0.4519068618196217 1.6674339336443154
Ni 0.03525566541311175 1.545755058247648 2.9107247393180957 -0.07997364961116549 -0.8707069137829455 -0.6182742056356836
Ni 7.458734474931841 4.622294497433128 6.004637062253455 1.2629978637121473 0.7559935466977497 -0.7931981807725049
Ni 8.027573604120471 8.126234655581928 3.4829784133999926 2.1371845085135774 0.011429839103496443 2.292065191846278
Ni 5.445308880797829 1.553482761541445 11.856414746759812 -1.5023048331107287 -1.652945253109837 -0.1835078601510904
Ni 1.8819614209706594 2.7487132999378887 6.106061070598242 1.4367995523190673 -0.10116751007996125 4.326373435118905
Ni 7.575349153104821 3.2513216306917445 3.7045854531395523 1.0137317262183252 -0.22175610499901163 -0.4849244543962229
Ni 3.785903450345147 4.891002308225639 7.5110460857209 -0.9626076538490002 1.3617256540023646 -0.544796448161507
Ni 4.3690514149450905 7.703876985450868 1.4644146889215404 -0.23047265893640306 0.28402128158682055 0.4962658475509711
Ni 7.222923003010028 7.749572041598267 12.99826167692596 -0.4172838724291136 1.6530900062178178 2.1092093634568903
P 5.024694371723392 1.547116028912177 2.8998640069808186 -0.31134825153654766 0.9904532153063588 -1.185981754067409
P 1.4288234417007366 3.695426866304624 8.309081996533058 0.5410480368626682 0.09214987996238323 -0.859344951802907
P 3.0148576385883086 4.0408710504560466 2.3393445101078867 0.8099154935271857 -0.7644941279695932 2.6425019247438555
P 2.504502961106895 5.108468641326954 11.596824507247955 -0.01283391853987467 -0.6578589099068413 -0.5367360397508756
P 5.476340876292461 4.198296205131129 6.3141208591956115 -1.5951039166213368 1.9832461344894876 -0.5738697113783794
P 7.030979530727068 6.119548662752398 1.0341755071681584 -0.2584354626979162 0.5846827428334834 0.263003798794889
P 8.258258131758101 2.1832206671092984 8.085195797016256 -0.28742105129698886 0.7435532640518678 0.4067780878017833
P 3.373566625860447 9.349682030975142 6.211032924387684 -1.2445172884094566 -0.15090884316914654 -1.0513827038018797
Ni 2.593609252766009 7.175568681257931 3.4611217838306727 -0.34295893646329323 -0.12417271272588293 -0.06970183537151223
Ni 8.849776998116583 8.583297077658472 5.679449901054686 0.07024459524885968 1.1833227191780071 0.2266939086202612
Ni 6.575576374255224 7.365032576850722 5.458728424418759 0.5711083465831583 0.3171468604961957 -0.12415728610691522
Ni 6.476794140474323 8.605361581514222 2.14867904520922 -2.0033161657664853 -0.16742149611218907 -1.224859404969213
Ni 5.359670267818199 3.652248673714916 3.991817379716664 0.38208521304079357 0.22900687302415398 -0.7811399640563902
Ni 2.5800647981388836 6.1635658098613355 9.292625666293993 0.05050649338998398 -0.35767284563470014 0.5353569000151619
Ni 5.2144472405394735 3.466662612344344 1.514226215243294 -0.7764656985091725 -0.6950470889213642 0.10289297741150022
Ni 7.721849255596152 1.470258473233822 12.142719162507332 2.0581873638830683 0.3283851524141764 1.100522141641008
Ni 6.520289271437962 2.509079924095139 5.727924693175799 0.3542147118827706 -2.9736600119174788 1.0408352673033363
Ni 1.4733905701056143 0.7595717104488351 5.060386293486503 1.2197416241266734 -1.0816972956250208 -0.34239406509875875
Ni 3.393794751490772 4.21394736777321 4.903365701324026 -1.2999726411642836 1.736172890881926 0.29952091988431645
Ni 5.437730324974117 0.23529038794820206 6.695450856821256 0.6457500424584492 0.14231235974938716 0.4629890877757123
Ni 8.506085296738664 6.583537120471029 6.67027942472929 -2.174855797812106 1.128612986339953 2.541252910693682
Ni 6.26355986683668 6.18632012076623 11.755905198840987 -0.9286636928033878 0.10863347943970324 -0.14589776310780034
Ni 5.739819203915106 0.8529464162674542 0.5367118319605586 0.5421430696990599 0.6115805956655919 0.483463039359348
Ni 5.850952712562449 0.1918847454666142 4.368194749163788 2.124823158734747 0.011234435263238718 0.38787559447032555
Ni 4.119602271227349 7.636471650689171 7.750621666918992 -0.4350874762694378 -0.6869735678846104 1.1572118810235683
Ni 8.327788817968512 4.560733879155401 1.7749490433561117 0.525276118740392 0.8438054614064112 -0.21200751025268003
Ni 1.2885129592179472 3.3051265805250334 1.5633013259315012 -2.399184034413668 -0.8905509450920663 -0.4092062376273017
Ni 2.0136679587729005 8.662708783762039 1.277125549876931 0.0649910601594042 -0.09952226116705441 0.12139206465695224
Ni 1.7737362879899803 1.833096981083948 9.509349058559946 -0.8357892759701541 0.18602831258009897 -1.5675033812952488
Ni 6.460322666746772 3.2414126456479497 10.700079072046565 -0.9688906586442345 1.0519568311377947 -1.055596227662595
Ni 4.276244401684483 2.687879775576828 7.1577399655526035 -1.1891290414471392 -1.680138525695177 1.378749956474503
Ni 4.188219429183488 7.3357344206958315 5.441606294852961 -0.7290347587207187 0.3268340058769726 -0.35108747910769855
P 2.4321664381155017 6.115931836602828 5.920485263116238 2.153487102328343 -1.6736251500566919 -0.9616352626334019
P 8.130252315557351 0.1349299874994606 1.040050053146145 0.6630697646838194 1.6218518741391421 -0.8986524911532782
P 3.8316357933600664 0.25454532633622023 13.48884685724756 -0.7749119808688074 -1.053228755871683 -0.8256066790101975
P 8.966494215175247 4.847516498978881 3.96665899802833 0.37841881993279985 1.1049485528434775 0.32500955107372415
P 7.107380322278286 8.212805440249591 7.70565370468826 0.33845333528345584 -1.0906976993514184 -1.7958723636250877
P 5.309221136061831 7.216873208754691 3.569967743155583 0.060849270076888756 1.0673477117715684 0.028560328136195974
P 4.863801538368825 2.0503302712632547 9.635071986296701 -0.8185127482778937 0.2484490409091657 -0.26034682078801613
P 0.9065090014618541 8.836791846502278 3.4639732970243675 0.32639074769196696 -1.9145503717849868 -1.1514600661414556
