# total energy = -340893.792213299 ev
CRYSTAL
PRIMVEC
9.08668467502951 0.00000000000000 0.00000000000000
0.00000000000000 9.08668467502951 0.00000000000000
0.00000000000000 0.00000000000000 13.29928151807198
PRIMCOORD
 96 1
Ni 6.452636333779926 1.9202981032136055 11.444004783388513 -0.5786043978498875 0.6806789931251502 0.09186782994559017
Ni 4.823421078981105 0.6244324093662897 5.949526608660989 -0.7215803593252025 -1.0169250363446423 0.39147308201359676
Ni 2.5546577152986676 1.5907785797412415 4.793952052768518 0.5651161335554654 -0.40730567817047914 -0.2413473968673779
Ni 3.5895583762107157 4.401353674784992 5.0768405291816645 -0.6528907672682885 -0.034426299998669745 -1.12740713895731
Ni 5.131532373981681 4.595354386955049 2.8651306395776053 -0.899527951779696 -0.08127719891393745 0.5272772083308209
Ni 7.188485124048941 6.096592778512508 2.525679370044263 0.3353281593909128 0.14350586583685607 0.43696386735654424
Ni 4.962374656990684 4.546913272361205 11.520076687938642 0.649360899738159 0.04863961538457429 0.2512482009208576
Ni 5.537916160884796 8.081742548365819 12.583713079631327 -0.44697368618406247 -0.8520126798075519 -0.49975354898925545
Ni 1.8278138292807322 6.6244746226721025 0.031598945038471944 1.0988002738538947 -0.3466243011300224 1.0311897737937725
Ni 2.735019314168151 1.7719125467856411 0.32650092691110455 0.3631426105000197 -0.8900161556345189 0.2518889198286501
Ni 0.5621122930034268 9.002914267192601 4.657608170521713 -0.0043644476162828065 -0.6982506834603264 0.3051873741414744
Ni 8.359231716902082 2.391951544239321 1.343307273155975 0.6563959522080695 0.29677395326679856 0.9284880864574719
Ni 7.06089898823724 0.5154103698058048 5.004612292137291 0.17772262092788102 0.6387299023868741 -0.5377709087732933
Ni 0.9074081179497794 7.428328159071361 2.3103376708670584 -0.5238846377095042 -0.5330349367502045 0.7395569984082812
Ni 7.737148215455978 3.8989054602911577 3.8877924452567796 -1.3036899421148709 -0.5737383280068377 -0.6739643001091361
Ni 7.654323087051759 4.161056305542032 12.892602194817467 0.22377133565682752 -1.0078703823415416 -0.7154567629259678
Ni 7.944933427877183 8.739854753500648 7.141461532223177 0.00641438816677605 0.43036333132089105 -0.04422708813917545
Ni 6.6472095070678625 0.8321640103494704 0.3726285716539655 0.5403242713227662 0.2127317900132143 1.0948549160529015
Ni 2.189781902783976 6.577941711804521 9.341853956393615 0.25456235289575513 -0.05305162840934089 -0.288698889568148
Ni 0.2932136759091105 4.905446579157176 1.2815759739429302 -0.24717865883717427 0.3528075471225989 0.6243155267337571
Ni 6.4840490017879775 2.2160878541531708 6.997735627561059 1.0401081593293249 -0.48933132521466693 0.2894900180108756
Ni 3.3613917306561416 4.3838981540318915 0.45395530579884763 -0.21213272297663466 0.2698964121496642 0.24975413287383438
Ni 5.835704982394732 5.8531332430946 5.00216524802547 0.4917543328338628 -0.25438880343236836 -0.26198204239859396
Ni 5.595752907159382 3.0443118781421292 9.194551532747415 0.021136010647666827 -0.4934664304289631 0.29697707041654015
P 0.09230435758154008 5.704093445389059 12.377082784798734 0.4043098287669489 -0.5582361186061806 0.11792827447806786
P 4.177294210584088 6.211811936841142 12.723315446907836 -1.26149145436995 0.23611571615479335 -0.4663526049313066
P 2.2913346877588032 8.521165519786514 1.0550821869883802 0.9503920856194149 0.5244417957645549 0.5723504465203756
P 6.0773108341928435 7.838846387381379 5.927954819869807 1.4395668306515592 -0.359670078570387 -0.118950287984679
P 4.680705613625464 1.150837667309133 12.72544354839684 0.06944755326886104 0.05596263140854878 -0.6355515046588925
P 4.202537019877223 5.896867455163662 8.261447179952404 -0.4703663540763899 0.8326530443340175 0.37360751458708563
P 4.6066037022555895 1.0867765422131652 3.814007659172841 -0.3408123224339356 -0.4939757659652138 -0.08845057673392509
P 0.10461681495814094 5.627192835220666 3.5057700592589542 0.35682309603989515 0.00810231739216024 -0.7095103155345459
Ni 1.6367662895441766 0.8848549672422346 2.6151968415170184 -0.751917319745847 1.2557784631455728 -0.5724787445681238
Ni 1.7552657409451002 6.448529152426255 4.6643768417393 0.23869993194220177 0.7630036594669956 0.6639819920854436
Ni 6.240126045465119 5.458471279081385 9.256312818019016 -1.081617334316705 1.3216799509343884 -0.11682912787661814
Ni 8.602191484677398 2.4353677223540062 10.341214777238237 0.8945896339378141 0.30708279139197436 -0.0783422846553296
Ni 2.373732741995716 5.2033989609865055 7.038883769246814 -0.43115163155014136 0.26458785545255725 0.4141227010923126
Ni 0.39421853381396815 9.15910528552942 9.314098678860901 0.7018617978503525 1.1147832795457122 0.3046073332682883
Ni 1.2701549203070264 0.8302094645327126 11.742147985590469 -0.9303032852893398 1.7084831382761414 -0.9886652701680004
Ni 4.034533311806394 6.659431097600356 1.6657746208571362 0.21861087450181063 0.8409188838872356 -0.6043318845229786
Ni 5.6773695065369685 7.670533732040583 8.076600393657762 -0.3840024846681645 0.3248995078584211 0.6037176479777473
Ni 5.479234352960007 2.9436132415019145 4.896356260072635 -0.012493504481320418 -0.31877745412108327 -0.5645980562684663
Ni 0.8147230282914278 7.386729317838831 6.67818056221355 0.12105807835630117 -0.09517195461815868 0.6484787542435219
Ni 5.042037619219953 4.33947335394761 6.965365223016111 0.9588692698524907 0.8605099186452858 0.838522101520285
Ni 8.337341894156523 7.232928097502044 9.27309683279416 -1.1576926773147287 -0.6847549629667369 0.1535388245928259
Ni 4.730255303717422 0.435541139840411 10.438752156371944 -0.6772131460637368 -0.5146309803217202 -0.32508925527172394
Ni 8.090674759141612 7.013575535825922 4.72189646272795 -0.12762081917548343 0.9244167446015757 0.2841529220686784
Ni 7.443103107923282 6.214774195959055 6.98725595443011 0.2911481224395889 -0.5824587385989711 0.1842596507154504
Ni 2.3510887244440632 5.318554512524264 2.7252220510364533 0.3784203625946967 -0.8316755109120967 -0.9873820325802027
Ni 2.4860350746284903 5.062691652885645 11.422273977620142 -0.3947936617463975 0.7257967113993952 0.40370947617878855
Ni 0.9594448335649677 3.5020263452817146 3.604570487525758 0.5034322833924233 -1.1468508495042185 0.6281629255043052
Ni 3.5861326961878532 2.657019215186054 2.6397208940732604 0.7175121027930997 0.16859469048468384 0.2547042777902581
Ni 1.240377855492915 3.4526402155091493 8.23500765432237 -0.9407090540036959 -0.5408017251798171 -0.575232653164177
Ni 3.678953177443925 2.4222465500648465 7.054577381892664 -0.8134844418253667 0.502517741997954 -0.21527949613573247
Ni 3.768902266426192 6.942744830843926 6.074047805820933 1.3124887713534235 -0.1605633355397751 -0.16630049513386844
Ni 0.8062551470890261 7.535805462282013 11.373584796541884 -0.3608201330144302 -0.3109206770808258 -0.7535353149652443
P 0.48329348375591863 5.77171655077405 8.205111553942478 -0.5980324246675119 -0.6348711907624163 -1.5044524755813509
P 8.568952393102782 1.8810254531902337 8.046250867725771 -0.1232247469903168 -0.9334220334239794 0.11873662931197616
P 1.785560746770626 3.262592211057779 10.418350732532872 -1.2737998394236578 -0.8781042346882812 0.6568063002726108
P 3.9948881077221796 6.259099042514818 3.9248306795835415 -0.38786453872673204 -0.09022746612868977 -0.7163057411898244
P 6.885262465261361 3.9806220131972623 10.710749332850334 1.0632820263426268 0.24565296622126723 -0.4312686167439798
P 6.3680756486532495 7.952220948774625 10.271567158566526 0.6893094151066386 -0.7226625366457876 0.6502348177026802
P 2.5018459055032403 8.661554793932995 5.612695938911714 -0.6866627215124109 -0.5229258733406607 1.2399661787036644
P 6.786662852720035 3.9162701142001497 1.8173995802775422 0.8543827227016254 -0.1236582349833096 -1.1319880734597731
Ni 5.3139748235812325 3.0603589628115584 0.35882953270776174 0.15329559823376826 -0.4018611101161402 0.14680844784752783
Ni 1.3661375677380485 0.8205548623462635 7.202012471131262 -0.12952035019104147 0.472403953331709 -0.8731463764623737
Ni 6.992421734517636 0.7266330749396055 9.212039765564395 -0.44106760511227266 -0.057838508275022966 -0.028679113102247383
Ni 2.608877961177765 1.5810830874749437 9.156103045000101 0.5394058732735549 -0.9839017873410862 0.7674449830678008
Ni 6.230457813252054 1.8518844562848766 2.7170694777831055 1.028069740107552 0.3931512410469681 -0.37565205582094013
Ni 4.408877449477114 6.7761677322255895 10.546701967171957 0.13576710243170165 0.8014835607097487 -0.376235696238552
Ni 8.25423507853557 7.217153613364937 0.4696325624127587 -0.5674648362933001 -0.9444322684915541 -0.27864870442099754
Ni 7.818365000719489 4.068671985137677 8.309909193920392 0.7944425947025673 -0.9567064578732168 -0.9306616970700229
Ni 3.090045160781562 8.60538091090558 12.258293468165105 1.175486253852724 -0.7695795129123004 0.7330976159361826
Ni 0.183481966296144 4.862303001574813 10.153482059974733 -0.19064909918156198 0.5003243338910609 1.4286355284510364
Ni 8.95018423755687 2.098015476919554 5.75146051388555 -0.04885404538822554 1.13608461212665 0.36555507659625436
Ni 3.6603163877174247 2.609368642135947 11.303937177870173 -0.014495879623329875 -0.764144200829342 0.8922591860324247
Ni 1.0576718920454513 3.2813016942595663 12.805505416071743 -0.6204452451450735 0.27230964957684717 -0.9218924355178252
Ni 3.2510793819093267 8.41263416118421 7.82089473365945 -0.061525984428939196 0.8864194394221958 1.1658132495393343
Ni 5.7104359511077805 8.120497257377776 3.4992140164565795 -0.6923410028441108 -0.16761124352549198 0.37145267302761187
Ni 3.109808699374999 8.246238796254088 3.443024686065667 0.2524568765169781 0.13084215432625854 0.45670428320826506
Ni 3.4633534164294537 4.003620411440935 9.351774798433299 0.5940582705111125 1.3029708045606594 -1.296575956777909
Ni 7.196999347341837 6.215519304080739 11.490365955920732 -0.13321733942665445 -0.06680934431506558 -0.09147805070633923
Ni 0.2916453141798106 0.10287217155127204 0.6104134726573452 0.020625903780467702 1.2999667276270128 -0.44702048026159785
Ni 4.478417845272778 0.2037479985374967 1.5436214136546398 -0.4395437122685785 0.09097000072166914 -0.16894564606619936
Ni 5.993913244670745 5.563131710124698 0.48577505726850145 -0.44193406687762593 1.0375193155562261 -0.29993589593454795
Ni 7.841190751959358 8.835537540346115 11.823779123663114 0.20145930242318855 -0.38247807760383806 -1.0792426634369412
Ni 0.12162436216978952 4.806774273140563 5.620488679462396 0.3704897948937103 0.027905725271332588 1.3613857541644425
Ni 7.956655250767082 8.807986713212642 2.7376835300373905 0.05146345798661459 0.08316798817874708 -0.6613985476289835
P 8.634267480647436 1.6106693319164291 3.6424601441818094 -0.5090005215088202 -0.014145438262446606 -0.9877759255845118
P 1.8245971429993177 3.308080153218121 1.6623834702350349 -0.357428590834378 -0.15899470550107456 -1.263930659939062
P 4.919112952510981 1.1533274188376854 8.314710597963046 -0.39615480375998224 -0.8277568925839809 -0.24276793136398833
P 8.366710058172151 1.7710402250822066 12.502175534408115 0.883072377326834 -0.31348406693262787 0.5770103138898902
P 6.336590287169912 7.92897721005186 1.3362451020319202 0.19221207279330768 -0.8730748997944899 0.8861240196689643
P 1.8995804627570372 3.257612708000674 5.917541479535059 -0.7621256277374164 0.9360124198589751 0.776282893074405
P 7.094728714298558 4.116304384818963 5.988812888710977 -0.40232056625106194 0.47175140734937465 0.6683880915729392
P 2.414959029167404 8.636021210738717 10.188060528831498 0.02454323655700289 0.015505037614134588 -0.7535918792347924
