# total energy = -340886.5065617352 ev
CRYSTAL
PRIMVEC
9.09403818014777 0.00000000000000 0.00000000000000
0.00000000000000 9.09403818014777 0.00000000000000
0.00000000000000 0.00000000000000 13.31004411611361
PRIMCOORD
 96 1
Ni 4.841393215789077 2.9455408452911525 9.859894647961752 1.1734085453880887 0.7757576166985544 0.03647855454200814
Ni 4.22311682801018 0.44906725313776313 6.634311984598566 1.5919000649720585 0.6162985699665515 -2.593955897514352
Ni 3.5947824337758782 2.81856078730129 2.893257399799831 0.48206770167371815 -0.4470163664965398 1.547863238466818
Ni 5.018745152401431 4.6802650436581335 2.9382055939286493 0.644463976657174 0.5675417122778226 0.26026865925191306
Ni 5.442536435247923 4.699889978496071 12.382493593591708 0.05927626916281404 -0.5966705113229789 -2.602837002054066
Ni 5.769239764280781 5.92013714322698 5.116527890747789 0.3650735089741454 -0.011221579747432287 0.6734734765156466
Ni 3.4600360670039967 2.908755460018002 7.635333712966759 -0.00193578357013215 0.485230415672416 -0.5367298691032886
Ni 5.226171073957741 8.138373174524205 13.252544799926067 1.8364024625286501 0.26529002372590443 -0.32996663796868336
Ni 2.0004247179035994 5.668805204340937 11.692634392057785 1.8407617679386106 -0.8341746231848666 0.7124840534508892
Ni 8.268481581719003 7.498225624425918 9.812790257331509 -1.142846613440832 -1.0667805264141885 0.0793306167105279
Ni 7.6927561995502565 -0.24417765888743068 7.66324513558242 -0.22763956036298216 -0.6330040556466905 -0.7800379892414631
Ni 8.471296825813388 2.5781780706325206 1.4969678399842157 0.6085052991743778 0.3779277392289943 1.5564430097160293
Ni 1.368652777159224 1.372053947515753 2.6677325230468276 -0.9078148743788366 -0.1480613464180224 1.2590910724585735
Ni 1.7669534704085246 6.797166205215256 0.9230039730509239 0.9680637918675651 -0.6086410534212938 -0.15712654194408424
Ni 7.481674474562597 4.073601742898719 4.305000459045524 0.4335391579457114 0.09764484163868345 -0.07154634477941871
Ni 7.5818180252740754 4.064216695283912 12.938534020269163 0.6793484472391849 -0.07435141832838163 0.4872417896754898
Ni 4.427368930169623 0.7230106090678506 10.757843635854195 -0.12933625920469338 -0.9420735384513905 0.9524055165050178
Ni 0.42462611557036695 -0.3437901177571402 0.9355419237743087 0.01263568648613953 2.3223533013068582 -0.89265796413274
Ni 3.759293588186579 4.972147299709312 10.042269221974937 -0.8278885330658386 -1.1327051541314557 0.9535231750492288
Ni 0.1195047584362084 4.960834315956581 1.94608783854462 -0.22912874331399893 0.434420017888768 0.2069370377083081
Ni 6.2515148079904685 2.3789276895856197 7.210889478164121 -0.2905112601865384 -0.6899550191104377 0.8101206675594563
Ni 3.2833661832706262 4.602674708145027 0.6894472415950165 -0.07170009674846362 0.9278108578847893 0.12877987248059114
Ni 0.47139402678031206 9.375498874500346 5.287095674723858 0.5222543011949329 0.5416926124252026 -0.40951271312412696
Ni 7.009357402886062 0.8501007049221887 0.9085753717469981 -1.006719299456234 -0.9495490208928291 0.18220508217926684
P 9.440430308579527 5.917181580751387 12.84724078771537 -2.931359451377055 -0.3318972793324929 0.9164437536984282
P 4.131685366072912 6.29662123838721 -0.4782563881467197 -1.8808974596172314 0.07145661327908984 0.7505500070846751
P 2.4530622905118786 8.816106385273647 1.8075310696888198 -0.09563243919434497 -0.40804512743966503 0.6598985660446893
P 5.990415871877389 7.8141434239324585 6.241213081306309 0.47248520019160567 1.9649949015887835 -0.2633462697359723
P 4.85533437663549 1.2368619728629353 13.170941265273024 -1.21689541292713 0.2511934364235222 0.27130537668204885
P 3.926951279878987 6.657727314635972 8.800428263095425 0.33310621203892954 -0.6127602177959898 -0.9070610269319476
P 4.59720009703639 1.4058746762749232 4.568220124910322 0.5193898351629442 -0.7061894786914289 -1.3386440895925527
P 8.96771309921399 5.810017432405577 4.453341503801295 0.10110451805250975 0.23820345192175751 -0.5545147038905354
Ni 2.5367365377055133 1.9295548767580724 5.1253518361941515 0.9890699618055869 0.1862057186982277 0.9428250719054342
Ni 1.8826478267608147 6.617668075543704 5.1242869242991 -1.4507436732039853 0.9699849201496779 0.4966386575093576
Ni 6.727296708292237 0.8928508699730047 9.766817165076539 -0.7894040038373953 -0.06192604808083528 -1.638110759200166
Ni 8.579643199149434 2.038492362589237 10.39349462551683 1.1308089655500075 1.107690120144357 0.9447562274898761
Ni 3.201956351635215 4.8059446541587345 5.818738615218174 0.5360073891149673 -1.6649463913357714 0.1754690490070139
Ni 2.0668657623549302 7.033156501343375 9.847156628393865 -1.1808444328408438 -0.5699341237693992 -1.2814732968085156
Ni 1.7945993471033024 1.3460995619608531 12.132185643427976 -1.7575765533686827 1.049938000935553 -1.401456396933083
Ni 3.9400830713090063 7.153525193426296 2.3097184198494563 0.3912167430284165 0.9370305767108443 -1.4125658765826834
Ni 5.492289919260137 8.041903615320848 8.561459669395747 -0.14914455217987216 1.274807711862882 -0.15705995037220694
Ni 6.836734366234657 0.7820145489267508 5.362164233392404 -1.0133799993058612 -0.044557217785084556 0.1348070525112775
Ni 8.056326760201742 7.721266009891746 5.336915545216292 -0.4236964608236768 -2.16203524900867 0.3462908290500036
Ni 4.906333743906646 4.75169871518362 7.850077607212637 -0.5050207109254657 0.7006374385249482 0.7624038210994676
Ni 0.8580616261256784 7.358659417309223 7.680454693824919 -1.3271366031735854 0.6063915952654847 -0.723290914258406
Ni 6.401821074441549 1.9302278355986688 11.930485328439769 0.6146854598431607 0.8919102873334381 0.07141110475313507
Ni 0.5770167356196199 7.478937169008279 3.0625611124401853 1.2538516784365052 -1.076580800334062 0.2961954550555092
Ni 7.13672850452654 6.4827125458889325 7.388192306969187 0.7909065565248508 -1.5319308835072778 1.0237734267250431
Ni 2.630077747703934 5.431259827648737 2.9308048654897645 -3.365230281630572 -2.2201835752146275 -1.1736301744805917
Ni 1.5323454681151447 1.4206979588448205 7.277866161476413 -1.548624542112875 0.35856990352767276 0.18349911840034205
Ni 1.330503286128108 3.4605089570000915 4.05602296669773 -2.0366574602310927 1.4007035779274586 0.2622417238178838
Ni 0.6913915470020373 7.821418654641611 11.71225387047269 0.4758859983430385 0.1577240663187671 0.7981781504855996
Ni 2.3426061002701783 5.513006138704447 7.9400267408929155 -0.5797976468270402 -1.3609918611601335 -0.2872289898908408
Ni 6.43144945150457 2.126486278016431 3.045032353450322 0.1456254832830202 0.017337719947499174 0.4111345649982661
Ni 3.90622596639629 7.104326445755655 6.61640946063102 0.10037972407134325 -0.328266367448125 -0.4408755437061246
Ni 8.081371741917998 7.011412655561396 1.0338666668084984 0.3644129925720111 -0.1961080654136042 0.14137699241931134
P 9.209623614331681 5.7235876915808515 8.904126673412161 0.15831439160459831 -0.27082586594246905 -0.565208950379588
P 8.567038861945829 1.5304357200539922 8.175575066755453 -0.4832696924016193 1.5425289707380982 0.7789342146543231
P 1.7826952508554523 3.6096057163457758 10.936544218359257 0.38196102875810345 -0.9095400846000593 -1.0492234913670317
P 3.8260165478278894 6.166030847157932 4.311043447553313 1.8323300922314896 1.6121629289861523 0.46707739891247296
P 6.713073632255845 3.736540304143706 10.727575947892605 -0.0855395737347172 0.6714849853307081 0.39114218103673926
P 6.386042917841076 8.221692754220769 10.891796093074941 -2.0564991775473676 -1.772725236084663 -0.8745833660192164
P 2.1319154189331355 8.528898464953098 6.395236990649766 0.4561329840858273 -0.22655892570429367 -1.616398821444371
P 6.93786007309187 4.196243944578249 1.9089132284285306 0.13707810793364134 0.24974873355719568 0.34485409660347704
Ni 2.808912012573277 2.1265590303235227 0.8019159425316363 1.2271428016867512 -2.068863355539676 -1.162385454804708
Ni 0.6869136425005543 3.5107353310083997 8.574224061674954 0.689132266098826 -0.26548902711058797 0.25477601156845797
Ni 0.5892363949994792 0.03647891617952688 9.359157796923753 0.6510166901740271 1.1515803937694038 0.15033677271576043
Ni 2.4404579533082726 1.852582935855244 9.655079624826188 -0.4826796242261041 1.0818497620424852 0.756806272407032
Ni 5.191186308285106 3.1512298055156527 0.9749563955449785 0.7183019456842469 -0.7619924445936619 -0.30659788133575583
Ni 4.2590746557901635 7.142757851976751 10.886924416711324 0.07462035571905214 2.305882557345345 1.1063593171480752
Ni 7.258297609676471 6.565450107128765 12.226753639204727 0.4991992191476822 -0.23640316548822513 -1.1300160373350667
Ni 7.476654565373282 4.265022156894895 8.707524476343393 -0.739856531926571 -0.06016561374630283 -0.45131113721715177
Ni 3.005643344987134 8.743263137798262 12.994836121323452 0.2456668501783382 -0.7768374800262944 0.002411951875602298
Ni 8.770863544301108 4.570445436103483 10.7823602539402 0.7508829649440617 0.9736762529583358 0.4051765476426183
Ni 8.519977213296 2.562663641145254 6.163176228508429 0.26706639890003686 0.3263095008320703 0.2532878570587057
Ni 3.6673255779845104 3.253219446019578 12.065262614942165 -0.64358028850064 -1.193947545881705 -0.5307659382103698
Ni 0.919598255675202 3.5075069473812137 12.970065779566468 0.10953053733267588 0.6765852826717509 0.1560335659902216
Ni 2.8581653244742364 9.043739260124628 8.316927343011246 0.7412629253557944 -2.2272610508866997 2.6794247659121337
Ni 5.09742677252091 8.319571889374023 3.993798827846192 1.663044289217052 -0.22195767948685644 1.7664759127408416
Ni 2.8025552797411555 8.940194539056622 4.205415282290974 -0.2911674057132985 -1.1712336492239572 -0.6417324366586238
Ni 5.1136141608487735 3.375634296739447 5.064671865060631 0.20474311538078285 0.36282533636991704 0.46732062527153057
Ni 6.180235735117551 6.158673770103301 9.96271457417036 0.40484513244512865 -1.4783899741663442 -0.28536828253301816
Ni 7.908412225846296 8.814351235865065 3.242753117240624 -1.084322134842378 1.6577023081788482 -1.0024900918662347
Ni 4.689604621081007 0.5567115667103765 1.9968662206829852 -0.6057678456385568 0.06967072502326065 -0.08736197165543665
Ni 5.798431627501253 5.978129826017308 0.8839559910272277 0.6931174759988191 -0.3093217080248221 1.887410321035085
Ni 7.815698504496539 -0.07320882781851952 12.091363414515087 0.9303554786835139 -0.3182015270129552 0.4323834470747134
Ni 9.252001833212493 5.02814838809301 6.543590767059278 -0.8109135957743969 0.7207342092748233 0.017328206865802415
Ni 7.121559648497958 6.379813501546364 3.141157248598832 0.658256402455576 -1.9518082276951803 1.075191119075387
P 8.487820693561549 1.7552494430051762 4.070251499157155 -0.2957804790052777 0.7594982174168985 -0.9830335258035198
P 1.6998758432701429 3.4329813028043374 1.9106838377023707 -0.8693992507151156 1.4516296753533646 0.1638152668181695
P 4.648153994115614 1.3172350841222924 8.571602250408144 0.7641310882032195 -0.8386092619174524 -0.09393525399758015
P 8.682051165419136 1.655960731902024 12.890884896739571 0.628064452253228 0.5608529874037372 -0.20325444665039835
P 6.2531972050919595 7.855312135707872 2.020357940642837 -1.136434796377217 2.2513844262974647 -0.9064416481803936
P 1.580116451759114 3.431617197046372 6.495447837245304 0.7482146740832791 0.36672621408622 -0.44193920908394857
P 6.532311431248577 4.4344259039575 6.648793331325132 1.737490838362401 -0.5148582658411778 -1.8966722059529852
P 2.4047820407182687 8.921206186905735 10.640023093327155 -0.13576710243170165 0.5959655148361543 1.18995847932697
