# total energy = -381167.0239171584 ev
CRYSTAL
PRIMVEC
9.27201664922052 0.00000000000000 0.00000000000000

0.00000000000000 9.27201664922052 0.00000000000000

0.00000000000000 0.00000000000000 13.57053359594009

PRIMCOORD
 96 1
Ni 0.9913361942168116 7.016274008873936 12.0929330198013 1.541478932207029 -0.6604174146626368 0.4303576748939362
Ni 8.877928037206567 4.941484135947258 7.493159782042977 -0.8434102828505218 -0.7956037048902039 1.2757808744094288
Ni 8.914098173795134 2.199887920312719 3.09345719034834 -0.15835578636549502 -1.1244837946629278 -0.26001412003894575
Ni 5.801482215635218 6.933252372623225 1.1621054135572997 0.21998410070025337 -1.4356057891212826 1.0621029184328612
Ni 6.8210980603506535 6.704066667369139 10.922406760807 0.5727798207483104 -3.9856932673874583 -1.5111699968108425
Ni 7.992700800467212 7.142382706064681 13.420714534004368 0.5735030720675801 -0.6746708392578574 -0.649190949819198
Ni 6.5396552697817345 8.30421274073024 12.246266212006491 0.7168094202991203 2.3349036271680434 0.40574964653726897
Ni 8.394262565531102 5.997576093797637 5.512079398852179 1.8796571594522273 -1.004495809442354 -1.9729162133183895
Ni 0.888165538786245 7.781697519681257 0.8127376840956555 1.2637833357279202 0.6934478627550444 -1.103755818086957
Ni 1.4923310648371713 3.6662109787077135 8.561174625983908 0.13823099059116195 -0.15146882943767462 0.4224057670367113
Ni 6.568713769671139 1.643965623609132 8.811184353223194 0.13663330708673888 0.770486340997286 0.2717509488598997
Ni 6.378405629840241 1.6010640030002374 4.861766119195778 -0.4158983049354966 0.3104517078642073 0.6103114991451811
Ni 1.816536395766631 5.826015971444844 7.483687489928423 1.077636495292086 0.6127705022086349 1.6234744973442299
Ni 2.57406014846745 3.4384068039206097 4.833009887046129 -0.9308730417498807 0.2329440032950311 0.8332294856627779
Ni 4.666281412521149 7.147908827932609 11.688355067751443 -1.3093414839736937 -1.059193972316182 -0.73444795931649
Ni 2.7393616596443193 5.579352514980952 10.010969387664527 0.3910488499919846 -0.17905908035111742 0.30428183160806954
Ni 1.6633626822462204 1.612561303530825 1.1544884519557854 -2.0690502747395008 -0.8088292024415424 -0.23988829582334817
Ni 9.210070214308754 4.670110755359159 3.526682891954131 -0.23284758692648283 -0.4600243487204336 0.750685504221275
Ni 2.0254071127444933 1.3005857624399504 9.139373869667164 -0.25576382940302406 -0.07108971685797434 -0.7547789575643581
Ni 7.794103477834423 0.6438256496715196 10.780119321926078 -1.409233726885657 0.4401075551918485 1.4726587281095218
Ni 8.940690317280396 7.58058748056154 8.217989477162423 0.5504773005963681 1.6745643740415097 -0.9393484262107434
Ni 0.3800312154170528 2.2166053661648557 5.1964154495749595 0.11793984444229366 0.8666491987738043 0.5895791516938362
Ni 0.11118816814734012 3.450506785527397 1.311244872673792 -0.3827207897422634 0.8585137141508634 -1.3037012549687805
Ni 8.962229211742136 0.1446110062300897 13.137633378109841 -0.11642289357713498 -0.48436626789990783 -0.21238880485149872
P 4.929189441992774 4.610677129229266 10.739544050271315 -2.095868680483926 0.5540287653930523 1.5152248836065065
Ni 4.725316341939094 8.515447821930119 0.03528744061234735 -3.0838916890822374 -0.8639307714013766 0.3532986278264045
P 5.5374522721602055 0.8574408575215607 11.46201216277371 -0.6285280221532079 0.36981719430671794 -1.5144548382097014
Ni 4.468221866848662 0.38457821233656914 8.291324637716114 -2.038440263163128 2.3524845734746003 0.5892590493502562
P 3.650837975256331 7.447218794406724 8.82622078247356 -0.37474008552963206 0.2106944478682113 0.5063090907195861
P 5.502941826535329 6.365461894726773 5.2465446070899775 -0.5285517041678703 -0.18652993480686586 0.0563611523985481
P 4.033846435189813 0.3310638415766175 3.690140199037827 0.37827715214861307 0.055560253763807535 -1.4805903242517726
Ni 6.0553314849307265 5.292031265914942 12.92421010100253 -1.1966574886137002 1.1376411579804924 -1.5207447849834712
Ni 8.678431328967756 2.652000719644967 10.009462684974027 1.5415606932875578 0.9894751676638056 -0.8115139483625572
Ni 7.837737587751315 7.041326997610749 3.5064226085755927 1.9229460520478496 1.7864682967023684 -1.5069924683943852
Ni 1.7274972207704746 0.3201274980477238 5.032781974176681 0.5745158296028106 -0.3368463958076522 -1.2382797921401771
Ni 3.653842108620775 5.364167554727823 4.157156837783678 1.4122295762891872 1.2454685965791326 -0.32615394909081247
Ni 2.2761780725431024 0.2720159313354927 13.047267377544388 0.8447122894913969 -1.6270922966024755 -0.4862092346459175
Ni 6.771965644615504 3.060980097954397 3.163522110662404 0.0804153651342744 -0.33331961360131623 -2.104983755411317
Ni 8.767081079268522 2.3269701792419406 7.387676685683114 -0.3897841243469481 -0.0866690593534701 0.7493045647133483
Ni 0.36596000309026255 5.956148723821294 9.642895364799285 0.0024446048857506286 -1.8464315646298781 0.4400520193635647
Ni 3.6338794569737147 4.998145429126629 12.409424960157052 -0.7958585012134874 0.5900499206826677 0.35291553345537285
Ni 3.9012195103595495 2.7645351845963724 10.011810359566242 0.3132236141823896 -0.3669596702532648 0.8936028445445127
Ni 6.328614900929551 8.382561280636262 4.575468500757653 -1.8641318101231186 -0.2431181156145555 1.8100573968762184
Ni 6.90479655381002 3.379297698370209 11.295433894916952 -0.2588658653671155 -1.222067701156689 1.899797381845528
Ni 6.380964706409953 5.166469617701057 7.005855971070575 0.8269243693803566 0.0321398179573382 0.42449530257588824
Ni 1.9441286156064839 2.4634264469102143 11.936953594070763 1.1394530143782506 1.4383797523219937 0.06388008648341256
Ni 2.1340473307419905 4.597251249254838 2.513031735489766 -0.23311061077988238 -1.5125414232370724 -0.4651400726804441
Ni 2.5786497966631283 1.8171112607931603 3.184515810550595 -1.2600464943933074 -0.44445477641695064 1.328335765688009
Ni 4.603361508165852 7.567022520338758 3.3264638936255357 0.06681268674917526 -0.9268351242350812 -1.0579282182298813
Ni 5.02097313388978 7.828966260088463 7.225101147373981 -0.21461126642411427 -2.3796863307003724 -0.7354051810234367
Ni 1.0154527092813752 0.47611990460143966 11.097073008706365 -0.647267250433924 -0.38220811177190306 -0.4515103977121514
Ni 1.668156314806151 6.134329065995733 5.231047358616732 -0.451107505846778 1.527352520107976 -1.9283685086150015
Ni 3.7711794781486683 3.270128975428967 7.76917102531285 0.8698473939961279 -0.1534267244949938 1.1146408404305772
Ni 1.3836259427237758 4.969726698379653 13.396491390749402 0.9725519095459056 -0.703919965930962 -0.06912436560148741
Ni 7.277021658487797 7.280702649060896 6.72607194426369 -1.4144708069148801 2.359924574692413 0.858728658375147
Ni 7.371243890739275 8.615159087983296 1.3939382795383886 1.5882514124758775 0.6688781438354803 0.17873075047742124
P 0.78853123047049 4.5020369112317695 11.137608410689932 0.13107715315520005 -1.0825961532902064 0.9996443948873237
Ni 3.316108905534761 6.320946943236973 1.6358331378870528 -0.03300885082585283 0.8342496993971762 -0.7385784365450957
P 0.9695747713577073 4.382177553200393 5.969216703956625 -0.964622884506816 -2.392051022913313 0.19429003836825895
Ni 3.0922175217346792 8.698134364151223 1.770303339608833 -0.7020556590287135 0.8119461508039694 0.5143080497646627
P 7.499939480549402 6.2189269450611215 8.857106796826335 -1.2811683639735871 -0.11571661153872974 0.1317546388381989
P 6.445247597199118 2.7847110926242427 6.88795486293602 -0.10842779118680036 -0.553020635843512 0.48906084516209963
P 8.926133251286023 0.46393554764398376 9.029127738402007 1.1282779715980378 0.5101626601377213 -1.3205424948958353
Ni 8.99490379808874 9.238201512542467 6.438458626676137 -0.44325509968189464 0.7225640633947104 1.6503173285686867
Ni 8.80698783852953 7.802800629364819 10.776591319626165 -1.5652017297452658 1.4305620560497878 -0.7946891634957346
Ni 1.605088058185943 8.003085459010968 9.302641100411444 1.2502246232068792 0.47917238240379406 1.3392650110060034
Ni 6.101394863185533 0.6075303408594345 2.622261653740284 -0.8617026534018063 0.8606729265857113 0.8834598425732398
Ni 6.630159423393885 5.3080903985915375 3.416992154480734 -2.020241223656598 -0.9138960475759099 0.5020132915577097
Ni 3.609141716799837 9.11888920348795 10.651864152902403 0.1790806776176722 0.6257304048034127 -0.33591282824978924
Ni 4.135087583974883 0.49220221731942704 5.7233320968835155 0.09740624326531612 0.940169379450142 1.3082963305386306
Ni 9.199880268112693 5.904855928228382 1.4974816700345435 -2.716352492176419 -2.1190934553398213 -0.8225982312011768
Ni 4.666689381249654 4.364950146437625 1.4811425224579293 0.15023855657499932 -0.2330149657422826 -0.22984222444125577
Ni 4.484976400767026 3.202637966911106 3.541366057373678 0.3860547392115029 -0.2885353674070902 0.29238996526648997
Ni 4.565290608183116 2.9958256376088808 12.692763878111863 -1.6138066352371625 -2.3247847935664865 -1.2510615172858777
Ni 6.484783475797849 3.1474972844470694 13.534693579135343 3.5906298969194417 -0.044068193963807976 3.183405722719175
Ni 2.1121375556179753 8.450441713849512 7.029658164773858 0.1353187020403734 0.22600742407619784 1.0798080490221083
Ni 6.372554987392822 0.3175480230415871 6.821445760971538 1.1817396909616036 0.7481192861559954 0.1337377307064987
Ni 8.193912831769053 0.08738690164571217 4.1834430047225615 0.44941314886349054 2.403495774415145 -0.7674239000218783
Ni 0.6874875756380822 9.243041505185182 2.646674873334669 0.1481827024872351 0.25171871279937297 0.38798100969993826
Ni 8.954320181619078 2.4623045329068263 12.467167370466964 -0.9775681318135746 0.4199511348486316 0.4607378298476904
Ni 4.488203062528837 5.41164955151584 8.285746592555467 -0.9252508104670969 0.7845032241016682 0.37587111381028165
Ni 3.488948566172411 7.547644005734784 5.442693190150082 0.5963318970366376 -0.6690894885153379 -0.9696622467029364
Ni 6.027812139789772 8.461716485982734 9.528875522795461 0.07657593678352619 -0.15240599653996334 0.32165271878634927
Ni 5.956621596665697 0.9340814919777962 -0.038935051925841874 1.922288363859193 1.8809370546059156 1.0362998413268283
Ni 2.395091684885673 2.0360884758180715 6.707249750653132 -1.4532466421314971 -1.352491022777974 -0.09469604342300465
Ni 1.1280428063321224 6.879391228444043 2.907907449414457 1.867009645891546 1.0896139793689363 2.607769920579309
Ni 4.825055424041943 3.956972145916343 5.8605839035723735 -0.26665193707043755 -0.4231022788831036 -1.1236186184491552
Ni 7.482294833041573 3.8149897563801414 5.282438437585147 0.8464863506726842 -0.6546769126344337 -0.07596427134145627
P 0.22478335179285808 7.925747568909652 4.895664611727898 1.3912450036177202 -1.9950228154094416 -0.740824295156479
Ni 8.359566679575087 5.042651108599872 12.778624605832306 0.930139763128282 -1.543882142331883 -0.8043961063708533
P 2.883930941799903 3.116936717875443 0.6035980786376424 0.5628540769941661 2.3814274817611953 -1.1333782689390803
Ni 4.270987530649741 1.7625825314218808 1.646471849684469 0.5519649408854881 -0.2764295852824917 -1.4070778568849185
P 8.17058443811183 1.5127573173120783 1.0511657354536854 -0.31943488519942403 0.4663058108537711 0.09022643768742526
P 6.961457846989393 4.998525581805463 1.2684535890619248 0.924187402199589 -0.0966030306377304 0.1415364008153111
P 2.937764269929413 6.9382499895474075 13.081913194610998 -0.08573086380991687 1.2929298753848895 0.8090091796628325
Ni 6.414158525683746 4.35890479164251 9.47747053580221 1.7267210014404066 0.4680780722628455 -4.130929999872492
