# total energy = -381165.81911517825 ev
CRYSTAL
PRIMVEC
9.36454085599737 0.00000000000000 0.00000000000000

0.00000000000000 9.36454085599737 0.00000000000000

0.00000000000000 0.00000000000000 13.70595212505692

PRIMCOORD
 96 1
Ni 4.183627454381896 0.10643081868080403 9.884499726659282 0.7232834580592382 -0.4815503957176674 -0.07207959157506941
Ni 1.1554532650919629 2.669044039059949 8.09165178265314 -0.556247370310926 -0.6167816802505572 -0.2948803357885115
Ni 4.060998789003496 1.6905525066641012 12.589863201824889 -0.1653306750214314 0.20033444479012594 -2.2691319800888725
Ni 2.9694585167490724 5.8984434869715745 4.44277052664485 -1.125893273415945 0.7214371488791188 1.1108299513249191
Ni 4.716825694115789 5.066993978536905 6.11778913257358 1.0761377992593724 0.4089139031978635 -1.439154168594173
Ni 6.314772254088253 6.595071697548067 2.9914614424591215 0.14017654435330698 1.5145003467356561 0.6829307652738045
Ni 4.651929424465364 6.248920801248168 1.3781064666016927 -1.3000006661887418 -1.3119562958887212 0.010333263605208011
Ni 0.13102678581454724 6.659200074830333 10.253574083056911 0.27802958277975987 0.704052120633452 0.7402080017287188
Ni 4.809253714527 0.22538671104955077 1.0920281648444359 -1.0646737644838309 -2.6007348681093987 0.5762266416463303
Ni 3.3641271003590507 4.305806621788691 13.167761205472544 -0.7492266602875614 0.45806105434647565 -0.6246402570630274
Ni 6.036982507636565 1.113912160882831 8.36608621403762 0.6477020239784974 0.5840638783025618 2.492788644544707
Ni 7.367889814311551 7.698579853296465 11.684722246762062 0.3731591141957573 -0.27061169304913396 -0.11250118992522562
Ni 1.7546340612409925 7.9761635798445 1.3178325344259363 -1.2316849125314788 0.47498071291994975 -0.5846074095108577
Ni 5.363391068104812 2.7279750960455367 6.9368156408180255 -0.1569869310424264 -0.4665642067214803 -1.3798100223079013
Ni 1.8075437183152925 2.971031759649689 4.222406018973874 -1.0547814450707835 2.758559207451456 1.205274026638118
Ni 7.454418173845451 8.537005944832082 7.57153861616348 1.3506305725304675 0.32934571655523276 -2.7996899160534943
Ni 9.185069645393119 2.120572232832572 5.941832215134823 -0.5068852749380303 0.6199081416946808 -0.3016554497288159
Ni 1.4857031706463464 5.058856192342645 0.997965095561513 -1.5436175758165867 1.8397760069865736 -1.3689183150960618
Ni 8.414433466700132 7.137156886762228 4.272309658363068 -0.5163662178452719 -0.9174919924572845 1.2643404937829708
Ni 0.21398538229061972 0.6449584187405354 1.4893431677622369 0.5543637801349678 -1.00228851737839 -0.6577828052532672
Ni 6.732112391641042 5.719983427703444 0.7621481586625188 1.8838585991280847 -1.4613587297156703 -0.530346591284764
Ni 2.8232405724025025 3.688683364939775 6.378914678182132 0.23022326192975834 -0.8843383885234513 0.10041777639813028
Ni 0.40685278800278746 0.31433299508904056 12.837570296526932 -0.9748479046689341 0.8003088236753572 -0.7307296299246383
Ni 4.313345077354144 4.124115795849652 3.596510060045807 0.033175458310704155 -0.8517352577764493 0.21655990551005283
P 6.9469255993627 3.474244738861121 1.111983065421361 -0.4411377962285758 -0.5277508055331299 -0.24094656188453348
Ni 7.5023833532321 4.998520454195793 11.596276965670091 0.09251266261844067 0.9379152933086429 -0.3131408246605962
P 8.402259563302506 8.577123638797799 2.8022640003942842 0.19758902083450489 1.2079122355919132 -1.4785172437728278
Ni 6.6944669365191505 4.355363773158106 3.2530664525707187 1.0747218927484523 -0.9764221911345894 -0.08449339185838997
P 2.0517334913895313 6.867467468340499 9.201121405249943 2.068694434061979 1.7258727945074988 1.1283733595253211
P 9.012771454152404 4.575411759340744 7.892366856942207 -0.4822667050584017 -0.7656889196086426 0.038946042245894215
P 2.8800552431051183 1.6178649388391955 3.220487214170455 1.1923748020779463 -1.3923318089239956 -1.1466688154003992
Ni 7.331873789336727 6.123229930938211 9.45566836075324 0.0513852964505115 -0.9391190838087569 -0.30610911462479534
Ni 2.3115526835181077 9.294157184376928 11.765312550800244 1.6161142003244164 -0.04390570024401471 -1.289186349182057
Ni 4.863071732085585 7.9689528832166765 11.74535671376921 0.04164647189619279 -0.34318802175496377 -1.7042001946300713
Ni 8.30659141167931 6.448760107790746 6.699551882322928 -0.1724865693399223 -0.7823568671826268 -0.13037215666837546
Ni 3.3218742910282115 7.648826046564473 13.414604889487466 1.0612441699769917 -0.21539802399146776 0.4537274599681283
Ni 4.993941193610071 2.270339338246604 0.7513274314502438 1.2445689675829985 2.8595107448658683 1.613789408845982
Ni 5.765083057521113 2.0096586083391186 10.678321572600103 -2.2522938254856113 -1.3218645561413687 1.326858152701218
Ni 9.20380809208439 6.652710447865291 1.73755875704466 -1.5798691019494533 0.5424927397289948 -0.7754120604336775
Ni 6.429572163127871 8.198178119652908 9.365194720064402 -1.6486206575925542 0.7236128163741988 2.2897864231144305
Ni 4.051812174208825 1.9552599892338782 5.170529281117289 0.28775452337700763 -0.450283981504218 -1.2647086757556671
Ni 1.7634648234748094 4.936030871601668 8.684392583904824 0.8526030050933833 -0.7823324417025945 -1.229548068694134
Ni 6.637848921179112 4.359737013840177 7.833211987424924 0.29109592904541476 1.092476388518396 1.477363846894675
Ni 5.596184194690657 3.807304006738033 12.770919111879037 1.668125303284385 -0.4427879302374891 -0.362791140697872
Ni 1.2478438273388734 2.6489196402895647 13.149874932019108 0.06769200403033503 0.4604596364856392 -0.2863918387015262
Ni 6.2841876629369855 1.9692037908946982 3.442592590027292 -1.398472631714411 1.5449949157800875 0.06760844317759324
Ni 4.163559242857962 4.340118300287848 8.178163286013104 -0.05318995375941808 0.330409896153689 1.9950372135871446
Ni 2.6317731655810617 0.6876607260429793 0.2982784258698936 -1.0405300773580919 -0.2821369200799141 1.336845345820917
Ni 4.674301313093772 6.7278608899929475 9.446279471871346 -0.6557084392227418 0.34591879042256557 0.3166256978854031
Ni 0.2522872917418755 2.8437676464391157 1.714738306898755 -0.42762202113032804 1.397201478311471 0.6276507617545771
Ni 5.054267567215848 8.841531456053174 7.237332192004867 -1.254189264281582 0.18204387401105424 -0.5366614777591984
Ni 6.052368448622949 6.756544479305971 7.49133132185527 -1.183406280030749 -1.489562960064028 -1.1910766520918132
Ni 4.81345839346972 7.489572661041367 5.304614526046962 1.421708976534532 -1.2130937797928527 -0.49026000767652345
Ni 5.624586847771427 9.010664432410506 3.3613711159206496 -0.1974571232423309 -0.47368564825761 0.3212760521732209
Ni 8.05201636255279 1.7989189759851278 13.430339191401846 -0.10481050614918724 0.5541298097472908 1.6303617113823663
Ni 3.648069350297078 7.853141603740947 2.4802155599134714 0.025817218173420056 0.8606695841516016 1.8010778190854275
P 6.784750477024164 0.9839885180069302 6.415975785940938 0.33992066385760167 0.19544086414325051 -1.0223840025766844
Ni 2.9074184321265526 8.623852698762535 5.099080642076619 -0.4459735270543223 0.05876899050909234 -0.16404178100667877
P 1.1661007482943486 7.167291979941891 5.611847326092864 0.17152343409570459 -0.6948092618789453 0.5574359913023883
Ni 0.20476786451040144 9.154850271343781 6.0382261186913375 -0.7353249626048046 -1.196130926686269 -0.2391591309668075
P 8.606949702121984 6.583094449513017 13.083592710289569 -1.0392753790153844 -1.8182471317758622 0.5462650622872335
P 3.0052216991148692 5.356292745969888 2.388056301831115 -0.104740057922568 0.06567600204157077 0.5355602742752197
P 6.706472278177426 5.896785963201282 5.111717153803355 -1.0046631882581536 0.38497204767028537 0.246060228962015
Ni 2.617670166721965 3.316349211793904 1.4606436587293858 1.6869686612431334 -3.1794027722073697 1.5326993862421863
Ni 3.3748869580543377 1.4615613837547454 7.904825442388517 1.1204975563216701 0.18509808745634573 -1.1217028894836811
Ni 7.704310952434424 0.5581612968777806 4.432792608129334 0.23681942709003728 -0.5357628772043289 0.9406244647096897
Ni 0.21566257159716967 4.090337896191776 10.120022616968518 -1.421662953787945 0.959105811343329 0.0055587250347001035
Ni 5.870686987224985 7.764037995411395 0.10854720496377604 0.6297894053641347 1.142796991149819 0.0588306969849632
Ni 3.1312403283624546 2.2871955121817793 10.012677819078784 0.6711342868595086 0.6948989933792742 0.732438642195945
Ni 8.041921387273835 2.7515269168494068 11.415221992070052 -0.5310868118848983 0.5386139734998788 1.6048393987415457
Ni 4.223267556752783 4.907103804220692 10.776223167269707 1.4374842370909178 -2.4810147918382306 0.22519366992565087
Ni 7.919189711943608 2.5807551458039315 9.23945702704907 0.0785006646100648 0.1386948176014579 -2.11509616125497
Ni 6.989243960481065 0.6988522890818283 1.6936175209579805 0.6535577114283261 0.25422888081573636 -0.3446422377029871
Ni 8.165289851397167 8.472577902235411 0.4783510591111558 -0.1874143942943482 -0.86259765441225 -0.9814728661846194
Ni 8.673194465687223 4.36968215646193 -0.011949154411824231 -0.10550213289957315 -0.29891593931046584 0.028799440730195563
Ni 6.235969640941308 0.4740152765933857 12.614314018571967 -0.3645140369262497 0.11856282273827325 0.7904177898138903
Ni 1.194915441182423 7.7444005527769155 3.564685603656196 0.4647693196045866 0.6146831458503156 -0.39935865540926063
Ni 1.999779017504891 1.1824512370114686 6.018187873698845 0.10695737728886096 1.09021741728089 0.44676722660021123
Ni 1.0864178682863452 5.218755731199933 12.223791117295935 -1.2765720028521563 -0.5800136194925881 0.8979834901107114
Ni 2.739409200698231 6.450230340739536 11.203424166574573 -0.2718800182385963 1.7289174948710935 -0.1889971654004358
Ni 7.423758666365583 0.5156612636625586 10.64161631740215 1.9097192689449303 -0.6104817061744583 -0.6081227190239785
Ni 3.424135079568275 7.027554298019288 7.498841683797498 -0.6194533135454493 -0.3874598470891456 -0.9893201301431801
Ni 0.642315745249143 1.0432847920944466 3.7036226173168783 0.2331671750494307 -0.5273018909211693 0.5888502439476117
Ni 0.8118223667953727 1.9761522803724203 10.795493519894043 0.0040931962327671444 -1.188524832204237 0.09622713535555041
Ni 0.5604331345425991 5.27531755929352 3.322076565115434 1.1385914377089037 -1.1857562683201643 1.0616815146247265
Ni 1.8676266138531172 0.3698956266499157 9.34532129099483 -0.5054266881146328 -0.928588359480762 -0.5196320330807374
Ni 0.8538438719616572 4.838152688284751 6.0090593190588395 -0.08453015863359636 0.5982106021165892 -0.22817640670305864
Ni 7.778122265188342 4.075925867477201 5.903153851132348 0.10147270002520589 -0.10161719602287014 -1.6870187977547784
P 8.818401039597681 3.4502621491677963 3.680610194078934 -0.11739965566810749 -0.5968916261948495 1.3687892457173654
Ni 8.922637746304591 0.5283352335535955 8.443483209569191 1.1232954307817815 0.7963292702023189 0.6424063227971969
P 0.10030734527179785 8.979143387151728 10.505420304914148 -0.08753243579502991 0.05096055020826707 0.48659155768600065
Ni 0.6821599946154672 7.535533828637944 7.800934287247279 -0.10513523647845764 0.856593357199699 -0.2098989485501095
P 5.041119751546411 5.898171915280396 12.947081112767336 -0.8298438570199965 0.3180279775495684 -0.9829965019179974
P 2.1135769206494746 3.7678231015654227 11.154863402375549 1.1582662904300116 -0.30785617922288916 0.3829617021084759
P 6.164134246354236 3.7629722692885226 9.895972225930382 0.08601548492987122 3.3771352605982745 -0.5728957775008843
Ni 1.1005676898508172 7.467153949707584 12.775085396203346 -0.22239888078933312 0.44089842652426 -0.23089123453106042
