# total energy = -381169.50630612834 ev
CRYSTAL
PRIMVEC
9.27069890071335 0.00000000000000 0.00000000000000

0.00000000000000 9.27069890071335 0.00000000000000

0.00000000000000 0.00000000000000 13.56860493779783

PRIMCOORD
 96 1
Ni 0.6205045650149769 7.937229387180945 3.4184877122480506 -0.2647783741968085 -0.9047521762931128 0.15832493312755958
Ni 6.533784633345067 3.6718086327757775 11.163664373829105 -0.2579778063352073 0.5826821674636868 0.910143265401697
Ni 6.987835653648397 4.280226060557533 1.0691785799530156 -2.003905205500736 -0.4249197917078166 -0.5370875095530233
Ni 1.2174652630890967 5.394721670901278 1.990813059752295 0.523738084829311 0.3439254141416206 -0.15560624864481587
Ni 8.965933949851557 7.265103716519379 8.63089459967996 -0.6089932945543899 -0.33418067605003093 -1.1600709477389184
Ni 0.9838251092682307 5.248698892437964 11.7572366314532 -0.58772332943202 -0.7155215547256323 0.7921874801198034
Ni 8.683483566292303 5.568491651189285 0.16539297675683595 1.456481861239343 1.3380776755661214 0.6170544742959695
Ni 7.985835661543408 7.469114716637702 12.69290045990644 -1.502655274471612 1.1972529561058542 -0.18589512943634437
Ni 3.2830326034673165 6.785372860247323 6.4437309183151035 -0.7912906793371469 -0.3531392194304047 0.19007985694165327
Ni 5.2113194344502745 2.8172726904461154 1.8302825645714866 0.7686413173687472 -1.5868244502213638 -1.529454139832011
Ni 2.180774315679065 7.890134236740107 1.3475062837089158 0.3049320635975587 -0.3923138327473373 -0.7286670909686547
Ni -0.005617116466949559 7.514207396114913 10.821627500123505 0.06313163835316224 0.49799491442693594 -0.5066289359528501
Ni 8.85830113555665 4.5458037721084565 9.234113946585303 -0.4604321256818135 0.20844344705050555 -1.6980516585301721
Ni 1.1066989525640707 0.6279313219083145 0.17266491297844883 -0.3392856013767641 0.2193788630160867 0.365648407641009
Ni 6.4978514043866635 1.684235682291017 12.724312369008546 -0.6662119098572268 0.567422670201455 0.5461311078125304
Ni 6.560159771731717 2.0219023485324823 8.636063941389766 0.393023200109536 1.0144387795876786 0.6796256121599715
Ni 5.542821085919465 5.860073673170629 6.203240645072833 -0.36676709462648444 0.41696299875458515 -0.39035156681464384
Ni 1.8828047821517078 2.754574953747023 8.760311702263428 0.13757767327787918 1.1269057738408592 -1.1911031344543745
Ni 8.844293109510172 3.381756276113869 3.443494495476223 -1.0528726580838448 -0.7133170908751457 -0.09374216415016759
Ni 4.4767834187556925 8.269166761498703 10.558328526363598 -0.5099731698347346 0.3134388155169892 -1.260041609297301
Ni 6.462289003384487 1.2190783646986847 6.50552198066122 -0.22014967974384017 0.4020452011024882 -0.730375074798697
Ni 0.4043739802172624 3.4508786071545945 0.8851236862990525 0.19619676847266854 -0.3392825160529705 0.9561354158610953
Ni 8.078116198450516 1.2001754096300097 4.942716693846429 2.509913991371084 1.7755097408083356 -0.805243027752181
Ni 2.1870783909349254 7.252356505524073 8.7800406766046 0.09080082213365652 -1.1150835843949507 -1.063347846583556
P 0.7566772258910102 9.038050716638818 5.234740928165577 0.3102426771771947 0.8937401414533253 0.11928530272659456
Ni 9.068328819264757 7.5398594199869216 1.1290459722762047 -0.19586741015770784 1.8375910835201126 2.0438020416956735
P 5.227070351891019 0.4072228659909769 4.664316678639066 -0.03306541509540112 1.5124866587397372 -0.5834056758932726
Ni 2.0147639103751107 0.45569007986985505 2.556772540685832 -0.3170512154585959 2.001900259255565 0.4653982114378372
P 3.5742623388902466 8.756833336034019 8.100796036253362 0.1556602418112029 0.2835325148758601 0.23285992822165705
P 7.030258371840775 7.498901472221641 7.180831209326995 -0.010603486547459157 0.0658336106653576 0.7018350583774752
P 8.124321361796408 3.932741724174956 12.806850328435676 -0.825065718905063 -2.743603614582888 -2.3238185729984755
Ni 7.791271503609971 2.236009139759087 1.4733337716761041 -1.062962181109363 -0.5328189640846566 -2.153830858821007
Ni 3.4922722777684414 8.656005214735877 12.664881626603814 -1.5564499516945647 -1.2186149667213981 0.09336832575051661
Ni 5.7795298410781095 3.6967190007353317 7.038144028329944 0.6072747692013865 -1.2516610985430896 -0.37474805594943206
Ni 4.676437190388347 3.3465925151646365 12.549670943023404 0.03040020955841216 0.2156170819808093 0.7773378167014806
Ni 8.071626709216542 5.570012045809815 11.179485748581532 -1.692266419306963 -0.1096734906684434 0.1694254139160953
Ni 6.955314041887284 3.8625903455557 4.810952250300045 1.108972072180574 -0.7985193358751022 2.2385574497361254
Ni 6.615496573499701 1.9935710926767338 3.3957874789076103 -1.0485066678056651 -0.6922548708882078 0.8780690105749716
Ni 1.3533551676485072 5.497682052947725 7.396952523425805 -0.5749382618522099 -0.6395868510705308 1.310550673790446
Ni 1.2415134560504226 7.65304538292633 12.783036684156665 0.055410358449504565 -0.29962350690045175 -0.8915086810196452
Ni 3.4173928427072897 1.3554503456011902 9.877320599080502 0.4339525913340461 -1.0158444016859538 -0.24188398609713824
Ni 4.2598490643628555 0.5712938410838634 2.7294467243631866 1.253337457804248 1.5876204637600981 0.6122634806652294
Ni 5.474968840628816 4.567265440075097 3.3920968136732603 -1.235956029103007 1.4230351515451236 -0.3446877462289419
Ni 0.20150883848368098 4.314991181453822 5.522775053675719 -0.6289805363095942 -0.5653588456938908 0.31729727003113095
Ni 4.597756768775869 2.709417379377472 5.112826602206474 1.135073397253316 -0.506466699343373 -0.373104349698422
Ni 7.470115952119515 0.13057037752733283 11.2828373541218 0.7198029557098055 0.049582438913817826 -0.7693560840475846
Ni 5.742252360778384 8.474077019410876 12.405381785255452 0.6515928743924713 -0.8650420021876843 1.212688059714002
Ni 4.566217851098756 4.8480378271324245 1.1061436376996208 -0.9158562566260743 0.8857131573837908 -0.865644925879006
Ni 0.858913566352923 1.7928604613688317 6.277894802150576 0.1673101673453054 1.2390997169383111 0.052490356589232186
Ni 4.991242313128414 8.526882920377611 6.399836013136505 -0.5980969593568602 -0.8563043652043704 -0.513192962323613
Ni 3.2819757437920694 6.323858927324922 2.5153343707172375 0.8868357010240082 -2.7313890747945666 -1.3888605625459436
Ni 6.505221610016677 5.015893101518608 9.006188251569895 -0.5487207229165776 -0.48430379009308844 -0.2892699315802696
Ni 0.5602997192516213 2.6096832005502013 12.287946133937682 0.5870800394210663 -0.42405847214878584 -1.0532218138931475
Ni 8.208045043613575 5.347441106482326 2.6017799297331115 0.05823162994838359 1.3547479371329505 0.11546927141461404
Ni 5.71961331405072 5.678952028650422 12.687554974917427 0.910794782942767 0.6053220163503897 0.8515082293673076
Ni 6.450172199914768 6.591652335914301 1.3541070213297575 0.3064089052534013 0.2152941514237518 -0.4126121779850571
P 2.5648593713412535 6.081745354704267 13.562187011264925 0.026520929108664004 0.3815100572636139 0.550799202712161
Ni 3.0842039240372667 1.6067233687406532 12.304716828258051 -0.9459170805671967 0.7242185682789979 -0.03655517341621446
P 4.107679812525077 0.998936348484484 0.5471223478270923 -0.050762575264848064 1.3176515465012855 -0.1804934988047988
Ni 3.2148280716182525 8.04051424368909 3.8152884585292655 -2.039714244779545 2.2846987241788783 1.959114788658923
P 1.3909107689154037 2.5532988098058746 3.3476864576355063 1.4304646112399753 -1.58165781841876 -0.13293400385828072
P 1.5912598429659843 4.78551623371254 9.550127041392779 1.0738682864989053 1.470737599827409 -0.15470481987646906
P 5.145061749371402 5.423711146379329 10.741422975610933 -0.876864191633593 0.09413682848542497 -1.7047977190047545
Ni 8.078079115654893 3.01780717847481 6.945822700347652 0.40691487048996366 -0.28931852543001785 0.5096486966157803
Ni 9.044577288668412 0.9110927680736343 2.622852228345715 0.06048597320019906 -0.9711018073629405 0.9379536027457459
Ni 5.414477530269275 7.654102242601576 3.3739290250278056 1.3885245193627636 -0.10065097545485892 0.2440015466607733
Ni 7.889689243192635 5.524529996978565 6.906230326531178 -0.15533679703351314 -0.9894052336578186 1.0600601769712195
Ni 8.283489991307972 2.6864445874892047 10.36169236722474 1.4580803160747144 -2.07518621243391 -0.43670135772377694
Ni 4.01094006944434 4.690890209982297 7.940524193572023 -1.3078618141043734 0.797679099361994 0.25366735188531153
Ni 8.314148192589046 0.38768672218704425 9.116378851692879 0.8872892436216591 0.1507628045095855 0.9485637741614245
Ni 5.796254181903951 8.991864094690735 8.512060926967214 1.1482814113031579 2.0558625724046333 0.9857049019880959
Ni 4.749805501527873 8.316910860862937 1.0932907407367904 -1.2740014139115028 -1.7302431556610525 -0.7437566383119255
Ni 4.741767805576652 3.2519386793376763 9.655948361121517 -0.0008168394743405287 0.8732497348094574 -0.2879087895666848
Ni 7.0919734144558655 8.505143131443798 5.185989103830295 0.018341735731981317 -1.3222779895297032 -0.7748083654114075
Ni 1.956970373397122 8.810241832429622 10.386034441341376 0.4386075736075543 -0.16098911022328402 2.111481190210202
Ni 2.8309747834287053 3.894379572103266 11.016703400636535 0.7733793462743648 -1.0401459545457958 -0.41810328300661537
Ni 4.942988325324366 6.916636686052801 8.387039989804821 -1.1317888129647735 -1.2749964308349202 -0.12366337718963219
Ni 2.474015792764527 3.9920278436767593 13.345455685178122 -0.033425112427665014 -0.023430977329430613 0.3781622238373035
Ni 6.784918596000945 9.121079096038057 1.606196793042811 1.4409865938172215 0.6205791996197764 0.17935861386940724
Ni 1.7338153800385763 5.702462521075219 4.697355595399117 0.23196209899773598 2.17747883725725 -0.7600157804832652
Ni 0.23970319090517872 7.160140863509307 6.277406236318247 0.30658399737868486 0.4682577923738193 -1.464198770267627
Ni 2.57363872320493 4.092624197502258 6.138219671227978 0.6508791361548985 -1.5724815512361305 1.933018348682187
Ni 6.726522463594087 7.268441168125423 9.851010355586192 1.1100362517790303 0.17606091695474194 1.4338011318123758
Ni 7.39299300792319 6.142329372052864 4.69443903352339 0.3565883543212698 0.448522261618105 -0.47207382368579986
Ni 4.319524553218697 1.5942913615081409 7.155376651341679 -1.8469198171202064 -0.07155457230953483 1.252135981296979
Ni 1.5362104328640758 0.3671864256969212 8.090036463103434 -0.11829954177455757 -0.15200850399122853 -0.04300015771060982
Ni 2.98090052613131 2.938208957670669 1.8868366091057867 -1.1933263673579384 -0.7881652463342878 -0.9227000190207851
Ni 2.719095989034998 6.391785338206815 10.911166691364201 1.5559714693962494 0.6122022884099908 0.18333713890118106
P 5.586347017281618 1.3358520881145892 10.443782551894726 0.421859407614938 -0.5882995136504642 1.0965004220761243
Ni 8.622167163730158 0.03239460318610636 6.920110416932758 -0.4989783613861277 -0.42284722544950404 0.15196479523748666
P 4.069994421473501 6.228871346337358 4.4672049326463465 0.5968021518048368 -1.7442237862108607 1.3849979942667439
Ni 2.936299193696099 3.8657053003880075 4.054163776022167 0.6303133961884048 0.1760848282141419 -2.2887191581921806
P 7.62722648647402 7.515254985091255 2.950316490441483 0.6936226977700118 0.20614308105210302 0.4500196720992379
P 0.9682874179023165 1.3521870595863918 10.083264539920657 -1.385338408325298 0.8977649463420022 0.6058699184340598
P 8.194129724556156 0.4788853685318584 13.496298300002499 0.3036362276042706 -0.6726188418248351 0.004408413480340795
Ni 2.6508080208957834 1.0350920742166234 4.94464407214892 0.5039367338326676 0.07686518588917084 -0.46215964989588143
