# total energy = -340889.3163870559 ev
CRYSTAL
PRIMVEC
9.04302020937405 0.00000000000000 0.00000000000000

0.00000000000000 9.04302020937405 0.00000000000000

0.00000000000000 0.00000000000000 13.23537415891260

PRIMCOORD
 96 1
Ni 6.457638962094824 1.9597852976007153 11.28404364418982 1.4671007744057702 -0.2853736818496569 -0.25361387293955673
Ni 4.723612669074262 0.6331769160983222 5.88463249521242 0.5198989135888789 0.1480747161544611 -0.3238839221097132
Ni 2.650527368734322 1.783003291570776 4.878704990646542 1.2543399309268333 0.22557110786972762 -2.807462103799746
Ni 3.6864324859652617 4.73932943854994 5.058162826416327 0.2672157799937075 -1.0801016690031269 -0.1807575510994629
Ni 3.6403582969672286 2.717337203536572 2.446307934472993 -0.2996219642385549 0.5720316297283761 1.0929139902764469
Ni 5.034059559810761 4.562321357009707 2.6046819681527076 0.9343625429603779 -0.2789924609136615 -0.48191934902131195
Ni 5.080839104400913 4.944886335530173 11.317026252537714 -0.36899958350142903 -0.6502407312399512 -0.7105492983220214
Ni 5.75408293103772 8.055848131550821 12.152018968071914 -0.7280207156339075 -0.4272723511003932 0.02642708384327707
Ni 1.7537310344978354 6.241456516130747 0.5543389598463596 0.8422304036098076 0.4114436115982527 -2.275482347786933
Ni 3.195884800707699 1.5963643932919935 0.5287743411422501 -0.9785384661466437 -0.15345012153376156 -2.9237063057071713
Ni 8.059935576776946 8.787726902537626 6.568861783045462 0.9137950032216714 -0.49798848666903267 -0.3910005132525524
Ni 8.476755516617246 2.4100644129646094 1.3064505847024885 0.27379883252786397 0.07849680795532286 -2.571427891615165
Ni 6.718403498688988 0.7927844177622037 4.34215546055424 0.6429382840412668 0.021187175600576414 0.43753362381708516
Ni 0.8029551028193357 7.566919146946967 2.1414170754774937 0.5354674574510971 0.017560120370950404 1.077006575017571
Ni 8.014042248187149 3.746170678805498 3.4440695916070334 -1.7899637114501366 1.359455627021265 1.0441023680903825
Ni 7.5307470652998365 4.144461469822054 12.510406527219436 -0.1437202958405073 -1.7583550834059203 1.222887883065139
Ni 8.31262469614339 7.096871988962916 8.97301477356689 0.011812933474528043 0.46351847791662104 0.3481078276540843
Ni 6.569392608343634 0.9438562124594037 0.3591851535478427 2.3828901823496507 -0.07248711142613322 -1.0660619030806093
Ni 1.9049303357828418 6.600690501988814 9.084734960640175 0.1708732021062154 0.3304692886367147 0.8248474322466697
Ni 0.20459019809821216 4.672863238523338 1.4601529940374762 -0.10492929111523865 0.14684161507830842 -0.9795856764642354
Ni 6.782129663530821 1.807509876886707 6.607800124636557 -0.497443155688524 0.9358566110074011 0.5416453041270349
Ni 3.5727707624095655 4.441153926512231 0.4377138385017222 -0.1610446460515678 0.3368926756645553 -0.7381254081680771
Ni 6.426802262490645 5.863340703652879 4.576659970174629 -1.1852811284559588 -1.1364823617857007 0.0381680264292891
Ni 5.325769312254047 3.073885412332339 9.321793219224851 0.030150555441451298 0.37557826516021126 -0.6418854172967203
P 0.1362213465769705 5.504793987346107 12.291348400764413 1.5326641621288766 1.1861830714449377 0.3019012471910349
P 3.8561699790944224 6.465642035159251 12.36602204611675 0.8733659486723474 -0.7216505504415056 1.5385805276133115
P 2.5374715275462156 8.5403460361529 1.2768627262171768 -0.7076938311510973 0.08126820005287294 -0.4934260641093308
P 6.27287196904128 7.930837417378338 5.414896417130535 1.3400134591362534 -0.27235412966153744 1.128006977324838
P 4.700498708901746 0.9803267137801233 12.325005618435029 0.9465032920879699 0.45724730019592863 0.15392628983923165
P 4.238011515981945 6.183789174964809 8.137783322293819 0.24897251751280344 0.538790094066427 -0.563205546796314
P 4.693481325062202 1.193868597783959 3.5080489610203958 -0.14599315103508406 -0.142164007096981 1.3147135469188842
P 0.53380135618916 5.757618752018728 3.3264072358211645 -0.433900397939872 -0.9434699045782848 -0.018347135048620015
Ni 0.6920596392076037 9.017600481405141 4.485600371836143 0.6613280994023643 1.0089384185947399 0.14830688676992523
Ni 2.1074849499863615 6.665004463157413 4.521759793254697 0.14699228172355974 0.14922811303261396 0.7131412274189137
Ni 6.323576184490146 5.5066658925713465 9.078963705013377 -0.33582129697724744 1.1896962268045186 0.1519131160639448
Ni 9.012843852668544 2.3576691526987403 9.915598633054355 -0.8964559977225917 -0.0766633542910099 0.12039293396847651
Ni 2.5454384285289957 5.491772037953141 6.922113810901133 -0.5304118973050607 0.23027828353740984 -0.04066019672352352
Ni 0.7309021247823337 0.0467804488921929 8.875959652695391 -1.0299502449597167 -0.22703817933355738 -0.39927278056367366
Ni 1.6357377041648953 1.158166753198241 11.391739687179863 0.28545981380556 -0.36836066436584947 -0.4969836995536021
Ni 3.9785672603679005 6.886088226184674 1.6283748769456219 0.2038763965051134 -0.44033844025573193 -0.9644323657625649
Ni 5.985231575783296 8.42062548892131 7.751561346318828 -1.1717972350369108 -0.9587250309651423 0.0021178176739511914
Ni 5.287273174361087 2.9796300105803284 4.850738545721062 0.30300733577102007 -0.07174431972283773 -0.1040854550577046
Ni 1.288612322638206 7.482303604953917 6.87294510031819 -0.972536740037254 1.4841212202231664 -1.213662250701813
Ni 5.440009789116098 4.685957532079599 7.028712031213187 -0.7240221359974757 -0.057958578792655015 -0.1616064320923088
Ni 1.1117127573429135 7.415511856192491 11.464851602907085 -1.054466484933526 0.48064382474299805 -0.1493165589813622
Ni 4.636944361447737 0.3879338197389409 10.222658912646642 0.821574932142985 -0.4881216211772819 -0.3663726874015432
Ni 8.469240766655053 7.0722388013612205 4.612779602303372 -0.5138647915796569 1.3215740214841432 -0.17127198020653084
Ni 7.38755988009967 6.255663101197658 6.832801324106204 0.16042012509369147 0.4479918430359317 0.12844562906962398
Ni 2.5432681036301683 5.0202146955603215 2.5404900877596686 -0.25726869608332464 0.10279681815326812 0.5967232189377852
Ni 2.396400409122406 5.42216790984365 11.273177550863021 -0.7162797730478955 -1.5289576598115668 0.5482730938561977
Ni 1.1831164465143496 3.202929313608478 3.4365783534979126 1.0542291721117392 0.5622655514805478 0.5726116706015623
Ni 1.5086199662364663 1.2625141657298014 2.185451159070628 -0.262907896646973 -0.8846240380846699 1.1965790699672811
Ni 1.3235093384072751 3.6243340647975497 8.107924173196153 -0.49924729877679835 -0.2361838503885674 0.22572974493477896
Ni 3.4974966605018865 3.3649711963672115 7.140233271837414 1.4894336335750156 -1.5673144052128944 -0.19798805604513642
Ni 4.214662437278722 7.15462071731256 6.071741630552616 0.5259991129493458 -0.5366661057448887 -0.5550844603510763
Ni 0.6239901116619921 0.23113327161087663 0.22288061118308378 0.05952438061787813 -1.2673448278269337 0.009808244339673432
P 0.510902619902444 5.695104351912073 7.756842470239309 -2.078060962878544 -1.0070275747252722 0.24431444991550183
P 8.806635858218664 1.5247979297531455 7.677430282191199 -0.31224608076046867 1.3915414518122164 -0.07647566376023604
P 2.0403766955105223 3.0965020063822077 10.352710206396653 -0.47273973940457303 1.5325808583864509 -0.36564635075847995
P 4.292947864983525 6.134052562700004 3.7182268414310484 -0.830660182273705 1.863045004816843 -0.568584294609724
P 6.944551353146849 3.956502290563151 10.432863017816487 1.1479093726757197 -0.1160084317475357 -0.8691457399434127
P 6.465904282751192 7.915889304637661 9.935504129584771 -0.6716117407165594 -0.329246214862891 -0.43884051555396675
P 2.7861726749110622 8.830174840350535 5.763198295612797 -2.5407975683238178 -0.9503612323814794 -0.5354042083133296
P 6.883899815245023 4.153567791376719 1.5266074381375432 0.0757999778494501 0.30403783391806344 -1.326922173169934
Ni 5.315939549066439 2.873808585721648 0.003153301217588615 0.5942778427210862 1.8738840044138758 1.4411246620569826
Ni 2.015300399908649 1.5386427940035847 6.984664383089434 -2.068344249811412 -1.1929224470513005 0.7453162694895616
Ni 6.94481360073879 1.1329457692697793 8.976786617380643 0.46603995878689414 -0.03291012046445945 0.6013524901796804
Ni 2.966689448371068 1.6236381428539302 9.116962476783685 -0.5340230116950868 0.5891029833883661 0.5189018397829321
Ni 6.2579509853618385 2.2802337689126455 2.387965983984336 -0.33989958081167915 -0.21189515304453183 0.270923824972914
Ni 4.099960766375671 6.971282521484079 10.122719068263784 0.7587543972723384 0.6766611302150088 0.427825909611018
Ni 8.144089924728997 7.2649455663363085 0.2146912518981734 1.1460046994538393 -0.014891572399851774 -0.9549581077235425
Ni 7.940829954933357 3.840326607332979 7.964756882640893 -0.5288764344971407 -0.15539516107527432 0.0377983017946962
Ni 3.10863773977482 8.546793709706503 12.379297200081247 0.21410295932912804 -0.894139433774273 -0.22545926488221169
Ni 0.18210653644839692 4.928907318462552 10.0207933765985 -0.4708600058833568 -0.21864172773974605 0.2737954900937543
Ni -0.06955167859110281 2.385811032220208 5.531989062630462 -0.061710846746235656 -0.003358374949271635 -0.0036414534073292127
Ni 4.024415373855638 2.799257925446912 11.325417271177807 -1.5771864129109676 -0.20250754118204478 -0.4168560408630757
Ni 0.877931689355467 3.324919658963426 12.145097440248735 -0.23889070779676924 1.0891570943371758 1.2261292728205724
Ni 3.236379446111662 8.507076764057953 7.967325100437839 1.3236910678271459 -0.21168843635036447 -0.06166919487502283
Ni 5.502488017141103 7.903834958428754 3.273729833318448 0.7614054617419403 0.03243600904151833 0.6857322392783416
Ni 3.0595250959184286 8.546151655257265 3.3917900820024354 0.4163217656261604 0.6240841274492412 0.6707892448152641
Ni 3.377513865678354 4.495556737309515 9.27270318291949 0.4017189281113211 0.12922441621717745 0.08528657718364666
Ni 7.270317120460907 6.156632984668225 11.347507561439711 0.22460360175013577 1.1840781092867931 -1.18415601371258
Ni 7.953083247591323 8.650191605094824 2.5460759614680266 -0.4692821198732757 1.0907293239203022 0.1354670546927796
Ni 4.686879920161601 0.2736635009095317 1.5111357345150245 -0.11469151270832506 -0.7146877459704272 0.4729289725972435
Ni 5.8753227056984905 5.762972220102503 0.10491531421342011 -0.2570758633462282 0.6277188959883512 1.5395547186011227
Ni 7.944718453710423 8.775247534369367 11.20870804974334 1.0673127447685749 0.23163299779309143 -0.05435389216053219
Ni 0.07575609489562692 5.0720492885606605 5.533246946769741 0.36605747015396956 -1.5609992616281438 0.33169339085180294
Ni 7.320677701134126 6.175786101900382 2.204894557258002 -0.0040978242184574595 0.03244500790258283 1.1162367241627873
P 8.522775447492807 1.6254105748546397 3.196157899924135 0.10899857608860583 -1.1839986621991094 2.6184628815167805
P 1.845662380004018 3.105129047855048 1.007038891774488 -0.9031015280635672 1.807301688507952 0.9387403603130994
P 4.76164761292622 1.5839302402257924 7.914290498628858 1.230659299480442 -1.1212133514417724 -0.6373512768717926
P 8.591213025969179 1.5643701870751066 12.229075449302755 -1.406528926359984 0.5716773317127509 -0.3184326691871548
P 6.445792605355388 8.04154207325938 1.1702428026561358 -0.9912631128021637 -1.8459883064448726 0.26830952727851853
P 1.8415658917574804 3.6415429326411726 5.692839075298923 -0.1221669951497638 -0.4384283677172126 -0.004247462422444298
P 7.046565666412169 3.9738829757945973 5.909846244724553 1.1881864750282118 -0.2566678292745322 -1.510691257402211
P 2.4038337719008913 8.632385897904024 9.989783051002414 1.1122119192741102 -0.5219375412854624 1.6385172506099652
