# total energy = -340865.0813836773 ev
CRYSTAL
PRIMVEC
9.29945335804175 0.00000000000000 0.00000000000000
0.00000000000000 9.29945335804175 0.00000000000000
0.00000000000000 0.00000000000000 13.61068999264408
PRIMCOORD
 96 1
Ni 5.335207972776137 2.1495686388069344 12.559182345473303 1.8042595592475184 0.26723763437057846 -0.46486162220807686
Ni 5.5905523624986575 3.4390215390376535 6.8318991906179845 2.1582385009703993 1.0535360026994565 -0.40570799466605617
Ni 1.629970983065214 6.275698886542524 2.568323952509466 -1.0314437987861074 -0.17173580721682682 -0.6530149515509787
Ni 5.221773240973554 0.9510271943970096 7.095892071943752 1.1092574646314768 -1.8664290907977275 -0.6789725519570049
Ni 4.568430847341626 1.071985183949083 10.419690594302153 -2.2684112998727644 -0.5737776658852054 0.8697666613568633
Ni 3.2732122860420763 7.811131626985583 2.0071410013361346 1.0590425343399825 -0.9968532052954316 -0.40391542154200766
Ni 6.282989657958594 9.030196964909878 11.062918902484949 0.605856291587305 -2.6342638531047795 -0.17319130871643076
Ni 6.479542903685712 5.6810732412793055 1.709217204620296 -1.4591882044269127 -2.3248567844550028 -0.972384530730106
Ni 3.45908975933852 0.1485011104450797 3.776068135941512 1.41585817418071 1.5362665347681541 0.45700921604319356
Ni 0.430296865238864 1.5345957896427442 4.122555537872914 -0.5186411299223778 1.4432818176093016 -0.6952034119935705
Ni 7.273418636143728 3.1284941932144172 10.99829514135669 1.762197597080462 -0.5057046243663678 1.024934279802364
Ni 4.480876494175426 5.336044923576451 5.136265697486788 0.09199689932428672 0.05008740357469438 -0.2422079450954603
Ni 0.4161161288455407 8.401786405673977 0.8736678319239694 -0.16579604469362413 0.2155314642455385 1.0088497155356753
Ni 8.919375379494944 7.158756376500685 3.757666377678604 -0.3409935852068063 0.7193897794317868 1.4382928490351423
Ni 0.2557433362706711 4.212401276341309 1.8675496971330663 0.5589735109928373 1.1463350862100645 1.865734121613232
Ni 3.0783887386356077 2.0739919815385632 12.35675091529198 -1.3563227378192382 -0.7725645636825533 1.0626616191498086
Ni 6.066182202863873 1.0420967409245299 3.3595400413131498 -0.08508731668864701 -0.4151873949114011 0.050233442234255424
Ni 6.958780931945615 7.810778247758784 1.688528710781863 0.5695237757048579 2.922187297959484 -0.7487134680965686
Ni 0.6885101363157956 1.491260337093143 12.937110269191177 -0.1962934419515329 -0.7366187417155637 -1.255199450713651
Ni 2.451159209973483 4.226229563453166 3.3856863843149654 -0.42469610573278466 -0.06264955651042113 0.7546388324420681
Ni 1.3341925702341806 3.2625737114247495 5.818800935033674 0.25625413877588127 -0.4879701832010822 0.15483620324801076
Ni 6.333039315817382 6.774502964623106 9.487549659686898 -0.6510349450064723 0.8898577756797836 0.8990679814241419
Ni 7.750396897242783 5.553112763364603 10.835742556919667 -0.05571400573285244 -0.9815361153223869 1.2979427552184486
Ni 1.3277108512584144 8.643228112657946 3.009949411803249 -0.6152169068665985 0.9883436251625236 0.7236305569860119
P 1.2220039651787324 9.212150068898183 5.134115663875314 1.044683180294517 -1.620303555815416 1.6865233461755986
P 5.543320439000928 2.900220512155391 9.843264909164432 -2.1829064360307244 2.481913906613732 0.5754483687194089
P 7.985738162837796 1.467918709217714 7.4273534171735145 0.4256361010485508 -0.5850465539308054 0.6669351611764965
P 6.070153069438697 6.732078858500513 12.171876853010577 4.7464258714320895 0.42268267484718175 0.12145377113282309
P 0.22152971749916087 4.452513161498112 7.472078208051637 1.9558813693232897 -0.3026026441334337 1.2342578154649777
P 6.7026088908761166 4.981884542696835 8.402382500632868 -0.1249062484577978 -0.4215871277901578 -0.6405541000798065
P 2.942095950531111 5.454389766740877 10.291137741209894 -1.609562515248828 0.40731107748711787 -0.24545987637385472
P 3.618407993904994 3.9249179758867228 6.618402340911174 -3.262850753520381 0.05058285515387417 -0.47971514228114154
Ni 1.0332808591612204 0.8667899562360541 7.249339561618689 -2.149486980030014 -1.2325405756635548 0.6095208849230858
Ni 8.57715549669981 7.637771217880504 10.178781745994383 -0.6441032508836455 2.318684851316336 3.1781529589606685
Ni 2.5269683535752745 7.957718909933944 10.650773640214233 -0.9217890771707415 -0.042689825559042605 -0.6526256865323599
Ni 0.599755223723811 4.508979442159309 9.815076406209851 0.6985934115117258 -1.7625711783697966 -0.05846097235037029
Ni 2.5152324434642024 6.8839668298508645 13.38578657400494 -1.7426505281864697 0.7803262099058432 0.04428030997461407
Ni 2.991885223696468 1.2344280348367298 6.262033339864061 0.5426778591566073 -0.21836147749516585 -0.732894498786441
Ni 5.666268511567081 6.593786687928599 7.212154767506064 0.16219212939244973 0.15365889511045794 -1.3079857412767473
Ni 5.124519557977045 3.8127572691912848 2.4277255175100194 -0.9375509679906885 0.467177414825447 -1.512678463035569
Ni 1.6072152207500052 0.691861659298387 9.82407362731323 -0.6892911602741935 -0.2415607984297646 -0.0835585387489464
Ni 2.9435001679849715 7.364860160804722 4.5432349084708346 -0.6183346265599737 -1.4304594690336525 -1.6748443671757736
Ni 7.084611835046186 5.275217199300283 3.991144032824917 0.946087801817106 -0.6063160048325429 0.6900655765463728
Ni 4.225904082586378 6.66090084266046 11.493969023444096 -1.9492507513806496 0.5437890899429151 -0.9548802032977555
Ni 4.381530434178132 1.9550705722672546 1.0440710148679377 -0.3520117906941808 0.8152510468074863 0.5724507195436657
Ni 6.827026277069489 1.2828967856282578 0.9779202835017717 -0.21106417250280424 -0.9537424901488865 -0.2123723497912665
Ni 4.0874166234943905 2.444742587171074 8.298655468168596 -0.4042136695087168 0.29680866315947596 0.8674020177794287
Ni 7.57737126845783 3.0553074954536097 2.2529367123724047 -0.41998275941751534 0.4269324512624712 1.015189284600458
Ni 3.841120601868599 7.1238648275809195 8.917274632986155 0.7771483263984938 0.8274298482618654 -0.17536543354961412
Ni 8.141717893656349 4.096018617830953 5.980510059053046 -1.028441264514358 -0.1505627726836375 -0.6792867407633141
Ni 2.9319781453006457 4.635368312460088 12.592324667220412 0.025768110103039494 0.08430827243077739 -1.6625231266062594
Ni 7.998943386576086 9.142264677071948 5.091241464211219 0.30085223710123027 -0.9456453149630488 -0.39811758391330787
Ni 6.657432146565824 1.2836779397085512 9.480961926943094 2.8956643119682903 -0.5947920633533434 -2.408519452881981
Ni 1.8391063891570556 2.8735217816253686 8.463671477794541 -0.7765312616397853 0.1707896412534736 -0.6733708894995114
Ni 0.11105872147502407 7.29473298319173 6.399487629690327 0.932840964109529 0.7250482632691448 -0.4198853146077027
Ni 5.300958086136613 8.79584144136857 13.167076450757504 -0.8362366479202179 0.7200091581833407 -0.53100633635595
P 0.6969391608202932 8.159275261556273 8.819345809677392 0.9826494029912238 1.0809748156366996 -1.1666920525998616
P 4.848409488953395 -0.11146231774984225 1.5638546596763943 0.3694896357639701 0.3871919381397396 1.4697376978079848
P 6.084892702977563 3.9161299924834236 0.1333067336380425 -0.5644209072606537 -0.2085817724005827 0.5485019220375521
P 7.4341596870707365 6.919016469477355 5.590768109816072 -0.6299339013617989 -0.44643401163050855 0.135845778188437
P 4.327965582958024 5.9158844380341185 2.994828500677573 -0.9723007127670481 0.23188008080689096 -0.7808221757056553
P 5.616358345508345 9.0624009718153 5.218325003676259 -0.5179068228595145 1.1641183783354143 -0.25600114222481074
P 3.1686306338161505 9.204803500762091 12.272704315924429 -0.3615343854726354 -0.30256073515190474 0.14296079196666345
P 7.829274860445726 1.7917256744059358 12.742831669750245 -0.0916138049532551 0.3557578880001744 -0.28091770296083235
Ni 7.694423487608438 8.371525984515952 7.8048730948899 1.0138227432702347 0.6599625865134053 -0.5831529364525183
Ni 0.8177158110322986 8.23539128711818 12.248259772883252 -0.1831977851098393 1.2113616275930945 -0.7921900512229648
Ni 8.788476274325806 2.4157933889335403 9.240515261466165 0.5972713781317713 -0.14344441647130135 -0.964590231496668
Ni 7.678781807095899 8.840609009732042 13.018856183803194 0.1567411335802075 1.4834753591090515 -0.27173423668935137
Ni 0.7804966089423268 5.939291162082905 11.473471168399069 0.6197708447858682 1.247557360787361 0.5995686588063803
Ni 1.951592576719282 5.517849236311365 5.894885342454235 0.6153812003586048 0.330285968981315 0.07749047817799558
Ni 3.3606178479548876 0.18836321717337703 8.50006674831887 0.6987672180854289 -0.7970684623611886 -0.6579900361680668
Ni 4.660690723896261 6.66008249076682 0.1715070280550493 1.5326065694180637 -1.1249018560369528 2.005706520375533
Ni 3.3687548696246092 3.3323940070776263 10.546977791795268 -0.11675148056114733 0.5299167028361971 -1.1605910819084464
Ni 8.651011755100868 0.6125252330459381 11.003806927349427 -0.18485563242823647 0.6920232144933759 0.037845867203179985
Ni 8.288984036698299 4.005414043970274 13.618992685113815 -0.6406494880070902 -0.29480628801746644 -1.3362125973329246
Ni 6.973492667124472 1.8625596104725264 5.65479298614944 -0.5300123478737968 0.36431811886535964 -1.2600518937099459
Ni 3.3065601257079287 4.672984601207542 1.1816164393369046 0.6338296368717794 1.6481658294433228 1.0431762567316873
Ni 1.7260436354879458 3.144359060607039 0.6058612447847699 1.2756366355220805 -0.16679851781620952 -0.9327867138328259
Ni 1.5517532810491852 6.319378418865588 8.127242364592249 2.6772827798684666 -0.14108517221050543 0.19532696427320553
Ni 4.123275315561185 4.903518049427416 8.552126947989082 0.9090209788717957 -0.9506201424698207 -0.49651087368224167
Ni 8.443875731476444 6.832271168751458 13.274886873181973 -0.40233367887718446 -3.1512887875799724 0.192038780440237
Ni 2.4419062539033427 0.6668982067610161 1.0102749415512509 0.5739311607439341 -0.7250387501874481 -0.45010271873134744
Ni 0.42369425336971883 1.5393664092045352 1.6284235540299665 -1.7128481001130564 -0.11509620434591146 1.3879359938491451
Ni 5.5527221863244565 4.5986075734196215 11.428011720707337 -1.155781833445261 0.2871719114006603 0.7116646428733873
Ni 3.2515352603139394 7.811429209492361 6.63459919878792 -0.06359006604681952 0.25501460994182534 1.4518160803325577
Ni 3.9283029769013265 2.745477608630635 4.645709304570636 0.9172901608591234 -0.0669443272310331 0.34062925988885207
Ni 8.723975265981592 6.1292696943008895 8.661801910807585 -2.3714534012676194 -1.2072380923430241 -1.9118427430458365
Ni 5.89787139692069 7.3512457611196105 3.820520452836866 -0.8262309428577577 0.35225707393576755 0.7700500247908157
P 2.644280957419313 2.0376404184449175 3.0094463113777272 -0.9598802276155082 0.10900526095682518 -1.2518217924906698
P 5.8583766185991974 8.757062720954012 8.705029489698479 -2.9038072527903993 -0.7625514024209255 0.6711867373639989
P 0.9589596280933207 5.290114923545875 -0.09959621529205445 0.48356048416916075 -0.8693640266018059 0.5312683317680851
P 1.0124686825934077 2.4418411577299852 10.838872752912843 0.40624869766087457 1.0527158207910063 0.2667452681151922
P 6.031634733717571 3.2615600710110355 4.104262583214047 2.0417744697426836 -0.9085887764303836 2.640720664473717
P 8.47515909250152 6.137490411050642 2.0548602161887146 0.9024649229208329 -0.05224635889922615 -1.3851288634176533
P 8.182579691618354 0.21261154174914634 2.581212994834304 0.506004929215606 0.4568490363162454 0.44008261549118405
P 0.025588375801605712 4.082450715412526 4.111775611564868 0.45965333853425994 -0.7511737567116031 -0.39296149363366517
