# total energy = -381160.0169420027 ev
CRYSTAL
PRIMVEC
9.33808185885343 0.00000000000000 0.00000000000000
0.00000000000000 9.33808185885343 0.00000000000000
0.00000000000000 0.00000000000000 13.66722670822062
PRIMCOORD
 96 1
Ni 6.888376026536182 1.7805574015465553 0.9767540062218731 -0.6271054307740683 -0.00042011825655411517 1.0860350037684263
Ni 5.843061824579349 8.825738495745695 13.40865607872788 0.19966467241661098 0.19367297360955033 0.16852347092711623
Ni 8.953250001161232 7.354785192481974 8.05007821100478 0.015732580243908386 0.8546709433660055 0.3107985496806647
Ni 5.668103526119775 5.133545040033186 10.180907990382702 -0.15005472269896739 0.6680188811589786 1.631316361986152
Ni 0.6326933203277031 5.904777206438836 10.939822293237004 1.466085188657062 1.318134142564659 0.607648093380405
Ni 7.921858878997482 0.5555673022626325 6.369009665543737 -0.2746238995323206 0.9690480101577054 -0.4158815927649483
Ni 1.1410015249881762 7.941926416539628 9.597905404128062 -1.408750102381019 0.036748777484259296 1.5658948991575483
Ni 8.955696578562833 6.759912036788724 2.1621963957595245 -2.088204479070449 1.653795002704642 -0.17281721320646365
Ni 5.56197622776404 6.267907188942971 2.0928900872978935 0.7507613517645327 -0.3891971414952265 1.8843424807430385
Ni 4.958745488962266 0.733482037383837 2.3817188214468223 0.2474365404842513 -1.367029068493149 -0.12042044477230229
Ni 2.969696737623497 1.580778481966915 5.666746702850872 0.06472160854810144 -1.0144261811821884 1.1919274301278826
Ni 1.0799024565199336 5.332483532261131 1.3623009876202252 -2.2691535773554277 0.7699461522230998 -0.34887144529298625
Ni 4.498770261297785 4.496482431284837 12.131577225994056 -0.7351652970984888 0.0185142567541036 -0.5001947502917321
Ni 0.3608337482176696 4.069433279643437 9.490125265313992 0.8024204707017214 -1.8039420280071 1.4763096945985479
Ni 1.6914347499401194 5.813366724819452 8.574913886440424 0.5942565025648475 0.3154126514139084 -0.6637313095272183
Ni 3.4238356642345384 4.590330152224136 6.762817114001084 -0.995626274866866 1.9878190985721504 2.808447093420834
Ni 4.5886959879291735 2.1871561542967037 4.096805998488151 0.7937604810338782 -0.18627153893915663 0.1621985571503529
Ni 2.068627883462621 3.9816086213912865 11.891703385081373 0.48565721879718937 1.1713802021041504 -2.0379224429864453
Ni 8.522558997662486 6.971251501495016 4.647922771019473 2.5268231084215964 -0.8297710948005323 -4.158661147239173
Ni 5.740959239430065 4.372883582095525 0.6786964459431625 -0.8199677355568652 -1.7799335809076442 -0.0769348627848417
Ni 5.006014858454279 4.095953431630265 5.4727676658060975 3.0697002280732035 -1.2745086925652245 -0.7181168262566342
Ni 3.8526590513961834 2.466159358896147 10.81212962903677 -1.9206865665897117 -0.28010137770712407 1.3036840285776
Ni 3.7442999515176125 2.5785244958177977 1.7421890915171625 -0.9349289569868091 0.5481815625836559 -0.9181157420842124
Ni 4.661112811400245 8.715791921980589 9.728522755512197 1.117171834382547 0.6188694160175213 -2.7027076476994742
P 7.999094152618273 2.635178637403741 5.262442316770851 -1.4545838728856821 0.46506088270307655 0.46387508992509147
Ni 7.788445705956709 2.588450876649487 12.709427058774633 -0.4501927073419924 1.2724623515591569 -0.6024794046952721
P 0.23278250168071132 0.3234506058060976 2.8247837169870262 0.7417331801239935 0.09462919474081122 -0.6005883583201463
Ni 4.972351073978042 2.3243419123384204 12.784569668289704 0.8411723946589384 1.0696565624104029 2.9095654954304147
P 4.5245246905864 9.415027478591014 4.9891119967953514 -0.14729541478627536 -0.45042204974397915 -0.31474699280545143
P 1.7926128650025388 2.019995154044524 10.221595879902774 -0.8977850009466604 -0.2475406701622834 0.22995432453908785
P 6.935524000966284 6.876236520345029 0.7149711580586654 1.9472614888647626 0.6959618874261498 -1.1617709611491605
Ni 1.0659607005634784 6.455639983148313 6.18212383534727 0.32499078202064674 0.28755783398516926 0.32608272953324485
Ni 0.26980519413922294 4.16686682394997 5.375757136599917 -0.1282247713080695 0.8412808952123446 -0.009756822276447712
Ni 2.8381605190015087 3.5989060196743385 9.056287328287235 0.4565315050758267 1.1489488696838277 0.23998445508158028
Ni 2.8687333984398435 4.715796617750548 0.4261349534443884 3.1078991077404283 -1.3567919641461732 -0.9964924795219032
Ni 4.171816007243287 7.332196372884744 3.7265603977396635 -1.3210765130224345 2.1244174386558963 -0.19622633615902335
Ni 8.925805379087539 5.0847442251447506 7.728050728847553 -0.42182906859763486 0.32660363503372136 -1.6487083322103542
Ni 6.267085437754646 7.346829146885926 8.811862106361039 1.4843845011868821 0.33542483286977715 2.1440282709082883
Ni 7.763690451408442 6.222103898275581 10.242793325328863 0.38995895936191555 -0.5590763551192889 -0.9585054587551688
Ni 2.596406922245535 2.2968225856112445 13.16953395339088 1.8320187316386576 -1.0057101414654293 -0.5807528116514579
Ni 6.869531777694839 5.1891439783886675 12.357496237635921 0.4332568508186022 -0.3335096181249353 -0.6618523473369505
Ni 2.08301786733998 7.807327307124795 2.2243413293765433 -1.7487764385785494 -0.012467536339391431 0.8076084426605641
Ni 2.5226734292568076 8.52896492169874 8.103653587059014 0.6702415998419102 -0.013561283624202449 -1.0095374856313195
Ni 6.887862432043479 8.534857251242293 4.5383254415094045 -1.6591560099062395 1.1450335937898215 0.5676651252295644
Ni 2.893731443111934 6.979833198563993 13.236052844469388 -0.9049020716074156 1.1663652653880623 -0.6931804680262708
Ni 7.2247710811747226 4.560429614667157 6.003451781801371 0.6154922720151723 -0.25046324312571705 -0.9701561556202196
Ni 7.928769059444755 8.605238372905925 10.345844659577395 -0.3671926121996773 0.6048869856955001 0.46671410203578334
Ni 8.189301538470273 7.365197153561309 12.256180852772726 -0.4568130408719875 -0.2989419074523948 2.3921867771602288
Ni 8.058904565813917 2.8399347545217544 8.208632301367432 -0.3522501319572321 -1.2771175909429813 -0.7466691839730303
Ni 5.478166944636654 8.776106591587249 7.102652317932565 -0.21901890857350667 0.016239601787313967 0.4135858547522361
Ni 8.640153460328019 0.43293307691143423 8.562326152328367 0.0678922929665992 -0.41675576783978546 -0.9563732429035142
Ni 3.6048170253812617 7.249871844745353 6.605534870363997 -1.0387755565608303 -0.8315328146866453 -0.8045879106666853
Ni 7.510675128139752 7.055135489275885 6.353019134465482 -0.7429094598202818 0.5355690160259678 3.60773390358958
Ni 2.3745341013979964 1.0338376995653498 3.259100697604252 -0.10677714295725481 -0.2360684078566257 0.7013591471823212
Ni 6.611399185662493 4.671842267256887 8.191834960031551 0.01845357871949725 1.304180251487728 0.597464467979184
Ni 1.7044053454012824 3.2831014351523304 7.136943621498067 -1.8388681504603233 0.18885446917498444 -0.5345207772671117
P 3.5373493852035063 9.416521571660693 13.100911192508628 0.7051250419826566 -0.2941123472742354 -0.5783647710352555
Ni 9.236249904722069 3.6162188231192602 2.6981705350296354 0.927184794265016 -0.6659486288935111 0.5629687481951594
P 7.6666491065327 0.52160469917246 12.407819159839095 -0.1336269161602473 -1.3455585573241988 -0.35859407189738884
Ni 8.005817571431836 4.736359073622024 0.825140911976055 0.15472590292239158 0.10702165486789308 0.7493166488982063
P 5.772895478794484 3.215334976360639 2.5202361899368917 1.91564926127612 -1.7747713199804143 -0.6243504937367504
P 3.7059858023619956 5.650379847080692 4.883669179827162 -1.1656409856275283 1.2512237538953548 0.6973212296675216
P 0.05424585031925242 8.55321591983599 5.821637463768301 1.901137183702874 -0.9541281556230793 0.7823517249763042
Ni 2.7447330117380564 3.6366318696837685 4.753789536896183 -2.372594713960914 0.6561936063892764 -1.4720843436632907
Ni 5.035046954414506 6.374846900405344 13.363061961090246 0.9973766818990694 0.2772022017824581 0.8092233525561676
Ni 6.830545286657865 8.700047916258832 2.222277613324047 0.20656757018403135 -1.2409840784452175 -1.2136866761818452
Ni 0.5493901612276726 1.0350049597760376 12.439089593979336 -0.5449815675891194 1.8246885165258317 -0.06104467391714648
Ni 0.4959455183170363 1.8685314691056738 4.748951476774924 1.2574057143363506 -1.4401687259016165 -0.2938444383248294
Ni 5.865865420055346 6.447273061958102 4.847587766002549 0.9089865260894345 -1.707402503617453 -1.4286062178749976
Ni 0.9872593481180635 8.358993158859224 11.936558860457685 0.303393001245213 -2.014402505487634 0.15103739832721086
Ni 1.0864017613730432 5.868694858806054 3.7257956088496207 1.2707134871888501 -0.7853308622092862 0.35120883517691126
Ni 5.802030293653252 2.8324642891733522 9.995772116694097 1.9983477660176165 -0.6908268801924295 -0.5242147673554133
Ni 4.48214847589759 7.173607731619854 11.281065679886657 -0.5837759147484978 -1.0182003035126401 -0.13567120028378568
Ni 2.7361980050775077 -0.06523957388759448 10.710212871713027 -0.09267747033107909 1.2606995545962738 1.449757140921
Ni 5.563974577244736 6.465258207284379 7.044580655546762 -0.6109560747077155 -2.947484639073691 -0.807524624697506
Ni 4.301988865939191 4.560541671647384 3.0980047814068064 -0.9924100819224133 1.0534943508282437 -0.45203927363242796
Ni 4.14577209742242 7.799595375489199 1.4104303944354735 0.22338515596200237 1.9115614643599919 -0.995798281668356
Ni 3.406840355566924 1.186571363613428 8.735817438155149 0.06744029303084514 0.9926810761956131 -0.6561622389307086
Ni 5.137905924180315 3.0338493588028985 7.6921607456974925 -1.3203728020871903 0.9084090563194097 0.9857079873118896
Ni 2.13532046286048 0.6296603113962519 1.0067376527058531 -0.44516311533788494 -0.6136945566848011 -0.14046913589306131
Ni 4.159723191460561 5.89482281136209 8.753571932863794 -1.0147069456474007 0.4178497722349126 -0.26970923583952255
Ni 9.009549295643124 8.954613361087315 0.83134700106424 -0.038444677129443466 0.10370416045888592 -0.4079772503162071
Ni 8.556783067039852 1.759145180241698 10.361192730635686 0.3572480993924557 1.0068761367490724 1.2104653410310702
Ni 5.763912244213031 1.500844502739014 6.335811851343607 0.3120841012613077 0.7059313399340359 -2.150163694382065
Ni 5.339645840913912 0.7754837949970586 11.385415007489474 1.3106231788995943 -1.9279296213053698 -0.7181510219286793
Ni 2.302145292171981 8.42702108393811 5.121902319787702 -0.9291090078709224 0.8378829252743892 -0.5686349453420014
Ni 0.6747305626513296 2.679627906226733 0.5295794209318792 -1.248887135342378 0.8042248709003118 0.7899426499496847
Ni 1.254692669509169 1.1457359324027259 7.335323696441217 -0.5723116228626401 -1.4856505123834993 -0.16410862968887222
P 2.8651382369909255 5.787658985939263 10.476297660723866 -0.022173964993877943 -0.45999992324040134 0.8351675832257552
Ni 7.649775192926997 5.057869226053874 3.5079120164981283 -0.9390242101021055 -0.15572477650055117 -0.022210988879400456
P 0.8051826299896306 6.687579256052822 -0.3200907640156538 -1.3083752634056822 -0.19537992899832804 -0.3700671055339949
Ni 7.614944148240073 1.2182554747723382 3.5197480350345027 0.3464713204919259 1.19274581226412 -0.10621792801967513
P 7.677826790310246 3.9848209214910995 10.318045190399655 0.251742881169089 -0.07202688396026305 0.7878788254421206
P 2.1257115768060975 3.951801464651163 2.481790373829509 0.42414948920069534 -1.3776011875820404 0.8264147767337895
P 6.282820105394718 1.1656073702294754 8.65874838238836 0.21463646323509486 -0.9975731141805916 -0.755748520566479
Ni -0.0759335450338319 4.400141442535507 12.530017296775581 -0.30394604553520554 0.3207250647657573 0.5030293915270497
