# total energy = -340888.28750680847 ev
CRYSTAL
PRIMVEC
9.07869275748111 0.00000000000000 0.00000000000000

0.00000000000000 9.07869275748111 0.00000000000000

0.00000000000000 0.00000000000000 13.28758453890409

PRIMCOORD
 96 1
Ni 6.4921459684504415 1.8427295089397542 11.128059688194528 -0.03433528294676022 0.5358438669539094 1.1181570811139518
Ni 4.664024076188197 0.5700129889314817 5.847082149942848 0.41803386322126074 -2.1063155868488628 0.8140729673389852
Ni 2.7906993725913845 1.4260356678805155 4.545948413674617 -0.762786401249867 0.1460692556886581 0.44593161807279325
Ni 3.6356169945361114 4.491274710035528 4.850180855833311 0.1110695996850216 0.8661532329739923 -0.23338417615624324
Ni 3.9524542937458023 3.0883170791930654 2.8893584348637025 -0.8025595673827468 -0.7070366571830726 -0.742927714652727
Ni 5.506000201673313 4.743816707001514 2.407231731355855 0.24535960335056453 -0.2927211233536636 0.6372954839331927
Ni 5.5662918004025475 4.072293038396592 11.87617756414758 -0.9015460106509894 1.3904086237593538 0.21369775347090936
Ni 5.6009814855018405 7.820286092121148 12.042099753332266 0.9317099358288792 0.1608304731582327 1.70743258552444
Ni 1.9983383031302495 6.683869802506152 0.05495877459227432 -0.3526247416878314 -0.1304055810094722 0.48742639488247025
Ni 2.5740817629423054 1.4793094370934576 0.22462955602440654 1.9745120970505996 1.257502130704899 -0.39072874764840454
Ni 7.861830190266756 8.988505042532488 7.032826608890087 0.6772457990738853 -0.37558006493242413 -1.6084769954941331
Ni 8.586164614753015 2.2011290636806047 0.9699938644583234 1.0953987043715134 -0.8965405870165979 0.7086402542247666
Ni 7.100028000691573 0.9213511364307123 4.720454506879554 -0.531314354514672 -1.4300846021927371 -0.6788319126140826
Ni 0.6899515992028138 7.5385288618001445 2.4710385999281788 0.7157167014555739 -0.5089408719154783 -0.7225514649892202
Ni 7.816300545992233 3.828375799568352 3.7584335504176183 0.016917344580628928 0.23936610477129097 -0.6201673088933384
Ni 8.051356980670535 3.857173413055648 12.489997061464592 -1.3653313690757518 0.43706594015204725 -1.456749255968117
Ni 8.299332395169905 7.389919739740388 8.83650956806707 -0.255739661033308 -0.8073071093700611 0.9182504678898636
Ni 6.70020237081121 0.6715636148531389 0.23367828911481883 -0.835529337440548 -0.08701230162550176 -1.116917552279896
Ni 1.835466554718494 6.902702613192715 8.74214109600096 0.7461652477534181 0.38544358799006523 1.1815216614135264
Ni 9.299577371829054 5.1222620153930425 1.237087190206604 0.016564075006268247 -0.5181112255608368 0.03271728772736301
Ni 6.776862852616609 2.1903798914331403 6.661225726982818 0.2883016541297293 -0.03186856657382253 2.2287188663791486
Ni 3.2930416013048314 4.510576010878526 -0.08771742173798983 0.28548398217527604 0.3442352320725555 0.675120010980134
Ni 6.225586469837423 5.963076068202757 4.643320117311217 0.449620122667974 -1.8259910373873394 0.5060833478620252
Ni 5.528497202373666 3.022387612249578 8.973411715791432 0.9136867597785813 1.3014073167282814 0.4155329511762779
P 0.1711170171914406 5.797371767644711 12.217349391475603 1.8889756086396758 -0.10888699021140602 1.1978507375908531
P 4.348203590569482 6.072265506226625 12.102132609317367 -0.7444462081797824 -1.1648318594626712 0.7821753472994399
P 2.555615701834752 8.569468898736893 1.2149878362498652 -1.56976132409149 -1.0553856543136857 0.6664559075472329
P 6.33324160878205 7.870309689320077 5.826180275563339 0.40995340020597143 1.3015734099925003 -0.8231492186086405
P 4.742218857072836 0.997357952356198 12.486582565111322 0.9102846760755678 1.5521446394509912 0.18361867469734186
P 4.1138099004638695 6.446570930712035 8.067649602727377 -0.6549810741384139 -1.2280617139565948 0.8166913787984387
P 4.784915949201069 1.2075660049050152 3.6425522079481376 0.4368293986612089 -1.0152761878873096 -0.4085513776521222
P 0.25870915296911373 5.596088070095267 3.606489824501026 0.033775039567916026 0.3950754546528744 -0.9806519129452209
Ni 0.8025437312793413 -0.3504711323390677 4.465266070969196 1.027903903953649 2.0601794546124323 0.8989525388922002
Ni 1.9313012356680197 6.455613308717504 4.68297040014363 0.6489798622496565 0.1336207455126602 0.21554483398197716
Ni 6.120845591274078 5.819206023772375 9.227377251784786 -0.48436318257611427 0.5703555275775338 -0.3584120377935698
Ni 8.717115679362333 2.4359766884250464 10.240475841677009 0.41880879371407226 1.2266738324701325 -1.1801522918698257
Ni 2.43366162176702 5.2855604623652965 6.923230445429829 0.2130881449113685 0.8595683806676228 -0.19996831969995885
Ni 0.34838121726190013 0.3135589832480692 8.852361873524249 2.247981571263503 -0.9546421191450203 1.620494074559667
Ni 1.5988485848826204 1.2048423970720428 11.392575573063539 0.42942642132891845 0.5594892742869912 -1.919301770427043
Ni 4.027934545490246 6.91146355172211 1.5406024156359484 0.6926600767464264 0.02335230157269527 -1.2012888167381246
Ni 5.725759039023088 8.016603744721808 7.9693082947022384 0.6715302367463467 -0.2320358896584649 -0.20123741622036953
Ni 5.2375432562699915 2.6621541615678592 5.100864444387932 -0.1002740517314144 2.160857169540169 -1.1613166472205612
Ni 0.6615480009820212 7.368085483612726 6.683402249828158 0.22811984243351036 0.23266735259487673 -0.3951001372432228
Ni 5.2740486799246 4.798225312811527 6.997135543977538 -0.12276451952444664 0.019346008626779588 0.2630127976559535
Ni 0.9916020611358495 7.683515585442047 11.22515176809361 0.3359693925193375 -0.7352054063078047 -0.5048003673845436
Ni 4.8117616437414 0.2683452774821704 10.327257250189733 -0.8689886455402582 1.562917304586463 -1.0632974529615946
Ni 8.123278384846563 7.385198819496569 4.61807318056884 0.04139398956575452 -0.03519660250579099 0.0686278855810431
Ni 7.369910300860817 6.29427585938499 6.894130511473073 0.19230617516901075 -0.06510136048502338 -0.5641828231079187
Ni 2.5358332302745947 5.247311929697585 2.4201743157781404 0.03534007006219075 0.11601151707132923 -0.2289233121714122
Ni 2.296682305154057 5.5750436602391655 10.982826024109103 -0.262643844352309 -0.6015900601117833 0.9238670427456928
Ni 1.5227237459510394 3.5361326790904033 3.6816178229657397 -1.3871127266169014 -0.2824282260680878 0.08399794027921018
Ni 1.486309109224197 1.2295909135809862 2.2780101577204745 -0.6109897561591283 -0.963828670740295 1.8349114798054207
Ni 1.3871970201823278 3.6518133824495216 8.213055761975557 -1.2057052006382656 -1.0630634825739176 0.1066879256775582
Ni 3.6485268956644017 3.1529846078406094 6.933474842358916 0.7330253679373505 -0.7359325142818164 0.3304636322097599
Ni 4.294176289856084 6.843518614982223 5.88654631957334 -0.6717719204435076 1.2812167007130193 -0.21664192370089785
Ni 0.7422248964717771 -0.004385008611085717 0.04293404600970076 -0.21416620846689569 0.05083739436684148 0.7254930641160473
P 0.2245923333840226 5.49816528980713 8.072951559308896 1.697483701841844 2.8018691830930007 -1.6746283945102256
P 8.652938400124723 1.9478244565213862 7.936262760864784 -0.027575852735739603 1.1490851381513758 -1.6358191349525117
P 1.8639736500369397 3.442186366238405 10.304535097908524 0.6569803639566298 -0.009479657355661093 0.8530822587226469
P 4.444192609296209 6.235346064572241 3.565577603372669 -2.7239567868862378 -0.839321971713761 0.2615495828468657
P 6.877000833942232 4.109288711461135 10.309424881837986 1.8858964554937199 -0.48023039135466317 -0.3860704229407867
P 6.526563292766437 8.063095730430646 10.017802743945953 0.8344690144968339 -0.5492043474212154 0.3543296401940801
P 2.628081827577373 8.5009066108882 6.040057935732448 -1.440267970483642 0.06356769744931633 -1.6465241800748418
P 7.391145363265226 3.885853003536848 1.2536648832166302 -2.264545646269771 0.8444608356022231 1.425357371920397
Ni 5.197197545570892 3.1355262816312557 0.6582733164975106 0.29666879514750194 -1.3563314795699866 0.12404158646465735
Ni 1.9459360884238588 1.3931889574148675 7.102984930928903 -1.4310590502908644 -0.8091873571119097 -0.9068573955615737
Ni 6.950274963341968 0.9640482285589445 8.903904336024697 -0.6985844126506614 -0.3286206654637502 1.1192271742496789
Ni 3.1790404561093792 2.0254926732249854 8.998379028796291 -1.0899703342670906 -0.4414776960664977 2.2091854243319116
Ni 6.560254321660307 1.8835473116632353 2.423496209465089 -0.5746500411878297 1.1320880893727472 0.3772399691333503
Ni 4.017239845399441 7.1299513720831635 10.275342561285447 -0.23952448472602617 -0.4215177080048031 -1.5904504770097254
Ni 8.37444042051051 7.3805323714094095 0.16816008695411014 -1.3047623492434435 -0.9221778279687278 0.4393740194599336
Ni 7.682780211327144 4.257852440057008 7.989187000405828 -0.764060125755968 -2.5129959727305176 0.6554086485941357
Ni 3.2279292167112352 8.58821639932052 12.253797619365718 -0.26740475607606207 -1.1194040661471756 -0.230450547449216
Ni 0.014568578298569876 5.035751151925059 10.150465142143657 -0.03252136966647302 -1.3609157565065593 -0.12280334318218206
Ni 8.97741995865229 2.329420071306386 5.5297082999900615 0.2484071319276367 -0.14832925536742841 0.20444692429660274
Ni 3.6348906991139858 2.7249060860395455 11.497348227051605 0.19851538930351617 -0.15089264521923043 -0.126186400721802
Ni 1.2153010511506572 3.3848635000471106 12.588684267684517 0.9431374609395305 0.1933454150668025 -0.21623774628394374
Ni 3.5941182898543875 8.805923452102789 8.011829260190606 -2.0268150202193738 -0.8634869989957387 0.6920784932113435
Ni 5.697524304487939 7.96933099143418 3.4855462029393274 0.13428948944491068 2.0951462004956043 0.22172833708486978
Ni 3.1455763945349235 8.247411351180672 3.499684451200287 0.12131827399622333 0.15625442375177606 -0.03464664353959194
Ni 3.831580578118483 4.4814152496801665 9.372531023373776 -0.8578927927374129 1.2021974445953232 -0.14824132363931242
Ni 7.494805877388159 6.409711438039141 11.21020370043698 -0.9775838155428582 -0.08588744399243918 0.304056860081457
Ni 7.808629050596027 8.975840266109167 2.0945751701697772 1.3022732642730024 -0.5889826557604179 1.0736625982460024
Ni 4.416992845737591 0.45642855573447433 1.5816608037180087 1.4161170842690514 0.16307787443151267 -0.11840907076922833
Ni 6.386923919169937 5.691913672352015 0.4539809401619097 -0.6132248161372342 0.4750539893600463 -2.0008972719123475
Ni 8.160646284314945 -0.1983839630766059 11.433926295053006 -1.8203770336346714 -0.2736538223095674 -1.080183944304288
Ni 0.20897425820048063 4.93406979282742 5.744621839004977 -0.4707021401492539 -0.6028285605045747 0.1623052579315463
Ni 7.448041530896021 6.442195000793726 2.4722351716361315 0.728805673429048 -0.6742761749226001 0.23146459053602716
P 8.66447741864375 1.6313230689444294 3.3559387848609425 0.20225454463097428 -0.2704893085386567 0.29239150792838675
P 2.0369590622017997 3.1344368384980665 1.495583901764746 0.5463059428274979 1.977661955533491 -0.33196798466942823
P 4.889121184890596 1.4069159408930487 7.960459292852911 1.407024892159796 -1.2130287308828722 -1.64723688987115
P 8.74924517309863 1.605693919236158 12.185512231646708 -1.2393095189562722 1.1403385023069972 1.440522252586293
P 6.089596730737107 7.772495853345259 1.2857707723517098 1.155885706012977 0.3649588377731521 -0.9991520286319373
P 1.8805695004325187 3.169644009085624 5.801160306140376 0.29382232683764237 0.8860751687088999 -0.036250754801918215
P 6.914178080862306 4.174464646904167 5.779049149883027 0.9316209756594989 0.1292321295266613 -0.4417759440332069
P 2.4418596813442672 8.806867636151553 10.0318075354231 0.12111078597110753 0.0374781994511161 -0.8983964092784139
