# total energy = -340897.05329479446 ev
CRYSTAL
PRIMVEC
9.03061910818375 0.00000000000000 0.00000000000000
0.00000000000000 9.03061910818375 0.00000000000000
0.00000000000000 0.00000000000000 13.21722389380136
PRIMCOORD
 96 1
Ni 6.127329272854339 2.0890711877978085 11.366495346781802 0.7849410829700353 -0.06956248158017052 0.2259446891590625
Ni 4.734997443866225 0.24186887865503373 6.143854402825769 -0.39272083837776883 -0.10954853505480487 -0.6192918482669205
Ni 2.6624342278634745 1.612507354335659 4.785507502861913 0.6083374061379458 -0.3539334331969259 0.05399470904890056
Ni 3.523305089613641 4.16344052762934 4.867612989056382 0.10934901744948909 0.7248500312154097 -0.5570477547250343
Ni 4.928090142401199 4.3056637485266975 2.708116517864832 0.8856288252001006 0.9505610070971113 -0.14846989471035074
Ni 7.205774841638606 6.032092363362717 2.5429148865558076 0.1642739516221429 -0.5820172801861783 0.09791455036030235
Ni 4.9973098381392305 4.519734575332963 11.326711857205243 0.3367445801224652 -0.4601603600776656 -0.2383577181114347
Ni 5.563466444128061 7.957980263230163 12.532373563993525 -1.1055779588973604 -0.4205476307820499 -0.6951676736596286
Ni 1.7542880748949659 6.593643353588155 0.3949243272155059 0.28047547321709115 -1.1578119765014125 -0.5341212278358479
Ni 2.7156968195742257 1.657786878723198 0.5784084469813657 -0.3465044877227065 -1.0208570244091968 -1.2923081826404905
Ni 0.5610642398535819 9.210509077251485 4.946426814572899 -1.1131004925266508 -0.13756378932080823 -0.659839944892612
Ni 8.656227735436891 2.4505759027474654 1.284730195764658 -0.2315116417238787 -0.9173739788221813 1.094071758029974
Ni 6.833785577862875 0.6443202269269844 4.772726467587545 -0.05435620615337736 -0.16814731853462006 0.013844104971943898
Ni 0.7771507008527672 7.466064377223376 2.329218830444014 -0.18241822663133744 -0.7718081451325031 1.3156939085542825
Ni 7.66456641662555 3.790846212370967 3.721401654216253 0.06911690940231967 0.07020345759827909 0.09241393225704729
Ni 7.480585612806776 3.7534142960194816 12.681860111868327 0.28725752913593106 0.38457095557712484 -0.3996383914332085
Ni 7.948308470127042 8.600057284361803 6.9425052017363456 -0.6155542356013592 1.2622139343582712 0.23474300417698282
Ni 6.726104475190953 0.6917616815375743 0.34949399148826354 0.22814478213417483 0.3162060938494813 -0.21850854459599142
Ni 1.6701136738546283 6.64802574207275 9.233869482852938 1.6122662873332363 0.3935741875169996 -0.14450319675311887
Ni 0.01940860666408041 4.803503720691887 1.4130534876757177 -0.008271495980172853 0.8584414661520312 -0.11328563349973395
Ni 6.46657351161427 1.9794033489142273 6.889200166115619 0.6183662511288577 -0.24239177897149225 0.5415206056237125
Ni 3.4262891481506705 4.3173132472223354 0.5192145446168979 -1.261485283722363 1.2652439794338468 -0.19868842454627073
Ni 6.091595112901906 5.662965805855604 4.759879508793426 -0.49310544754511854 -0.4521094647487311 0.1362908361456556
Ni 5.504866756503261 3.0602691236290607 9.055556295608879 -0.26889008237233686 0.5747158614287585 0.12985382227106024
P 0.11705037003372337 5.5359140251200065 12.297120516923318 0.9205701171619758 -0.37923180275239854 1.2524470847794946
P 4.15886200372338 6.060647181095744 12.506732023996323 -1.6685816740955133 0.7043223435757031 0.12394619853737361
P 2.388580702324558 8.533889937894411 1.3947339736803923 0.48603362830000163 -0.09514084426990711 -0.5552567242628824
P 6.285771485734149 7.71734135490253 5.780420747626975 -0.09814312143134066 -0.3140759348803559 0.2631158988927211
P 4.524006058188031 1.0503874351041547 12.522381183910795 0.6255020908426905 -0.5557295501342429 1.1631241327429451
P 4.04794793939794 6.205696985785145 8.128500026153034 0.1947528369372904 0.4795217953234128 0.8533730504901884
P 4.661578510226278 0.9322849979401662 3.8830885685544696 0.5264364575970805 0.6527023054065662 -0.12132701574697169
P 0.21960027490807862 5.610506939248661 3.5864941378873723 -0.40253859579913903 -0.41800352420395753 -0.0742568017320463
Ni 1.26429571076583 0.9375498489010627 2.6238436830758256 0.07618641465459138 0.7865639632854389 0.20385788456235213
Ni 1.788459937735502 6.5112299232808795 4.870639149531505 0.466905392110983 0.2257999360510821 -0.8950969125915359
Ni 6.134364125167441 5.626012512318746 9.254343702576001 -0.4365545477332675 -0.39848473744473956 -0.1568367786178073
Ni 8.685423727129136 2.2734493388589145 10.246534215669174 -0.2388637112135757 0.6751071554643276 -0.1379707949512398
Ni 2.2161049072951187 5.495339453306442 7.089666365181592 1.0019100509930488 -1.7333004544301374 0.0684543361176563
Ni 0.543210705806082 8.974177774255494 9.123201954430128 -0.013796025342827855 0.44966048898760624 0.13597176224334004
Ni 1.4600343807099685 1.0935447639928761 11.469721645030035 -0.04909572908538642 0.6366149129264004 -0.34950779332540455
Ni 4.202723720905326 6.669536676873532 1.544115766373124 -0.6040446922998629 0.5076967150957321 -0.01875311223778706
Ni 5.697833026370221 7.872225503839643 8.294931627789458 -0.6080062480507723 -0.019932734368185025 -0.733250082353647
Ni 5.544032551730377 2.845927378248478 4.704961604593597 -0.4083806564022127 -0.2511499847800965 0.02778282654022312
Ni 0.878397487384657 7.423900416440484 7.016468681710671 -0.1391506741919539 0.936740042053619 -0.499760748078107
Ni 4.989218403386292 4.653315493709605 6.90974030935843 0.4340909166841234 -0.09387123352886415 0.3763400830269003
Ni 8.056152123943555 7.2164851559432766 9.165814736984471 -0.112154090998452 -0.09563372474592562 0.31272507727941623
Ni 4.5489215364060644 0.46439146191808 10.34334967738715 -0.23027005600729375 -1.4072655474156925 0.6724956859834096
Ni 8.130275445876725 7.216232298607247 4.5962501082773555 0.27378829100490265 0.27453005426693367 0.41943717132669056
Ni 7.217288881047084 6.142536835492674 7.017989437974504 0.2712706667893715 -0.8344936970871822 0.05813547069015149
Ni 2.2387988532037517 5.304838542465768 2.620420175358371 0.18937563178577707 -0.011048287394361617 -0.0021270736453318203
Ni 2.303205228938081 5.166624916468304 11.232723882341224 0.2419528916618607 0.403166459191125 1.2588301054877031
Ni 1.078644242405433 3.3379426010658486 3.8017759707208354 0.2486051068710557 0.11492779708884723 -0.161208939543574
Ni 3.586627791050702 2.492694710434638 2.52291658046163 -0.26936008003021994 -0.33478899905799114 1.4785848637859695
Ni 1.10514007897365 3.1882329968981935 8.12166655664684 0.6071284734315092 0.7458708564414509 0.30195961123279613
Ni 3.962382823009441 2.5278870332384353 6.920155322417096 -0.8712404176889124 0.03707145093100067 -0.0931235567295622
Ni 4.048589113357157 6.723621054926379 5.9807541965915325 0.4112492361992595 1.2663058450394578 -0.8609673178976784
Ni 0.8487174545062991 7.339211270108944 11.322957828827121 -0.9354722310847888 0.44725110821516517 0.4742482056292994
P 0.19153852898030854 5.619420160343695 8.002103868367284 -0.6717109852985851 -0.638463793209681 -0.2938446954351455
P 8.586294620786491 1.5224178977560638 7.973858800870892 -0.5390641736634201 0.2761830164893243 -0.49919664804452096
P 1.7245773379115188 3.191583356600582 10.429169457235506 0.1844774231532113 0.1448541523346344 -0.9604067895429393
P 4.020530979677044 6.019792660088719 3.7467921430012563 0.06012987541236096 0.6562442571215537 0.2436397924459804
P 6.992263913219261 3.9535869999632776 10.442770472728142 0.027721891395300645 0.49252463534098395 -0.4929146716905511
P 6.336496473465463 7.8279754700345086 10.451586163136422 -0.11139895799998234 -0.16640025393652633 -0.8550787203273854
P 2.403734081248031 8.453183294605333 5.714862967951798 1.1830095588129625 0.11712300496795311 0.4456732222050841
P 6.781128037634765 3.8238350641036516 1.6152237645741454 0.58943079904143 0.7330855317513246 0.11389729894180382
Ni 5.141447550295097 2.9439728102938534 0.4656846465794872 0.9429176316192405 -1.4685202804611162 -0.3787188676717219
Ni 1.5695035459723838 0.992988819825495 7.01665380940312 -0.18916402999560325 0.4949353016650057 0.15247618765626642
Ni 6.869357186670715 0.7331282386500596 9.274631891544697 0.1788780746885629 0.4629440934703898 -0.5491786363896026
Ni 2.718306668506814 1.5883594787448572 9.163805424224952 0.11399294397940368 0.29402750086991297 0.27108451892049445
Ni 6.395827641240919 1.7666509925029716 2.446349572988118 -0.29173459107067823 0.6335817825270313 0.8578935640683613
Ni 4.1903698339164634 6.865221163102808 10.342556789026316 -0.27295011137432346 0.42696073339724533 0.08398354210150698
Ni 8.192803452829123 7.099809556604026 0.29769706926456824 0.13705779621866718 0.7775098235029707 0.5392356662442778
Ni 7.809507853885224 3.7044502790212293 8.252596988304747 -0.5446403821996169 0.6888319612495879 -0.402170670936759
Ni 2.9063331897020577 8.201481877826415 12.344226032501755 1.386945604911418 0.6668235752992967 0.12723155415686474
Ni 0.09231369807473906 5.053913758933226 10.119278342940923 -0.8118165672046407 -1.4431915718883404 0.21026867318470238
Ni 8.829164092042669 2.521836518412019 5.7995331499831355 -0.3969852700810776 -0.8125501029365555 0.33305427575507157
Ni 3.4591515712153407 2.6906458820690333 11.62815663341453 0.12562975688738365 0.5114736656396611 -0.4993524568960948
Ni 1.0566817766474563 3.4441968659130335 12.651778216438066 -0.13708453569154455 0.030943997877024128 -0.2774863086817802
Ni 3.2670522407861955 8.437966701347854 7.947966209661487 -0.2736103706661417 -0.6581180771054989 0.5806293986997162
Ni 5.614733269008008 7.7632078695344235 3.5376168148329015 0.10750862180664066 0.1653368456690185 0.1866867720997043
Ni 3.2203278173356313 8.243916757183625 3.4995771378130307 -1.1682527122187623 -0.5021984109853221 1.0965582718972533
Ni 3.480292250631222 4.450650338882091 9.25574435160522 -0.26339846313014637 -0.47160896823423937 -0.3182048694470649
Ni 7.143580967594532 6.057161362106197 11.591611523862976 0.21469302750464317 -0.15210954834546708 -1.669638654605118
Ni 0.5373769258391193 0.23268202979993927 0.2448706564584677 -0.3202015881621195 -0.9452221113827012 0.631851430099486
Ni 4.522461822314423 0.2218154857840785 1.769073004557367 0.41482461225534367 0.07202662684994693 -1.5515509717310505
Ni 6.013868573930317 5.564821036999646 0.334523031071498 -0.07032815610160145 -0.33895752861338396 0.9265782710292687
Ni 8.01058361974341 8.97215491556726 11.2971582529949 0.18245216519306642 -0.20231650821716127 0.5721900096831114
Ni 0.20814944983360723 4.903707470712655 5.831505154000216 -0.7709038881506787 -0.17498825271585344 -0.10863579343254838
Ni 7.88408270677559 8.690300261466843 2.4745422628934746 -0.463316389208144 0.6034939620027154 0.16641465211422954
P 8.36691378992361 1.597507495937633 3.5359777574582827 0.6403263003397166 0.18205544397528 0.49396368178035577
P 1.7220758564086571 3.3556245533496143 1.6418035859004008 0.2581942932213876 -0.41084583011325376 -0.16719215371020238
P 4.858093813416793 1.1862260082667722 8.327512295536838 -0.08608001961921949 -1.4150781014815759 -0.8903596550168665
P 8.341429382699511 1.7802872274102681 12.437367838351989 0.24899720010315185 -0.8745370861623133 -0.28000110468383393
P 6.283071330610122 7.628462001288217 1.3656698290276488 0.10699414406406735 0.5479226524953145 0.1808215715681789
P 2.064137648341487 3.365738846790788 6.129949958529899 -1.575841468847299 -0.5850354981872118 -0.04568078986656649
P 6.901497160203874 3.997981523674714 6.065383740836723 0.9772061204884654 0.2249005641652643 -0.3729999629100737
P 2.352891695467846 8.585951457259023 10.211137800872725 1.0755826980868508 -0.28209141155395934 -0.5039639875261772
