# total energy = -340872.26809356094 ev
CRYSTAL
PRIMVEC
9.24483387842996 0.00000000000000 0.00000000000000

0.00000000000000 9.24483387842996 0.00000000000000

0.00000000000000 0.00000000000000 13.53074886321074

PRIMCOORD
 96 1
Ni 7.567090592147527 8.247695255184762 2.469496640571853 1.0494312365024636 0.245372458866371 1.4185963990474795
Ni 2.85123616606854 1.7504260731341101 4.539444507849205 0.42779299949055355 0.05136704161806638 0.7186793836283236
Ni 9.081995279849192 1.2711646450369447 9.206091457156278 0.2136116215150063 1.585595462910269 0.03881774419814605
Ni 1.4137384716242882 8.436308354006899 2.142499473832414 -0.786923917728019 0.7755699261677804 0.05292692990601852
Ni 3.1942194993839625 0.11151026059615361 11.297769306238425 0.018992224831786645 -0.7698512785164483 -0.8154999295934988
Ni 5.548286994319435 3.5349655829241207 7.3406744435070586 2.063065003690344 0.652171886824393 -0.024929159141511906
Ni 0.7362077158195968 9.607416163020318 5.170261118553012 -1.0837719187658625 0.4376315828475302 -0.9592143118967352
Ni 4.542929810185052 4.963310891924106 8.719362976813322 -0.8619384235616963 1.3981684702104307 1.4848683828018363
Ni 5.01267830432045 0.4702375458424704 4.880229419691248 -0.8058721766957476 0.057348970233114145 -0.7875129574622696
Ni 5.5709830612544575 5.227713138091791 2.1721726168227784 -0.5721542713491694 -1.202992686803109 -0.02004689134854612
Ni 6.330094852769175 4.543974476402427 4.41289105372284 0.21484523681179127 -1.5932390954984559 -1.4616934873472698
Ni 9.031463018396305 5.364592147069369 12.613310077912766 -0.24468880253578507 0.7991443710536109 -0.21678204882318794
Ni 7.014517632158412 6.421914541892861 5.545604143555874 0.7342211880176646 2.374812547547839 0.30951094121749273
Ni 0.6634693636221373 4.607689870828571 1.3336282889689928 1.5070572601940497 1.6158786872748432 -0.3106972482161101
Ni 8.576247402966347 7.28406925074272 10.969094202167538 0.427442043909038 -0.50494537760284 0.14986188996187091
Ni 1.7551964073656667 5.822590457467734 11.247380339709164 -0.5595332401510492 1.3394046219076612 0.037714226721322144
Ni 8.898494574108549 8.603251562443823 7.709441618240723 0.2674332953211523 -0.15439268795268896 -1.0280337446632941
Ni 5.85008459313566 8.467916440707853 12.46578379386836 0.1095135680518114 -0.24631348262340158 -0.17035846725332596
Ni 6.657768741341463 2.091153667006704 5.607562095080041 -0.18407555972910233 0.08377733962797185 0.1816841766787903
Ni 6.163382765176803 8.597667682839443 6.838332363389536 -1.3202036234991779 -0.23916607294534295 0.8006078429730147
Ni 3.960902809766209 6.686991660926639 11.8438699580967 0.3261112687783352 0.9422404030465579 0.2908449893768733
Ni 5.928203438594294 7.425940469962624 1.126403490776759 -0.5236807492288142 -0.22825765356295527 -0.20750936527201033
Ni 3.3346300348662985 0.4543558458882234 2.042899332597723 1.3892400573725494 0.9465107482871377 -0.39456303379283014
Ni 7.272540943016457 8.923206014808068 4.951049468878924 2.00113021385876 -0.3324256410321372 -0.23507441937447257
P 4.587083136328299 5.822978740486581 0.0988550076318549 -0.18229789900338927 -0.8082872138951434 2.0538995351409914
P 3.137650361471373 8.741711437998138 -0.1294951602358254 -0.1652864520470573 -2.2922060882995168 0.502371960448709
P 5.3414061039438945 9.095705368348026 2.7390704467572364 -0.1402575341028875 -1.1422917693786263 0.5021750139465545
P 1.7479299680129465 6.260296357714419 2.7957237126572427 -0.3048772991002233 -0.4827927527652008 0.21469996948317865
P 9.048501247056691 5.259478386967041 10.123503462005047 -0.21854454004024942 1.1532138156077687 -1.1686080386756519
P 1.0501853831437222 3.326984557328512 13.334539314038626 0.5913778954654718 -0.9930163480478448 -1.6566255301749018
P 9.363814792862327 0.7937152043610682 3.0894625898656236 -0.7815441414733444 -0.6146718329964059 -0.4146886008981116
P 4.297812287286801 7.801733718370674 5.640942416417022 -0.2014978689706078 0.22786273211738176 0.6746942362966252
Ni 2.611314239755821 -0.025064593349993922 6.551128659181712 0.21719316821867757 1.116851989149283 -0.4737931203697518
Ni -0.2094731417680371 2.3587823601643363 1.3917995565760182 1.0612354282262433 -1.720382975037521 2.3428740469680296
Ni 0.5973946876148061 3.6521808304472 11.14860668661459 -0.3420163700443658 -0.6699654633623882 0.7049926301698504
Ni 5.406979709960237 6.781076334326937 3.9257437824095547 -0.6792985678378559 2.0237281537639342 -0.35747564202222953
Ni 5.447980547783793 3.2018002630852735 0.5646836922436481 0.23611828725795467 -0.5177672119578567 0.2280403953458266
Ni 1.195218335517101 7.0756722076269165 9.303120610116173 -0.47402914763995785 0.3735581494063889 -0.3548618585484663
Ni 7.1473566487732185 0.05272698499275425 10.649700911213866 0.8304069286123181 0.993172928230367 0.07572387319587603
Ni 3.1973719877036544 3.8789288686204446 6.795399355305524 -0.5557012679994688 -0.8558791047414939 -0.8841992918424255
Ni 3.714417051468209 6.691096367125885 1.9339230809412395 -0.5528352593055834 2.801208152470234 0.8148489262730612
Ni 6.897607464150142 1.2887390740566917 3.3736755903449422 0.8032182840126683 0.9871395775520936 -1.459484652621409
Ni 1.9782372671922948 6.003169795733237 5.171235524033644 0.55142886587636 -0.39110567137184904 -1.8711383233479388
Ni 7.879630687818537 3.6759400532671633 8.734530975599592 -0.22782339423901407 0.5988513210243817 -0.27495068674412004
Ni 9.235829313983118 7.203269403487281 4.375560414910773 -0.018174099805865474 0.6318683993803504 -1.0306747818305668
Ni 2.006489479230352 6.239245871192607 0.03583574918950334 1.6258383695907161 0.611398818672089 0.31736617559585345
Ni 7.023956607449923 7.336598396292537 8.665659737373177 0.6519309744581805 -0.7594285405212275 0.22835638392434865
Ni 2.1052705281919506 2.0689938004310413 10.47380038332548 -0.21854222604740425 -1.3429303756727324 -0.628098390814957
Ni 1.684011187243598 3.801373958022518 3.7959435426589203 -0.9517066906657803 1.2706594940224631 0.600077994342631
Ni 4.9119835747659595 2.8387556404627228 2.9214238686255216 0.7400398515819706 -1.0034735388254266 0.3282401421958798
Ni 4.650243840727516 5.968501669050411 6.692037491204902 0.7555315194596665 0.21853245585539138 -1.5913202812091884
Ni 8.844338337813085 2.635461745594632 4.5425433761329606 0.4106100599533638 -1.567555574689423 -0.3218144411751941
Ni 4.311291254941083 1.1604207811613259 13.045441343388854 1.115420656019395 1.80259914082596 0.2535807057087762
Ni 1.2039731931087372 3.6304092468903852 8.824226201920155 -0.2908547595688862 0.18216934384532496 -1.732099749253817
Ni 8.990480670240313 5.795854398169939 7.666589964693992 0.45906635568253845 0.5868237004358862 0.887779038773884
Ni 2.051160516065396 9.34698919537893 9.112540210665207 -0.3809079049032408 0.08001478726174606 -0.43706953969647305
P 7.526339364836088 7.02452054231063 13.09623615812115 0.2904953193469384 0.44161293609278135 -0.35447542174332497
P 2.8097176175531877 2.5852715429916824 2.5471088691392283 -0.2032755296963209 -1.374171078854569 -1.0344414479618507
P 8.434302225076186 1.4163824940859653 6.561682561427342 -1.2069336737287277 -1.5969743941711723 0.24291705534734293
P 0.8634064593439519 4.457821870387161 6.291175951513345 0.5545866947790513 0.380992237086931 -0.3409120812365935
P 7.576242977591793 6.19725583615437 3.347778037471182 -1.0692955795265584 0.6126339766307707 -0.40821199203483244
P 4.783304733353092 3.1776157779113348 5.2814709220512475 -0.5782153899415848 -1.2484407918335791 0.7362047941065967
P 5.7911117984397285 4.28562759636201 10.279120824575537 0.9416626761662169 -0.32009822981503583 0.34486180991296095
P 2.6529529711103406 2.0534624796771355 7.921765866747155 0.4163263936118507 -1.2740908883015154 1.516615593306446
Ni 2.9267849477357535 4.208183623769469 10.298008944475718 1.6321995359220536 0.11753489569439113 -0.44385545227005496
Ni 1.8386680115841292 1.1366430686737985 0.19951460681797314 -0.8852511301457078 1.1079588004247112 0.7787053864729685
Ni 0.16064655214794532 6.962182628118018 1.0521600796395758 -2.638789765999591 -0.4184601521254019 -0.12495947029323638
Ni 2.849562851153982 8.339348537300372 4.037142180516945 0.45882750019885504 -0.4022305776404169 0.9482470142519541
Ni 8.67504694159551 4.422210770658562 3.0545938502897267 -1.7016391187711146 -0.27377003617245754 1.8113588892964612
Ni 7.920298711625938 4.276318048743449 5.9977754352213895 1.492605603545094 -1.2212506045720322 0.7292509884965828
Ni 7.383072175715087 2.809615924381585 10.89601471560352 -0.5402821052309211 -0.17037466520324207 -0.6115605410609337
Ni 4.649642926531681 1.4629579666801187 7.173340178601152 -1.0231630468345538 -0.8816258746882946 -0.506053008844722
Ni 3.213633650326345 4.528600317822818 1.7528953682373054 -0.5876947901869298 -1.2246817417407683 -0.729517354784092
Ni 8.589744860288194 0.08223094752490628 0.5914548819098152 0.23977568150488382 -0.2533765601177701 -0.13408560096422067
Ni 6.433008342431367 6.437307190140037 10.870996346422437 -0.9391481372744793 0.07101001265997449 0.29679272231987597
Ni 2.2740904378866387 5.945398829428977 7.4242274022628045 -0.068451765014495 0.7664905895743315 1.568339504043299
Ni 6.1044469498159994 0.691762252928836 0.91301423741863 0.9601987872971913 0.07727990482908625 0.7481743077636469
Ni 3.8530525788643835 8.075787571006858 8.013558745852874 1.5385638154427632 -1.0306364723934636 1.478069614712448
Ni 3.960884320098645 4.669731950340155 4.088071969822462 -1.1546011828735987 1.2764187651037437 0.39256425819524654
Ni 3.024012864621961 4.299688988544564 12.735884555579322 0.4715616599360717 -0.7787406105862782 0.13610237428393335
Ni 6.93826624312376 1.3004985026275062 8.174128565880427 0.5839633481689556 0.022147482631316696 -0.2850978024804509
Ni 1.169998428959568 8.278998262370909 12.555209071042484 -0.46733425211828544 -0.12131596000337816 -0.13633994421603615
Ni 6.000886321789062 4.721290388342854 12.480857495350051 0.44859245273440806 0.02917276490921427 -1.1642590176783367
Ni 1.0204355080329666 2.334828995834949 6.578461010258452 1.4059373155225723 0.7841083026560948 -0.11789664990918404
Ni 7.952147164005227 3.240656299471385 13.22748413884206 -0.9080105353294103 1.0234695223313792 -0.7594557942147372
Ni 5.179094557231796 1.978080105017999 9.529719806465524 -0.7106032914884085 0.6599854693315408 1.296374382290064
Ni 7.42481260024121 5.165772751751809 0.9317368747941124 0.9501642858793249 0.8812535789505405 0.2882877701726584
Ni 9.286065740754976 1.5850175071050117 12.225870187906043 -0.2106106299051534 -1.155757922185861 -0.4345665707689612
P 3.888192192070096 2.6252554490992086 11.531499042883903 0.24881593733028115 -0.5725119117989044 -0.40322970832889266
P 6.890128393620434 5.493391171321402 7.38042815325341 -1.9823914997986762 -0.5131945049855097 1.893950179036132
P 0.28322657671476975 9.202742053877028 10.761342448449726 1.108780010774426 -0.36993417950055646 -0.44668340863715333
P 5.660473052265059 8.910170799175326 9.233950763758598 -1.1922909841148885 0.6876127441305061 -1.1982533723459106
P 3.3668945047657814 6.803615239087664 9.838518517904925 -0.7813934748280931 -0.10685633293462242 -1.5584456419683546
P 7.132019469528736 3.139638000734522 2.1470590258537396 -1.2068431708974505 0.41854525564004047 -0.2582935378034132
P 1.0879875084786754 7.750896377402978 6.170102834853002 -0.21919657180195154 -1.003616235050878 1.3361987133758537
P 6.672347844215813 1.68083096442256 12.556359128364976 -0.6379071493752627 -1.5774280966081284 -0.01743670741920868
