# total energy = -340864.9772198604 ev
CRYSTAL
PRIMVEC
9.33028192232034 0.00000000000000 0.00000000000000
0.00000000000000 9.33028192232034 0.00000000000000
0.00000000000000 0.00000000000000 13.65581071266602
PRIMCOORD
 96 1
Ni 8.007723525026227 1.5045172404506424 13.18928702180298 1.0679380370573994 0.1455061840963365 1.8331657007589073
Ni 2.2012560199351214 1.3991037187818691 0.6352970090035792 0.22385901027462735 2.0816589646424473 -0.2011787950682922
Ni 8.21935297258253 4.3772083161345625 3.5728792602808923 0.1958715239227659 0.2234175518618346 -0.2687710402959694
Ni 8.242986575909404 6.510726491556028 10.299211765416876 0.23595013711120655 -0.6479519352057744 0.3997852014237179
Ni 0.013748169957420554 2.4580160396556887 9.973820993232245 1.1253903656375972 0.05810950254822251 -0.7397050939503712
Ni 7.073622381295547 0.4457168829561841 3.0733490450909664 0.7157691519600641 -1.167388564446254 -0.4686938514699734
Ni 9.16628325353171 7.007657290288446 0.4301362456898817 -0.039010319824926365 -0.25468807984034203 0.08474458863724761
Ni 1.9452144318987896 5.930756186463892 3.903786094955396 -0.5579388990807359 0.6932928252344189 -0.043516692335712155
Ni 6.993792491810858 3.798600232157991 9.053678883823448 0.5399234363399217 -0.6828045241085854 -1.3798691576806106
Ni 8.551483007176559 2.318770916856541 7.561577449115825 -0.8392098716159289 0.3871729119763461 0.24299213155965246
Ni 4.758788843279882 7.165525655188042 0.035983164070436446 -0.11365073014863654 0.36253120216826595 -0.08351071623014651
Ni 7.322311707420479 1.9240813440443225 4.83851330058234 -0.4500541248815991 2.4413393276254793 0.02014407904804273
Ni 1.054247180067094 8.036535434648565 2.258738951927434 0.16759735956842103 -0.13942372534768244 1.201887626664388
Ni 7.443941258533431 3.6212129181230543 0.773987913074888 1.7329340722296542 -0.492454701334997 1.9652059891583251
Ni 8.72366402407119 5.82437231550732 7.817637697715384 0.5296233399654944 -1.1931150226780807 -1.1860779133256412
Ni 7.4566677626541775 2.646590361345154 11.278361374833622 -1.13352173649548 -0.3034454517497032 -0.3252754031406011
Ni 7.022343153548018 5.751708082301761 5.342672268480699 0.17140696312249837 -3.305513068275598 0.2765565977786592
Ni 7.281323780292587 7.373796201363503 1.7757196030806714 -1.7891041916633186 0.5676111320631773 -0.4007100272308325
Ni 2.478365383854626 1.4153290785076609 3.1814758126529314 -1.472527087627664 -0.23668007329869564 -0.08834953237968655
Ni 8.99932719434061 0.2545730017103745 1.5755113532473939 -0.7474315160603514 1.0543518137325325 -0.8657896789869863
Ni 3.4616464419698096 0.07145316265213307 7.32632839365507 -0.30413116496281817 1.7257100436773893 0.10819176391659431
Ni 1.461737899252968 8.83144743726978 13.48680637675191 -0.4813809600193388 -1.5861906732921067 0.012532071028739707
Ni 2.3128928394400665 3.1988030786372716 10.43973047165626 0.05977763427926479 0.7387866959011599 2.0061734327096223
Ni 3.3091803101244013 8.680016966683464 1.5081747108431154 -0.526467567945332 1.6205820062877832 -0.3937330816923671
P 3.7102424652786072 0.745313158592268 5.004786383159334 -1.035345704943675 2.1504017785347997 1.552082161644172
P 4.689240924133216 8.289628653695047 11.609691804293378 0.9246422303488205 0.1632820200225188 1.4498764401076836
P 3.940159264797275 4.920538605330675 3.10640996496007 -0.6946452254972553 -0.13140831124237368 -0.4541702039325017
P 6.810480448951379 2.7725958145348146 2.9822920277408107 0.727194105967554 1.6280965694972735 1.095895184391958
P 5.5666326162173405 9.08918713655976 1.458099089423722 0.41861981763171774 -1.3977781767505475 -1.1818677318990354
P 8.645653539501122 8.684234253972745 12.799795348877614 -0.9589366327553163 0.66097174450421 -0.1838827269920059
P 8.713587319928662 4.386137395638635 10.71006045295543 -0.13146564684287038 0.18805691297435354 -0.8078431843791893
P 1.6905630558228621 1.3117256314718972 11.639898591016927 -0.6727551102923833 -0.250273238602098 -0.013665156191918403
Ni 4.676673034799897 0.6292892406726779 3.1735833274361127 0.16777990789287234 0.6877114744918994 -0.2863486441684165
Ni 6.9205871022717185 7.171702301616148 12.483636890349494 0.7394423272072879 0.26305444952716633 0.34093522116504504
Ni 3.0388540609378754 0.989541677077809 9.832702349885114 -0.7290172752192219 -0.29654923885050216 0.21742328195161262
Ni 0.8840544461842895 3.915592633309058 8.34595369773913 -0.069319512331429 0.9539085834131055 0.04379719969060845
Ni 4.120392314724314 5.675153121663392 11.446095579511283 -1.2025118905119485 1.2312761071288343 -0.18009446359416725
Ni 5.750579118226533 3.250819398632263 12.91009420599919 -0.4026200997693517 -0.22725980842606022 0.4191147549902653
Ni 5.902429451485454 1.999880551872001 1.4049640686632778 0.43528236588906327 -2.0308146282970703 -1.9605854596671783
Ni 2.6507423366631397 6.532484708278596 1.6620898354230926 -0.5360814368860123 -1.3598222663320645 -0.4646942433922771
Ni 7.758175812992859 7.502096903830073 6.256723570052235 1.1432734165656053 3.103386050361423 0.6712733835405342
Ni 4.921630248279449 2.078992009672455 11.108086534472621 -0.528982878168018 0.04975881659068204 -0.31910578399477946
Ni 2.260018133536638 4.5326228169698215 12.600693670443691 0.1918310353048051 0.8733006426520509 -0.7598409454682978
Ni 7.018592380339411 0.7842960082014291 9.386716754818464 0.14426665526228058 0.41644954945327634 -0.43017255546632366
Ni 6.2583330436305555 4.911870773711779 11.039725427147184 1.348980438521554 0.31491102918714153 0.8598568584423191
Ni 2.997791491557076 2.771821401160898 8.338893473642232 1.5209368463896191 -0.49625659157959046 -1.4687848469764122
Ni 6.265545351317753 6.098878530856672 8.543033504147417 -0.5202133595055041 -1.3187391231385095 -1.8140606044983403
Ni 4.264993019169584 6.07976078383071 4.93287510367998 1.5886795011522317 -0.06355612748509054 0.4229978920947554
Ni 8.782230201758825 0.4531288586699098 10.725642023249895 0.825415646045314 -1.9633943898708832 2.1649711917085424
Ni 6.158433718395331 7.515429876255695 10.207117220751304 -0.2474823061205222 1.4600788345619822 1.1723397378039422
Ni 1.7548393658579284 8.42613067369984 11.187317419877726 0.23583315191736806 0.0342226686282959 -0.38923750781485866
Ni 4.515520410772366 7.332360420718166 2.9192295873436542 1.4293796057059125 -0.36146239458411944 0.2947270980400989
Ni 3.2881405250860682 3.301342873569102 4.572989347342258 -0.22350188404552476 -0.05648893622566401 0.9798093624392674
Ni 4.759031430601833 4.43467352059181 7.012272047574459 0.06330210249275549 0.09917876178470661 0.7849279703439128
Ni 5.186115741175954 1.9440388164154947 6.705057597000992 -0.7240956695478885 0.006665327835317553 0.03404269140700589
Ni 2.51000436880584 8.45089324110194 4.202274866163964 0.2963049840501801 -1.2530844612531775 -0.5786005411951455
P 7.296093616086681 4.153160263750756 6.7028043339913435 -1.2325243777136385 -1.3945964365884562 1.6118220007069664
P 7.896711834389384 7.677506198162958 8.453329377631212 -0.48772618551107616 1.874366343366933 0.3255577102677103
P 6.175685409098603 5.299571965595522 13.454086945189857 -2.4896112752579898 1.1617005129225413 1.5503273837365945
P 1.14509613213727 1.285339595069057 8.307198507001337 1.6931303099691548 1.3907199843521854 1.2298483735433723
P 0.48167298920994156 2.2993919219454027 1.4505471594857946 -0.6959248635406273 1.0711115496893746 0.5349961742416335
P 3.7384479065960705 7.378890535124447 7.079758907512714 0.944206268523677 -1.598349420141828 -0.008735065880152697
P 4.882825607049105 4.569244172302618 9.54330873719334 -1.2593826355570634 0.013890641939163173 -1.49238140334943
P 3.6014793725106045 2.996625206355395 12.758350237950664 0.5197022241970405 -1.1261359855543702 0.6491600965812626
Ni 1.7205879020549486 3.9303438085399245 2.714843237403873 -0.19062750191500719 -1.449869241018832 0.21154625434554536
Ni 7.1394848392049 0.6921594772685972 6.559431494606405 -0.9015125863098925 -1.89967705421758 2.228509321471504
Ni 4.3399245108072115 0.9153668712790323 13.573738476600758 0.6575871443026933 0.015685529056056854 -1.0005535369651541
Ni 0.8963890784772721 4.764331030558272 0.754850572457538 -1.4004397827431108 -0.10728236472844749 -0.39913908319928676
Ni 5.735790621869213 3.6753565423259125 4.844903610459393 -0.07237218311482375 0.6677442873413533 -0.37873609406290254
Ni 3.8540874169131865 8.218737173996043 9.724820968729585 -0.6458305179873974 -1.575779248150796 -1.475622438723536
Ni 3.9685046603389402 4.840466128524035 0.8287790588217196 1.0516053613356469 -0.285361854775115 -1.3068243739787946
Ni 1.5412878802892542 7.770837005142312 6.923072689293542 0.4371402450334085 -0.8065542903644366 -0.8706732323315327
Ni 1.65216894698351 0.7600932576961363 5.653000234028576 -0.5574609310030528 1.0605139766791865 -0.2524180528592427
Ni 5.095472055301274 8.57422090346854 5.304244570627539 1.1333083349330935 -1.2746609018723727 0.69397082513805
Ni 2.7622578625071106 5.6275127037451105 8.509850357589178 1.482516594740208 -0.3907410889435787 0.08478804028067333
Ni 6.383256184153055 0.3638436617981486 12.285531685991886 -0.7878371735709077 -1.214469577094457 -1.2613690698594728
Ni 2.46129096850201 5.634790323403602 6.2273229196600886 -1.0966364334333565 -0.5095427671655354 -0.03780858620734134
Ni 9.305976229848302 3.8925934891319 5.939758975192711 0.6691547945356348 1.6121009653999654 -0.48959614884027935
Ni 8.465224553660201 7.364979085238792 3.7674333594564184 1.471350807931376 0.9977011551180238 1.4036341213106922
Ni 0.8162270309671437 7.520281622694689 9.156098318122464 -0.5829310502496993 1.3368476598137622 -0.8436391110318762
Ni 0.13959314230332956 2.3494302222383423 4.159573899331842 1.3829763358510248 -1.0406843435477688 -1.2476275519036641
Ni 6.068088601532282 4.94445211710595 2.3335594132138615 -0.6092851147631959 0.20323927714174678 0.1683913162246261
Ni 0.018336802454915924 0.1130484911130605 7.1119866332337365 -1.8517082396477853 -1.6202071394468678 0.6257671715786192
Ni 5.791734990423468 8.565851640861274 7.946234170109101 -0.4637766166740142 -0.5578545668970456 -0.18947744747096398
Ni 0.36419634644313703 3.0646149684726143 12.51302354531922 0.5347516623309951 -0.6068579933789419 0.03942529587515791
Ni 0.6136796795333738 6.225723709391542 12.05032368377023 0.01778123524282099 0.0005700135708570828 -0.5300378017950936
Ni 7.976830962604091 4.84396498412908 12.65587762104645 2.8528320472941124 0.8815505413656689 -0.374509971796697
Ni 3.9701654504661343 2.857967891297894 2.04751163950867 -1.0589761998784215 0.3972261824472901 0.6314629364118157
P 1.8490098981824927 6.130237607359482 10.273743828724799 0.6873078112955775 -0.20170407144414293 1.5835385803812405
P 0.3972096818760119 6.442624766059446 5.463280153756978 -0.0028469825304918714 -0.46525962897744383 1.0334669998637234
P 2.526397673600674 6.732983129870052 13.09272700435721 0.3101380332785304 0.034339910932450535 0.6166125016625446
P 8.563957593693743 0.20998825102049726 4.990024011590531 1.194427056621285 -0.5143898108451915 -0.7120215119921737
P 5.120785109318567 1.6130004247702412 9.026107901655699 -1.1297771818513833 -0.4720676530382128 -1.8355907652606323
P 6.412282690252502 7.093887752959963 4.027521490628504 -2.6175164584431116 1.720723131985759 -1.8286500722767411
P 0.080276809973974 5.959484123551708 2.4325779598647754 0.7474842236751578 -0.43358080981692426 -0.6876022026075448
P 2.0987442158481313 3.5126737521137747 6.556809685473025 0.5115009193331708 -0.06264338586283405 -0.9171258673671172
