# total energy = -340861.7769499575 ev
CRYSTAL
PRIMVEC
9.33956478267705 0.00000000000000 0.00000000000000
0.00000000000000 9.33956478267705 0.00000000000000
0.00000000000000 0.00000000000000 13.66939711712628
PRIMCOORD
 96 1
Ni 0.013294870733681095 6.432074338215362 0.16713618490663157 0.4794102094462131 0.94287649396866 1.3748395656765031
Ni 3.920842769727194 0.5827767126447113 7.237891069802949 0.35417588822503515 0.4528604839821426 -0.46903915062453416
Ni 3.9165465698413535 3.490793161154605 0.8664333101073002 0.17931490511566536 0.1709819597699378 1.6214207001389946
Ni 8.070813086844199 1.1738712418510076 3.142362010848008 0.17340830982324326 -1.1806575136410182 0.05691162558537941
Ni 7.267946723830388 0.40806707450454127 0.8003446804721235 1.2428627835251693 -1.0124857696263658 0.9156783362873133
Ni 0.7779026398075908 1.8618702953084139 12.7857252833407 -0.3362301023798919 -0.5571786238759436 -0.7321789607766551
Ni 7.817225218800006 3.995372498181549 7.452118275240872 -0.5723447900934208 0.14613276193674188 0.03546451145519699
Ni 6.280241030510792 9.211248686105408 5.496149994954598 -2.0119761554343287 0.605612293897299 1.3178230390821433
Ni 7.371812025853055 7.917737616998726 9.337579377705032 0.4631852629469184 -0.13848732957634213 0.5321149960390964
Ni 4.175495348177877 7.474706013118924 6.656763724331801 0.8388692004470585 0.24877634234159735 -0.25654595898468724
Ni 5.187866832581176 0.3805657914961834 2.2312145994940824 -0.35449650478924755 -0.8069651526496102 0.37772873584431077
Ni 0.4179371267640103 5.437186519434437 11.490427555455405 3.482162767854274 0.4450178480092723 2.71044101178799
Ni 5.964386282816826 1.9965841804244069 11.415696092397715 -0.2394877179508198 1.6665366186410264 -0.4920515523593074
Ni 0.13799020450719454 0.7822997069950983 10.024534267798881 0.9793743317843779 -1.6123701599009521 1.3475125957267762
Ni 5.387443996408385 4.620124017667415 2.8696579212248206 -0.9266078387156235 -1.515649886959067 -0.039720715628389656
Ni 2.6044777851408343 5.806005940068836 0.94118625416442 -0.542615381349788 -1.103807240150183 -0.3517816769612458
Ni 8.94592098489491 1.8789990574619588 7.82049500049573 0.9554743852383287 0.8259038985356422 0.3896504269825612
Ni 4.203794230034607 2.866564657307016 9.851425431094432 1.146973748235328 -0.5976349321187772 -0.9445312559632636
Ni 6.291429829343915 6.435688749858448 10.972561753303253 0.11039828464960988 -0.3256304724871747 0.6294307364731354
Ni 6.514309207769321 2.2920599973555404 4.331312914298314 1.5147571999414686 -0.262542028667122 -0.20851878037313124
Ni 8.107807103687271 3.289123934774292 2.254015279453433 -0.34509038098399925 -0.3040712582591602 -0.42151076602626764
Ni 2.5416411920279396 3.396370159315816 8.085338912240823 -0.35674030651810174 0.23449257872907356 1.2332985368755018
Ni 6.258862766296254 4.200385288820843 10.243435925503896 -0.5904983210739959 -0.37260041347880996 -0.9866916913813973
Ni 5.46568153215552 6.047097470184216 4.654484277189166 1.3761654835767785 1.0488928475004904 0.8203816831658324
P 1.8401931650148602 1.2100153582818793 8.761072315024157 0.853842019706807 -0.449350156836039 -2.1424357296101877
P 8.477317652129392 2.676878092782209 5.007811227452627 1.4192399461687495 0.34834076960049687 0.4300848808485238
P 7.735093084460708 1.6365252717311343 9.7130224178156 -3.3463583844267335 1.7406869767021955 -0.47771765223513857
P 8.324036711854594 2.238749760511247 0.3161283969475643 1.7159318812447026 0.0035491508038390488 1.3654126159356486
P 8.48390204543269 0.16952524562575738 5.684555171165628 0.8166137314829678 -0.8796417543787302 -1.0299494736287682
P 5.100710012288438 8.014570226599572 4.096554543188561 -1.2502058541538015 0.8616085510261032 -0.8071937237206486
P 4.43875900553018 5.234882202636217 11.162088611267084 0.5265218182220351 -1.0409334834440978 -0.07262055168020395
P 5.574253974922673 3.7175391194772676 7.901226200089646 -0.1977944519770916 0.5224872431413453 0.6559917747911154
Ni 2.547469080568731 4.373998462033626 10.689960526682183 -1.7760614995467474 0.44523227801292353 -0.82450007620958
Ni 0.5507261275398476 7.78101572541435 10.38432699889053 -0.6038392611572762 -1.4199300302572384 -1.0968225813022336
Ni 5.406860951979388 3.9603024317221376 5.330531489355464 0.23895781358927878 0.7440669704634927 1.2220106226665082
Ni 8.370416991491728 5.811021286457306 10.065119347372613 -3.789416537606474 0.2941041197441193 -1.1491329606701757
Ni 4.053557987939774 6.783503488877077 12.584375470082334 1.3539074435095264 -0.34598795309760416 3.102854089117353
Ni 4.525943844517825 2.357063369541294 3.5211271342181267 -3.520988225361904 0.8501008074968198 -1.591093767020679
Ni 0.7511615973877271 1.1511107220210246 1.5883153713165306 0.06871478886789456 -0.010780635555271756 -0.9603047167474364
Ni 1.7351323986761327 1.6783198249683826 6.636916214815717 -0.17332552030144988 -0.8564971979414668 -0.6298953348143798
Ni 2.0838810941916828 8.39925756811667 0.8464578485511378 0.35587770140749037 0.16888034004590272 0.09835857987625642
Ni 6.5507054924543615 3.1972039363472535 13.386700138327932 -0.6703894382736841 1.4171324129074434 0.25991950344261044
Ni 7.599940239791162 4.673854534935322 4.154553241647402 0.5065991111561792 0.30989095026473085 1.1789063352778666
Ni 3.939970198784151 5.0023737327275475 6.834876699946754 -0.2230401139177578 0.40532798561881805 -0.9334305180644118
Ni 2.4750874520572954 7.1951354753303685 8.317965060668106 -0.5637020268167582 -0.4016232830737212 -0.37094847969768374
Ni 5.75176174672762 0.5842990617346937 9.77136387830881 0.6133824247610211 -1.1400988754923655 -2.4647700478445937
Ni 7.090989986358624 6.369891514650311 2.5487822234034034 0.5633780678184362 -0.8429528835981289 -1.2079772845018937
Ni 5.376880948428201 8.400677181991993 11.737350709937564 1.3648346319449913 0.9937277722925726 0.29056911000766733
Ni 0.7855358662569322 4.231831604072197 6.654385871090638 -1.1853235516581198 0.5482820927172621 0.2064762960218057
Ni 8.367316255921947 3.4910266502788354 10.918253116963749 0.5719254431678151 -1.1607893139621812 0.3233771576766237
Ni 4.284105149204907 5.493307965334465 8.956940737602089 -1.0687667036062818 0.18796255348833435 2.070864959350737
Ni 3.542235485005055 9.030808290900127 9.51298481343541 -0.519039650912377 -0.7710542976856141 -1.6047604658744943
Ni 7.05761972072361 7.436348419790349 13.280940772529506 0.7046964390856703 1.356500143937367 0.36960404985464734
Ni 9.171228650212312 4.179576738069426 13.368096658865747 -0.3453081534217602 -1.3918548692875772 0.4402597644989966
Ni 1.8669696977816066 8.177667049657018 5.106818087778307 -1.052531215584026 0.4629538636624027 2.0689227480227013
Ni 0.30639937211913043 8.616598584515332 12.839323178786044 -0.9468503910147434 0.45168291873427374 0.5142167756024371
P 0.5054021527007321 4.396488134479502 9.445676436615253 0.8348521088678654 -0.5052400260251233 -0.8137700913865856
P 7.517275750248618 5.535793646379435 12.729749534654191 -0.12695721744955552 -2.3278456918799972 -0.8961235540838374
P 8.032558228730284 8.485975428855856 11.319067085313197 -0.364016785574857 -0.23037418568532583 0.44280927039372775
P 2.944045688291644 4.568597637732242 3.0058044956070917 3.0837942442724247 0.09477729028290129 -1.72578769099286
P 1.9677155851045558 6.9963148162656665 12.616157075716083 -2.000965149035806 0.1033074392410995 0.3982461390713722
P 9.01178359705783 5.186577972615424 2.106591180370832 0.47198357796483875 1.8167366086686068 0.5782634695707008
P 5.324215141566782 7.905558824278865 8.60036081685985 -0.8640577838975441 0.22006817577362747 -0.9109004552826956
P 9.105085851100315 8.416778591998924 1.505383770215867 -0.5056696573633743 -0.3160353725995719 -1.4480967224994414
Ni 7.611502621223052 0.03951569938475919 7.6249403873007635 0.05632207163049655 -2.5188349480097973 1.524767532989619
Ni 9.08566889552931 7.250986073846288 5.220424556063868 -0.2035969175914816 -0.5289047166319149 0.8238051070250845
Ni 1.2020954071879828 3.6360794338157523 1.7251325264635913 0.9981210162642615 0.17525307634146595 0.44335125894012684
Ni 5.453932359424244 5.670068571941876 0.8655694003476476 0.17653939925305723 0.42082839524726234 -1.799373691910127
Ni 0.4217700842273771 8.935096429095585 3.413699722116199 -1.0558741639143299 1.7582059594225659 2.253620514716835
Ni 1.299413674167229 4.733254168139546 4.0724276450035815 -3.0210827241758165 0.6952797737574606 0.8233808750034722
Ni 3.1043966792481394 0.6014399653226985 4.624479990769058 2.146184140909026 0.24626437455302108 3.631989690813152
Ni 2.847082324781228 1.2074843361752214 -0.1713305835343071 0.7906787567847608 0.0650656221510815 0.10594924773932075
Ni 1.9991058629660954 2.059028511808595 10.630868165165449 1.0777123428353441 0.8818194787563394 1.040596154709337
Ni 8.945631458380864 6.274011540676324 8.01885148318146 0.9480508390807479 0.37204376964439156 -2.0050616877026823
Ni 6.741643558685043 1.719563343872447 6.7351030613371 -1.682894748284076 4.119558524810757 -0.5164726615161492
Ni 7.9955081744974 1.2153482498793025 12.210941370396645 -0.8295924031308228 -1.329103239981653 -1.7402691724384867
Ni 1.289149492266059 7.151118105630446 2.746291607546427 0.7107115349314986 -3.691267245527546 -0.5522372207102682
Ni 6.3538835002930725 5.898159427620104 8.190046643023715 1.295208644116737 0.44689269643448193 -1.054200632866649
Ni 0.7002385533495658 8.84982620092663 7.8238712532321015 0.1661392869656558 -0.18170783082787414 -0.3677772810585537
Ni 3.976515916508699 3.2171719262514404 12.24814926327751 0.26781818946439684 -0.02300211732212813 -0.43390271193271723
Ni 5.329716145333651 0.9754241653850745 13.361316134698095 -1.5486199141271846 0.5477452463771857 0.1514387475306876
Ni 2.614116216189067 3.551584389539242 5.5845779300396465 1.933689920827915 -1.0116797287853028 -1.281716266057257
Ni 4.047468591579844 7.223583790226605 2.051817433695862 0.8716631070486279 1.219480657155803 0.5493645271481635
Ni 2.084637598954189 9.097025806531878 11.37523522903807 0.2571409122562088 0.5303738449782737 1.3896478343339291
Ni 1.2307958903383882 1.8454139818326525 3.9168697187892882 -0.6309715985976939 1.3546378939176478 0.6954186133281701
Ni 3.194439425116365 6.711747611218579 4.377843560931453 1.079493860215799 -2.1391426606812125 -0.7824411993663171
Ni 2.886719438510587 6.850440151011458 10.668513149686873 -0.6741938996214388 -0.055351223076795 -1.3967469072725558
Ni 7.307387706695393 8.088315431596513 3.9303345696054093 0.9988686930635635 0.32201987231778095 -0.9267469353966491
P 4.723802528390698 2.08642145586331 5.699851510672213 -1.3303995901955732 -2.6099730988782146 0.5225697755528226
P 5.313848224450951 8.27382721058008 0.4815965355506936 -0.8488628213246606 -0.5035137873626361 0.5389749563837234
P 1.4149627719663878 6.37479478625915 6.572629187263103 0.3615894070802869 0.36345937040949017 -0.498975018952018
P 1.996845688243545 3.469321501290374 13.294418698736584 1.523883330612453 0.7612062012469406 -0.24732572593799987
P 4.0358501727581375 0.5766592975898738 11.313449336984213 0.5064121919563537 3.1043250172359245 1.7655963383493658
P 7.641435926949395 5.843569670375029 6.173578528779844 -0.5137136107137733 -0.42869288559700364 -0.14465592028089927
P 2.78786014331142 0.690007059925788 2.721905069455303 -0.74772050805568 0.4472122845574298 -4.105907252575909
P 6.0871361852072505 2.4240280503705836 1.8517658199682174 -1.0695953701551644 -0.06491958349152045 0.27429634098957273
