# total energy = -340890.5388813336 ev
CRYSTAL
PRIMVEC
9.08260617442265 0.00000000000000 0.00000000000000

0.00000000000000 9.08260617442265 0.00000000000000

0.00000000000000 0.00000000000000 13.29331222016712

PRIMCOORD
 96 1
Ni 6.420376137232997 2.0166836803604253 11.589361713122246 0.16574487974071456 -0.6938263291403858 -0.24198683022358966
Ni 4.883444790618677 0.4504918101211004 5.937032541057871 -0.6146255531395027 -0.2853669969814375 -0.04976498723826913
Ni 2.8803668541092144 1.499220366327807 4.911546373712721 -0.6334624833403477 -0.33396316072258614 -0.24754246993449627
Ni 3.2693294578591816 4.012913331914198 4.552467360362243 0.10062500731292993 0.10937112893667617 -0.659993953971973
Ni 4.821446921775776 4.660984520831218 2.487950135281463 1.0377622848049675 -0.78071958868952 -0.8348562226329235
Ni 7.196039775828465 6.185100310320231 2.770020456783374 0.28062896807581994 -0.10255976244179756 -0.939959063211549
Ni 4.942345490801247 4.806605943503097 11.4365950042771 -0.3618228632473317 -0.7260036852038787 -0.030059538389541778
Ni 5.61010776961739 7.8441018821394435 12.574729101319141 -1.1616832865313607 0.49772083482994284 -0.0744933432228846
Ni 1.9347222434371398 6.384772321548236 0.3118367462834588 -2.278183034547548 1.0804048020658423 -0.07168235613665075
Ni 2.850403336776555 1.628238785154854 0.21870279566787124 0.35375037065184234 1.1542294013564767 0.9573731449229382
Ni 0.6631110762620194 0.1850054189913329 4.738507288181763 -0.236628908345786 -1.3896259799570583 0.5319486456645613
Ni 8.605805555248311 2.2684535198455182 0.9995934740405287 -0.011548366959231724 0.567038804499475 1.3702830566540722
Ni 7.210126897799654 0.5625475539040506 5.1526741236983655 0.03390050940218678 0.0013176903701590209 -1.4547188558016495
Ni 0.6491601933814602 7.419644453977221 2.7429415751296635 0.42661800534584593 -0.18105245663206238 -0.6246875653611951
Ni 7.1301636342056165 3.993739950559471 3.825416554085536 1.3570161643418372 -0.8234181559993109 -0.2557280910690822
Ni 7.381670078115489 4.035865077382409 12.506241710459209 1.2779920231281345 -0.20758469859463602 0.6025796777185622
Ni 8.002375375027873 8.716122888234816 7.208178678803638 -0.17087165944431862 0.3594106542614133 -0.24527964204224856
Ni 7.018166019101334 0.46539545837546864 0.4230087524985195 0.2974599235902297 1.6548105884533502 -0.693836870663347
Ni 1.9400900636079799 6.6070963522450645 9.229241083536929 -0.08815824230448689 -0.21581865646865414 0.11473830678586046
Ni -0.1320047796936666 4.79923995000301 1.1155838027608866 0.008576171704785229 0.5023516487337348 0.9240897002794601
Ni 6.700520037993393 2.0064657485631407 6.962731241384404 0.32055562906742857 0.08957286326382638 0.8231119376128019
Ni 3.0990669249952725 4.3415765141511224 0.4800902066908702 0.5575316363399881 -1.0969339100691173 -0.5052174003173041
Ni 5.842377253930242 5.603731780175885 4.993778472296059 0.34625817603985526 0.052395482882580724 -0.15828765213172094
Ni 5.491525265132637 2.5210498764804354 9.186915231120459 0.04206787570432755 2.1879892498702707 0.5142342591039337
P 0.06328759890087032 5.678036580205738 12.435228446858988 0.6156269978208236 -0.03628186515016977 -1.4342287062680976
P 3.870552564811407 6.135563776966996 12.624697966719976 0.6835246901040616 1.610525907603362 2.0859092552783687
P 2.3184441835008553 8.531437176976164 1.5472746183749835 0.017432079433518363 0.0981012124498117 1.308612576227469
P 6.317025163080729 7.867344271001 6.030284565552004 1.0775938149796087 -1.341124689922561 -1.0157371866841283
P 4.941101173773489 1.0701217264781058 13.091253273887013 -0.07249996694193965 0.7456867654551028 -1.739685789131191
P 3.916828442595554 6.148034195062704 8.177779571172174 0.6500995776763966 1.755861370449789 -1.1621951931707726
P 4.8133270719742 1.3607742024291323 3.808401199926395 0.06771385840720597 -1.6022014468980665 -0.3725029686689972
P 9.129381463147215 5.454577223753655 3.786147906862815 -0.7898524042287235 0.6783495736610252 -0.6390764870930155
Ni 1.4982303622692257 1.1901846957477105 2.799877707625342 -0.33488258721306197 0.26374993293229415 -1.5354892902824975
Ni 1.7602907943999393 6.3738005334494625 4.6885911018959705 0.7081699994565676 -0.14356577254051403 0.7245561541240747
Ni 5.8952743515190305 5.679680531899346 9.29045693999961 -0.356284964148238 -0.1834194142023422 -0.6942875850475204
Ni 8.67677703886074 2.14018895731996 10.213850074129315 0.057090574365404906 0.5129618201494134 -0.35132247793664007
Ni 2.6702861763570427 5.112689767119534 6.532333788870693 0.5612098565225239 -0.02390071787699755 1.9259367592450574
Ni 0.7091508062890733 9.125657594669983 9.466991920596145 -0.6605110028177076 0.45706783719527083 -1.2664986777765541
Ni 1.6610179103605431 1.097024405574601 11.467860967316186 0.4728094163002438 0.7798261303409731 -0.930711576471352
Ni 3.909053731823576 7.081244718063239 1.4799180119672832 1.4795048044970778 -0.8437093021481793 0.8164854334352197
Ni 5.82138735136711 7.67278576697466 8.118105941215427 -1.777421613119068 1.356778080189102 0.002951626429156207
Ni 5.365404197632998 2.8638910067489705 5.093984139975972 0.36535170233619657 0.9813746500438583 0.10963235301786281
Ni 0.7681713968713976 7.457064790870387 6.884952344543474 0.8140030333329982 -1.0806909658476935 0.1692690908438891
Ni 5.276131262845877 4.543246698708374 7.040231302219844 -0.42581762093173764 -0.199578797571024 1.0513083989205183
Ni 8.136134914208858 7.471469804053048 9.240008512999754 0.22394051424484013 -1.4772689731880235 0.5458133194617955
Ni 4.74999406004312 0.2604192052189185 10.670807791491736 -0.6658110748743824 0.6563746120518308 -0.02053205851508077
Ni 8.23918616236174 7.153633088218223 4.899502838100988 -0.20040566434769355 0.3174721050460984 0.054471134464686835
Ni 7.378709148545788 6.115736447977243 7.108731408728236 -0.1911826030875288 0.45766073358426346 -0.5490925044336995
Ni 2.188699156190446 5.277075853874249 2.399150404269132 -0.4610972700696382 -0.15012465670495434 1.6206156877391962
Ni 2.302022831776864 5.257820729065143 11.482563889977028 -1.213870510057877 -0.1952097219690509 -1.284769193950968
Ni 0.8208441540909465 3.470309364357238 3.7863477241957404 0.15641640325093706 -0.46329299216937636 -0.4549973278194873
Ni 3.6337236122654555 2.5614583907614303 2.5301161338315907 -0.9858766516792697 0.5390497754857169 -0.9019082790864145
Ni 1.1713564534225807 3.6993454409191275 8.454426668606388 -0.10055301642441393 -0.25948807233214666 -1.4261562136726083
Ni 3.9320781381401235 2.4836477047993526 7.031151420959627 -0.027539343070849345 0.6792018943589916 -0.39035722324159866
Ni 4.186827072407002 7.078102136372696 6.131898945429037 -0.05166991757046585 -0.509262259810639 -0.1310316446292453
Ni 0.9556990555606024 7.7284258115881395 11.415405284381043 -0.2731516858621683 -1.241144258172166 0.596381005107018
P 0.19228421947341637 5.727364213620008 8.292368453780247 -0.39410023522379867 0.39608924062936945 -0.015538976175863563
P 8.706785969223608 1.5710819453323543 7.941065967722955 -0.8692593827031416 0.5125327030317947 1.107912520567808
P 1.899908614478036 3.391099957064688 10.400368655287249 0.7307381145650705 -1.2688489231762856 0.47810048949585404
P 4.011941493067701 5.996336508948707 3.80081086605707 -1.2667089940151475 1.517329331544019 0.7369786961581437
P 6.633181596797777 4.0336670867202375 10.444169522924943 1.4774265818118104 -1.1648737684442003 -0.6918352668522859
P 6.181667085236344 7.755610051471938 10.353628656334354 0.2619010526490135 0.41530309455365894 -0.6849310835332849
P 2.492321593569492 8.434671092204367 5.875497885123113 -0.8471455815232378 0.5188936122528159 -0.2439994897782443
P 6.878702603325952 4.063530695386435 1.544137486248066 -0.3022007807093247 0.6595553237726577 -0.5832786633971052
Ni 5.155768567576885 3.3236434419905256 0.06944560579736718 0.2562574812099909 -1.3300414355252062 0.6492079191000625
Ni 1.4883848173196643 0.8084790942253258 7.208829901656852 -0.6580262887226409 1.800661814593931 -1.0306778671543606
Ni 6.973525010404754 0.6052376188228036 9.232019452725185 -0.30983515732613087 -0.022275780679064862 0.12076805791970813
Ni 2.92811411407217 1.849436572702471 9.012932462821736 -0.5783524297400813 -0.8332004321970553 1.5055986733706521
Ni 6.3828195612492 2.143304291192376 2.265685141523907 0.04841284408574888 -0.6311816577259711 0.7489890903554586
Ni 4.0176453696620955 6.947494261488293 10.59039584715922 0.20856094646497628 0.3287960146993499 -0.6850105306209686
Ni 8.265743702428637 7.232179465269705 0.3386749388770555 0.4593589472222927 0.2032040530284371 0.04390338625116955
Ni 7.776672614883407 4.075256339786696 8.21928163122063 -0.49625659157959046 -1.486309229013421 0.46019018487433644
Ni 3.050365991397904 8.436823669836329 12.782263924597732 1.221076026667381 -0.32843246071234405 -1.1854155971512939
Ni -0.26035471871602006 4.627515117566334 10.345998358998443 0.8467658295863157 0.786042286454014 0.7279150432939786
Ni 8.982443062599241 2.2381630286953453 5.696848473839992 0.026542012154586545 1.0905277494324574 1.0030572772236144
Ni 4.0235490635894156 2.6490419608247326 11.08353775873249 -1.104833367421852 -0.13814460152494273 0.98882802099811
Ni 1.0299221121360778 3.286840722308217 12.39984170545863 -0.6204195341134605 0.4939567398018203 0.6098098769184143
Ni 3.077622892130038 8.512445447742277 8.017608721881565 1.9585812847529562 -1.1018593723951926 0.613418420205279
Ni 5.502933018321427 7.743639176708541 3.9932712880877017 0.34196649064303686 1.0984662875532436 -1.1917083721385413
Ni 3.0680225775436116 8.131675354642223 3.8526407574359185 0.34117227687651563 0.7653845009943463 -1.5236586161961565
Ni 3.531480716050315 4.428987514699626 9.146795543711603 0.0013431442914557514 -1.8063130993424374 1.0181810202389303
Ni 7.041145012387672 6.167053172114716 11.367123967182817 1.6627614678693103 -0.25231263762962997 1.0480634096206596
Ni 0.8316815196202977 9.167982538825848 0.17441510034632504 -1.460858393040484 -0.22610898265106866 0.6962231115073364
Ni 4.661611220648118 0.37189366221517883 1.830209603972096 -0.1669144745687835 -1.0350232886072497 0.28881124677629616
Ni 5.950859900496258 5.68283219619593 0.37672015906591394 -0.18116661361242348 0.670469142471684 0.5982301425006149
Ni 7.794102135878064 8.77758488332124 11.48187270365723 0.5973022313697068 -0.020086743447546053 -0.21479535741046235
Ni 0.2979294599119013 4.967867613779354 6.200093876374416 -0.48815478840806253 -0.8981192443576275 -0.5652125499240137
Ni 7.844819408016765 8.80442398417544 2.661600480199049 -0.04311791423539671 0.6013779441009772 0.5156432236363184
P 8.307223964222592 1.6694102383433793 3.5937537878562904 0.5047525448657436 0.4729081466616371 -0.5225348085498291
P 1.4458963862550445 3.296005071804626 1.4888507550096204 1.3805978083165191 -1.0558340547050138 0.5556267060077915
P 4.933162976092754 0.8380375273285108 8.161096640394172 -0.15007349175204476 -0.8605549129506083 -0.35271113075405064
P 8.64511507419822 1.546767808957838 12.330397916182472 -0.5618348917010324 -0.30021743173070875 -0.7068988460536277
P 6.444354217183958 7.793493601273249 1.3320431947363762 -1.6410667565046961 -1.939434536621176 1.7420298638833354
P 1.9875285149655066 3.06166475331419 6.188781490549066 -0.6844970813196598 0.4002634266117171 -0.12304451265871068
P 7.21350562724729 3.9852567965162136 6.061298032143123 -0.31644392089190015 0.24178037063973845 -0.13626152556961693
P 2.619251013006872 8.629247761442793 10.211869157751547 0.40418693003583944 0.16611280460309458 0.7384007733166509
