# total energy = -340863.0249622546 ev
CRYSTAL
PRIMVEC
9.33620537211192 0.00000000000000 0.00000000000000

0.00000000000000 9.33620537211192 0.00000000000000

0.00000000000000 0.00000000000000 13.66448028019034

PRIMCOORD
 96 1
Ni 2.6962587236166407 -0.024895924847976196 9.959301692471746 -0.3944285650974949 -0.3796624625319139 -0.4704275463316285
Ni 1.7369916455565602 4.76453627531045 9.698105479806038 -0.45981583225405326 0.244354816235134 -0.40817599659057446
Ni 6.2710823673446985 6.141906631877587 0.26644689448319114 0.5888780118617536 -3.092750682134764 -0.22213688537719808
Ni 0.17634131063379946 4.619190232396892 7.5075385776176935 -0.6938083314182568 -1.696009688399479 0.15542164343783557
Ni 9.090943111910246 0.4324035440473124 13.179500784245796 -0.6791414734347013 -0.30213264647555066 -2.3909235941770888
Ni 8.485611573858707 6.046453269676391 4.063516102686092 0.03706759427625874 -0.9862422625488046 0.7838537634431274
Ni 8.198737995967848 8.865249686846504 3.6631870916828144 0.7169513451936234 0.2526851904777003 0.21359748044761925
Ni 2.5511180772179913 3.126611103376433 2.0226981977945293 -2.7638639074938207 0.11694482751887601 1.117287791135121
Ni 2.3776513841723914 2.4131289640202533 9.933790511699568 0.44980909875032854 0.715007334093375 -0.2273667663175697
Ni 1.284549804238862 7.189961021609554 0.9627373455415147 0.6013632888129579 0.28903056187595383 -2.936586761214265
Ni 3.710002559153636 6.902966073050795 10.093349993444805 0.2775534144742897 0.8033247276835455 0.3472776184433051
Ni 9.21988544224678 0.10015134066947058 10.408698997266185 0.5822509934635391 0.9358820649286979 0.39720792761484497
Ni 4.505549942421055 4.6924047537566125 1.5947947046647615 -0.3901487067752184 -1.2895280487921918 -1.5232161293420994
Ni 3.786820855729481 2.7364790957178484 0.2527805572775857 1.194489277317788 -1.1507656111775924 -1.57111680967812
Ni 6.208156344140858 3.631951883488339 13.241851697207892 -0.4203424567497793 -0.7166785511482109 2.115423719797718
Ni 0.6806467055864609 3.441157193548625 5.344164306762212 -1.1823379866672346 -1.3671139148974714 0.411438212281614
Ni 8.394695607395949 6.5211059432198955 6.542238443742432 2.9167694693780217 -0.29035725110717736 -1.9155093932641465
Ni 1.9793782055592446 1.1643928430172863 11.89096722123823 -0.24304175385066532 1.0063503461525893 -0.2613030140536984
Ni 9.048071257525672 1.2354507009704652 7.993502063789011 -0.3846419180243763 0.7783351476177435 0.2799106018525566
Ni 2.096220813926612 1.4243688136603319 5.1830876916682165 -1.0927476399019118 -0.298988187309298 -0.31356814200600186
Ni 5.180772312772882 2.928898285366386 6.274278150392572 0.5902957181448866 -1.418151855310893 1.274915955305972
Ni 6.394945802039853 3.453210234491675 2.0333834846723917 1.9241529278717573 2.7295399374009706 -0.6656730066346213
Ni 7.4054499743644255 4.217005183795258 6.146611145689518 -0.14372929470157184 -0.008604968060191632 -0.2821978552248366
Ni 1.6716008641738163 2.6655332722273473 7.628113800833265 -0.5304157539598027 -1.1745699126860418 0.5952340359867684
P 3.0436869285846666 3.0459462902486623 4.157636254781426 -0.04238540694474636 0.7241576331340754 0.5328464748884822
P 1.244189389059307 1.9022238055953673 13.750976441296729 1.2156021480370032 3.5058500841688844 -1.3482458743483747
P 5.183059683052547 5.81612908682198 5.518291069517088 -0.3542342522667964 -0.42328791253134845 -0.2317150159839364
P 4.27054832074986 4.645406296663417 12.89327047089481 -0.2749442589862168 1.1721001109893106 0.625215155729891
P 7.69470428458718 3.672228272820886 3.9919680939587 0.8889702308685077 0.1755328123654138 0.14124355216524062
P 1.999124279606147 4.94787133727689 0.9456969037682731 -0.20543062836611073 0.7981434405929222 -0.15428650139212782
P 5.368850166992669 7.729285588733624 11.456081180222089 -0.15340692700065192 -0.3743091686398005 -0.18105194241143013
P 1.0204659032976429 9.193025179819859 3.5934026921220696 0.6231629011865526 0.024233161515751812 1.0712992402201487
Ni 5.995262856438015 8.742525269188569 2.8055231342044005 -1.617942254672091 -0.4945347237924773 0.21941383001908019
Ni 3.0172001143666707 0.4269455984738755 0.22064440527907864 -0.47821464647621514 -0.04423557277960769 0.33599587488189875
Ni 5.475086846226569 3.0074624523189546 9.07406231924632 -0.6545527283517437 0.589542642028946 -0.11492882553011174
Ni 7.694937689717759 5.653202969473284 9.460479450846625 1.3321877924442476 0.4105450110433833 0.8294512495672682
Ni 4.430738929968181 3.187091040811815 11.281216857254586 -0.5274576997727431 -0.3087450095857457 0.19821739844712313
Ni 3.3287212740465706 5.393600447039163 4.280426025875923 0.49926581071955956 -0.9839472958670408 -0.05418779889631313
Ni 3.51722859370662 7.645735888191908 12.908396990597312 1.1230673739313757 -0.1453418906043303 0.25299166597452555
Ni 6.608754237854562 1.7747005784527488 3.4772687017311372 1.527852085452214 -1.8138731710778826 1.7464112807804828
Ni 3.901898921309679 1.6290464407668277 8.128752867994807 -1.5335517069401525 -0.12906063694580353 -2.6044686241202175
Ni 6.771278898378664 7.312909508192844 4.685058093866537 -1.7188829934532268 0.0813147370200922 0.5401466080943214
Ni 4.0548259628644105 7.943710214093058 4.31104784538724 1.358329483836622 0.18869994587499117 -1.2700979650920385
Ni 1.2992076464391629 6.877627612075243 3.0432434588365687 -0.8598023510552998 0.574500660094159 3.294717006101358
Ni 7.403031897211637 0.5120357728774062 1.390483990423534 2.7759540058891354 -0.6267146230935529 0.11412381313031314
Ni 8.475099006777473 6.475591942757178 1.7798803051105365 -0.6461611618539388 1.2658713286052004 -0.771881935793232
Ni 8.731928676260326 3.18982654894219 12.758606913997548 1.178775209016641 0.49698087134012475 -0.5078021303253448
Ni 9.202043954065394 1.9711903535785669 3.584356842881387 0.043042066692138774 -0.5227867766596351 -0.2998729039070964
Ni 6.933140688331925 3.755861999209609 11.219481200216695 1.8650052138670075 -0.08797620820066783 -3.4719950832926534
Ni 4.888362365184712 0.9078264545217247 12.345940107791915 0.26834629405372495 0.03327470289272979 -0.29702489293534007
Ni 3.4847105909144873 9.275585242607924 6.294173603723046 -0.0598802212954001 1.6922548493427372 -0.9291072080987095
Ni 7.289625012366378 8.743776320688468 6.545450098339186 -0.06861451584460442 -1.5001006263705585 -0.7968391199592019
Ni 4.99949121595553 8.92176173706206 8.720889547204507 1.7363060740256808 0.5604362115812929 0.7664491948134349
Ni 2.2500814760036567 7.136361867423613 5.354112033427449 -1.3754802845842955 0.5572801824508145 1.7633494512967178
Ni 3.0482896777596658 0.400664180770788 2.5642625205516247 -1.049892235299282 -0.5344958375664473 1.4722321820950643
Ni 1.105649439753405 7.44183316611893 9.695713544027875 2.204067643489372 -0.5741885281703788 1.4560645711962665
P 6.594264447348277 1.09998236318297 7.340353283446209 -1.1295570954207772 2.4290895637238488 1.4832858688060648
P 6.917978691049575 6.927398922119704 7.752242383756756 -2.4480031127989 1.3447414607395423 2.2294238628659735
P 7.553288784072556 3.6476460444684067 8.381505416656724 0.5935011124560617 -0.3728840061574997 0.32761767812053255
P 1.0767818932035127 5.37388238160793 4.982930655130756 0.14888075699552425 1.9521365575688767 -0.7994341343798876
P 4.407071649727568 1.30595772281548 10.091395925691607 0.791332845428992 -0.46047506310460695 1.8840851133165941
P 5.361605271739526 0.611721236906243 4.896515673206064 -0.44081795099531185 -0.944655954466586 -0.3582428592055572
P 3.8916384317694677 4.760801793221201 9.627787982927055 0.4715824858716781 -0.6399195518196011 -1.133289822990332
P 1.7279448626953553 8.395946658895848 11.861957764368944 -0.7234207549680509 -0.5231161349745959 -0.3551824751126786
Ni 3.3471042621308973 6.431357002410027 2.172706741596514 0.33376518577916714 1.3631217630189427 -0.34409382139868483
Ni 3.481508272522957 5.8011351412336465 7.316946483331321 0.22275857812159702 -0.5904600116368929 0.4062741515821713
Ni 4.9588040335931645 7.662503712772633 6.655161713157133 1.9991334951437054 -1.2685565887468475 -0.11366718520886876
Ni 2.94356546377191 3.833809976617452 6.212023400344275 0.411842132588252 -0.6415573445333402 -0.9452879316236302
Ni 0.3610982766557208 4.5550318301036 2.6475199978698565 0.8132029060292059 -0.11285497372021855 0.3336559138948124
Ni 1.9651124839783147 3.907650023727121 12.221401665459128 -0.16563252253256638 -1.0018696846734165 0.8649494424738782
Ni 9.053196834193166 8.284379006479544 8.241498749510269 -0.3762369817901327 -0.6112275832015474 -1.4862210401749887
Ni 5.84992614972968 8.208419640784225 0.03198863995598172 -1.9273673210439968 2.689114482396072 -0.1662472732984298
Ni 5.863669043818115 5.0881104759334 8.374973807482627 -2.0578520920308363 1.2114048221262042 -1.7733980937819713
Ni 7.136604608759414 9.112911202800252 11.86831105202328 0.1268993676284266 -1.1972691540557703 -0.5954188983040649
Ni 0.7236959478702749 0.6312171006531657 1.5007837861705378 -0.0800222434609138 -1.9489167650799983 3.928159434837048
Ni 8.844280569915373 2.7987889293769626 1.4131532303257957 0.1137386618767525 -1.1089309345299934 -0.23629646470703172
Ni 0.30502502808565213 8.721061333380613 5.787604179003776 0.7864382363408521 0.7155081849891936 -0.2690716022555237
Ni 4.504765701182313 2.2135862497864744 2.856559500056595 -0.19647727582756486 -0.30700874362092934 -0.42212011747549233
Ni 8.106048150512697 1.437981000875643 5.664582870019747 -0.17076855820755107 0.7656547239365975 -0.13790574604125927
Ni 7.1522054076872505 8.361813492600115 9.658204405923462 -0.27580532143493147 -1.8919922839788126 -0.6287735625051106
Ni 0.07202975691690586 2.8723022093038226 10.13502681356082 -1.0828650906808772 0.5031312072122367 -0.36365965934575434
Ni 8.743001415654948 7.164165086578069 11.17201033113921 -0.66045572409974 0.8803698907940063 1.3631307618800073
Ni 2.066195577929053 6.190828347246745 11.755920879926817 -1.1444599806745388 0.2089599816756079 0.1525386654630857
Ni 6.876115146829098 1.33461053664524 9.62699533910361 1.107614272601099 -0.2177449269570895 0.4751259802485624
Ni 3.1203278372612724 7.9364186378138 8.050155090703436 -2.579943899505976 -0.8730869839793479 0.4062846931051326
Ni 5.3850764916704525 5.39451539515103 11.015702649673184 0.3533395083666689 1.696137729336911 0.9610361955968223
Ni 6.106447724440171 5.975544791006783 2.6441318889943854 0.26869185031860177 0.9295697495574249 1.0810357507816222
Ni 5.47682338039807 4.031840225605086 4.260776114742819 -0.09087666967691446 0.6539683166031834 -0.2891915129338503
P 8.052719746278227 4.697072856368172 0.7545549069942589 -1.028187496632339 -0.8394736668002768 -0.5840124562393362
P 4.1680554598104305 8.277871671439028 1.4424773173110985 0.05610224231020661 -0.328948224006498 0.05157247276065311
P 7.191912288501187 1.8073306157075588 12.072636704192863 0.060267943652122 0.8673930189183642 -0.06805838623081828
P 7.923077200549959 8.040535998462053 0.21687444560998212 1.320067869252262 -0.7583206521690296 0.11863918450216342
P 5.808389372692012 1.670975338423867 1.1345767380167249 -2.517858185918825 0.7492850243293225 -1.3037801878358322
P 1.2882842863281105 6.272118686124465 7.977187045161606 1.0519840848313045 0.9347047567911451 -0.8867138307341632
P 1.7360020078029095 0.24248832463961636 7.725706087651078 -0.6646921307785907 1.2313979774186792 -0.5577003007073685
P 9.171122442366416 5.1491225770665 10.97797504436655 1.2099382648830066 -2.4734390363735015 0.9209226154053881
