# total energy = -340887.4088230597 ev
CRYSTAL
PRIMVEC
9.08433160893283 0.00000000000000 0.00000000000000

0.00000000000000 9.08433160893283 0.00000000000000

0.00000000000000 0.00000000000000 13.29583756799009

PRIMCOORD
 96 1
Ni 6.383995925716158 2.3879437650729023 11.310556181254176 0.16842834011014865 -0.4688941404062376 0.7609213230166701
Ni 4.918320766696181 0.4591021380276543 6.187191147141334 0.8055528456831159 0.324473476064596 -2.858938674412483
Ni 2.8663973464642667 1.8967993723121346 4.962617784877629 1.0171782900060289 0.5922201888611092 -1.6875445883512614
Ni 3.875939127052524 4.74233909321867 5.303004967961476 0.5670501173533846 -0.5047913685234791 -1.6233102038522236
Ni 3.909551154301481 3.037455312166389 2.8705316258158886 -1.1862018404980152 -0.933808984449753 -0.8309046941843432
Ni 5.1593099177395105 4.869192700922571 2.121244138483627 0.16218544452423037 -0.0014259338132491571 0.5464036447476268
Ni 5.388525774914017 2.873891920107615 0.5069729322955197 -0.2266165184151065 1.1440357486529265 0.027755315736397362
Ni 6.004034668495925 8.045038722037772 12.46135114370642 1.1568940926728333 -0.36043035377517924 -0.5123565824652466
Ni 2.254285992934011 6.71041413196197 0.1127510911900406 -1.720334895408405 -0.20080675644085416 0.23301188041848903
Ni 1.1241133718487548 0.20753337429942276 -0.2130820840950073 -1.2363288390613933 -1.527898622419433 0.9064115662734067
Ni 8.149790150742561 8.812483063116652 7.05873375347657 0.11580145794305219 1.5993886600396199 -0.6580080338901959
Ni 8.8965494685658 2.76595189098002 1.035148694752949 0.6461645042880484 -0.7460662602817086 1.5255776875957403
Ni 7.345645109640496 0.9139564425575757 4.816217420678708 -0.8044344158079565 -0.4524277673200982 0.16067106476223297
Ni 0.9534732854043219 7.740650020137558 2.1659980985490286 -0.20829355173620256 -0.8052489412894518 0.43856180797128347
Ni 7.979849557838174 4.157380807106558 3.621254437554997 1.52727255879966 -0.8280996206353802 1.3217501420506914
Ni 7.901061149100282 3.9809903387030467 12.445555307765748 1.1545407619493084 -0.6493652706135333 -0.3174937023126532
Ni 8.29269577254076 7.6235893219943005 9.02098664404045 1.1136165129311206 -0.7993703710214878 0.29957722704354856
Ni 7.145962414786626 1.0990042790606154 0.3322521640564297 -0.9417855748973265 -1.3033924654791103 0.427254096267948
Ni 1.9835365712778206 6.837086053032093 8.72084668407114 0.5634078926151072 0.4249910112653842 1.890044159113506
Ni 0.24482364744921795 5.198972109893279 1.2469807748075625 0.517516015178999 0.11131359737502765 0.04466314723532953
Ni 6.619171104478586 2.2187390030353167 6.735883872718159 -0.5918463504614582 -0.3217375651906717 0.3812812290822595
Ni 3.4638920103070707 4.659744349503127 13.485968372732419 1.5237079813768533 -0.7232423204086575 -0.18847985944438506
Ni 6.16750721723781 5.899555769741803 4.741375245626478 0.24119955843560395 0.459071497888861 -0.5864472909330739
Ni 5.137280413393911 3.081586995511101 9.129161048925619 0.47747956808240344 -0.9969552780909345 0.3191957726054245
P 0.30628551035685736 5.740816157809839 12.185276486814193 0.7148124444737496 0.368477649559688 1.3991280059102227
P 4.212931495384225 6.333487041525833 12.239816088974885 0.7440420307628283 0.005354836554010133 0.547491992715799
P 2.713353610501247 8.669931730254321 1.3991605908269669 0.15504857636913297 -0.9545806697794658 -0.7680216815068773
P 6.791082997359466 7.904812978087801 5.584464816678888 -1.8339069498003062 0.9036802833851728 0.8732985857695218
P 5.074325994789784 1.0838516138035181 12.608788938584217 -0.3176142870509175 0.6707015701974643 -0.018981683308825374
P 4.066800935836464 6.410921884842078 8.100888284828004 0.15099368957346898 0.44759666448004204 0.06830932589935977
P 5.138261521216313 1.4168377918604114 3.8321126772525598 -0.27074770440636603 -0.10206482508325002 0.31861007530528357
P 0.4035796111782224 5.905751283953638 3.4692027106124064 -0.580159143931517 -0.2566948258577257 -1.137258577830093
Ni 0.9945708019649381 0.09911732619132868 4.459916305342234 -0.8621135156869798 0.488201839595914 -0.040725245633504055
Ni 2.299271603457479 6.4437435752341 4.291298391131752 -0.3215089941196334 1.8271495764718146 2.870152540850431
Ni 5.904370465536923 6.149020602250883 9.287581800815303 0.05363732570948182 -1.7000319221849947 0.06563846393541599
Ni 8.533803019896046 2.712118141391556 10.3229948496204 0.37266829060226786 0.8845229937304314 -1.3381938894290115
Ni 2.307165887695139 5.689526021094268 6.751253653502622 1.2427871930922274 -1.273251937339988 0.17794322157911935
Ni 1.2265937176313169 0.15619509062590153 8.682873269178337 -2.7216584777703643 -1.5477434250595021 0.5039171934486418
Ni 1.3354240112644251 1.442828064822375 11.179114077614209 0.2869842208698864 -0.0026695764123631444 -0.29045341036540945
Ni 4.72788592150162 6.991256246124537 1.0682910620535888 0.18533077229244213 0.05774003502394572 1.4484011411137379
Ni 5.934058061496272 8.071537717574314 8.061931036813295 -0.43054767941755523 0.9050393685162285 -0.593707572039913
Ni 5.757694846087828 3.500683553647145 4.291457366936308 -0.4260227949640082 -0.16274028858643586 1.3484068254062713
Ni 1.0600324961152034 7.536452412434302 6.696767648898894 -0.6785501197076056 1.5987852221276657 -1.6075899649034897
Ni 5.137643786661467 4.59952431473736 7.306249088405211 0.9174092029354909 0.5171223792850062 -0.5475087048863474
Ni 1.3400297674307011 7.38526188013582 10.970993855487682 -0.7583882721821713 -0.276802138130562 1.087137749914302
Ni 4.783327597799019 0.8166523489713527 10.490615304211438 -0.3225685457323993 -0.832881615405056 -0.4541131254423212
Ni 8.435737659314293 7.588605560660318 4.372189822655627 0.2369130152451081 -0.7241172668144432 -0.4709499944940018
Ni 7.250068855941503 6.291163140187214 6.946849307529652 0.1234342918979616 -0.7418378240226579 0.6460218080625971
Ni 2.7442766755702874 5.462844692460967 2.3983825706166257 0.21387027449303164 -0.7664533085784929 -2.3515700320801307
Ni 2.703615206930739 5.210164006534013 11.073877545597233 -0.778850139580949 0.7195515018206318 0.6636711457132441
Ni 1.493064419062032 3.8737498031154973 3.696136583666659 -0.7359643959610165 -0.7734737057603841 -0.6340903467323338
Ni 1.6678378764249175 1.19722407328108 2.4746082893850767 -1.6399794369777885 2.398742318890559 -0.8074258943361127
Ni 1.4248774254050942 3.49025474086828 7.925808685487203 -1.0805048179788166 -0.11404950824895196 -0.2873215496046471
Ni 3.755335539550592 2.4722281944825832 7.1134859289987835 0.007878374306812238 0.6955638806567828 0.05176530549774956
Ni 4.480683087583076 7.142973669660976 6.070387535584872 -0.161784866651702 -0.4059890162415846 -0.9218484696537673
Ni 8.465579688912353 7.396462861108243 0.2652970057765081 0.11456295755026076 -0.0006427757903214737 -0.6345791134432942
P 0.0958260728204376 5.93175064124729 7.940753319548625 0.17784089167330017 -0.5194847088695956 -0.7662543051938093
P 8.930152411483068 1.7429380464971134 7.913801924293974 -1.9863335151655597 0.4554156463038285 0.6276870143091513
P 1.6972256894385322 3.3853670471881574 10.18872025135983 0.7700572238796675 -0.31955521282737226 -0.026622744793850923
P 4.372016311920368 6.466091031188812 3.569293877160786 0.17479927663349895 -0.3457390703115917 -0.23311549587588884
P 6.613011927593508 4.281854319907964 10.196538227211304 2.4881727430392506 -0.6026694092188911 -0.5888723554347988
P 6.633824131492794 7.9893154314580155 10.294728043137196 -0.9301274218331078 0.012544926544546137 0.7105187021944022
P 2.747347179681138 8.883949500513285 5.512733116796938 0.9884534112675106 -1.6810983185052852 1.9262046681944633
P 7.143754922186222 4.045734370649888 1.5585915204004572 -0.22439122862901353 0.8202567275521938 -1.5694751603096389
Ni 2.980214938194585 1.4325264326871543 0.3558232794896372 0.35221130829949665 2.5823224270404816 -0.03270468932187271
Ni 1.5305009499520184 1.2053999718010964 6.751878655522819 0.3404333418279621 0.22169337008187626 -0.8131612541579931
Ni 7.048478451432963 0.8595567391048926 9.35785001486217 0.7268462357098322 0.5949825820975947 -0.577211888377735
Ni 2.88690068308613 1.6347254874188506 9.223269274623686 0.8506553944487092 2.008202033103877 -0.3781169724216649
Ni 6.833897452609286 2.2357812092837066 2.6688203996958864 -0.13746377340783422 -0.9516293004606258 -1.0777442245145439
Ni 4.165465862309685 7.516957436629907 10.319178521877891 0.11229730144453563 -0.8934753178277128 -0.17857262763300213
Ni 7.533663522605808 6.052608590036511 11.146392314870766 -0.06811109384562464 0.9463760224814862 0.013854646494905169
Ni 7.8838281718864245 3.76449254589301 7.969179101836384 0.4129104259517663 1.1953842783282316 1.1973488582537701
Ni 3.712339397666994 8.402879631595516 12.77264666298971 -0.6855160095024775 1.450452881436444 -1.7519160126487958
Ni 0.5442831909750305 5.303750791593135 9.959087423360804 -0.4085655187195092 -1.1298849110738411 -0.13759618522064046
Ni 8.878026516252119 2.806631528282946 5.784380978857162 0.39276223313866554 0.027410016581836668 -0.25181564338855345
Ni 3.3772365703265854 2.7243365675131357 11.614538813527895 0.4680521041209165 -0.251894833365921 -0.3757111911936497
Ni 1.3884765083276434 3.7424721258790994 12.660974790404312 -1.0157492708689861 -0.11784728472848735 -0.8961711194923211
Ni 3.463701239341604 8.60318006100423 7.730200313395809 -0.7723195375512829 0.25287442367037094 1.054936225481093
Ni 5.735801606717562 8.310491978319329 3.5531128655565043 0.46616080063547466 -0.4626075360665775 0.0982955878488049
Ni 3.3543713074656063 9.132206116907742 3.414902934808301 1.572116454587228 -1.1794143852625365 0.5887998503256505
Ni 3.30454374815195 4.5010047375711615 8.881074309533746 -0.13531895915068953 0.16030751077522715 0.21474984888450757
Ni 4.926260472592285 4.397661380278153 11.375187567488076 -0.04086974163116832 0.7210694811270549 0.585255841728134
Ni 8.163988961172322 0.2500780248980819 2.504802791052667 0.7893194145433889 -0.5987415349193946 -0.35522618386642046
Ni 4.967503338459924 0.613616627291108 1.4668897341667835 0.27935652912129955 -0.9322704363180396 1.3174317171809955
Ni 6.3590049292399735 5.373264097676653 13.185987388567664 -1.6141097682998782 1.4129533418290892 1.217933110163025
Ni 8.47059424000463 8.902472452826967 11.1741676590096 -0.2224395042192814 0.37253665012041 0.9118260524207585
Ni 0.23823205637574688 5.2889342466085285 5.649415062955068 -0.7526986779965618 -0.12583775913313167 -0.19075502863180696
Ni 7.30571038753606 6.021631018977338 2.5132593954218705 -0.09190151139700302 2.3950306743669265 -0.9022404656148526
P 8.894868867203352 1.9942288296756643 3.6977981079325604 0.5230071202005573 0.07855800021056149 -0.5766614151909036
P 2.147000035688017 3.3908812365233243 1.3457783325234416 -0.23290775074045694 -0.710396317683925 1.5382524548499314
P 5.266995585579817 1.1165370392202063 8.1740816536787 -0.8960366507969858 0.5239198618228138 0.06675689381057534
P 8.58056915943054 1.8310015578893797 12.37697587097985 1.202857189666509 -0.15749729501994164 -1.417879832596429
P 6.760268944270694 8.062616903855808 1.4156077733497336 -0.7114818374386198 -0.23311061077988238 -0.06592128528315742
P 2.041603619433315 3.696223793250873 5.764636183931322 -0.20160354131053668 0.1356971684257147 1.2438593431104836
P 7.00736276620897 4.27790263562329 5.9696186778925 0.20806832309927392 -0.34811811206672955 -0.3802499596042677
P 2.5316942297181697 8.904716282754126 10.237383199350969 1.3899106010770128 0.30954616533080237 1.0451338946786903
