# total energy = -340871.3403959872 ev
CRYSTAL
PRIMVEC
9.23614685326891 0.00000000000000 0.00000000000000
0.00000000000000 9.23614685326891 0.00000000000000
0.00000000000000 0.00000000000000 13.51803452379022
PRIMCOORD
 96 1
Ni 5.40203754566812 2.839136112216363 13.145545446729484 -1.2427727949145242 -0.6366074567272326 -2.4246544107706307
Ni 0.10695735089266267 0.11681231953790253 2.470718222994827 -1.112408865776265 1.0398896155606154 -0.348767058504638
Ni 1.635453751622555 7.592038787851918 8.378802405100588 -0.6825759530375469 -0.8967064231705008 -1.5757427384859055
Ni 6.734351722871352 6.335525667510433 7.182240190081864 -0.29672793052021157 -1.846140772862337 0.085883073117065
Ni 5.655532830988883 7.790763722595106 5.7725788250410535 -1.616454614382971 -0.8554291616882687 -1.9554262840637417
Ni 8.117446235230657 7.395779904306743 5.713221803958112 1.0472954211063834 1.6607652633748884 0.4082518441338323
Ni 6.6529258526029045 9.185394182318893 4.042920070425071 0.8228496850903505 0.32228366750212883 -0.25343235305636996
Ni 4.628694973347659 3.3062265286428576 4.7055064646703135 -1.2866180742342486 0.6931989799690319 1.6138516295424854
Ni 1.1083099086437176 5.1070719611747935 6.521721769107165 -0.40952942529467534 1.4745608302282411 0.11783262944046803
Ni 8.331891091842822 6.158385607859959 0.001038142901335482 0.18705366852081978 -0.6776648888891749 -0.5676548408169192
Ni 7.657772444691817 5.114239211098605 5.192033428441741 0.040204083022711404 -1.0083378088962633 0.29660323201688915
Ni 6.676967542746822 7.292824575826435 1.4280043526035537 -0.21175605636350628 0.3202499249015517 1.5787434729854424
Ni 0.662426608905447 3.341157635874626 12.808932229044856 -0.8143686442025329 1.1185255201969642 -0.4912051451986121
Ni 3.009700035338804 6.814235156622693 10.812237997886065 -1.2692279037822591 0.7285971569626678 0.8389617601608648
Ni 1.4126871267354508 7.72557499841694 5.832450299501259 -1.2558771935069661 -1.0897343069968846 -0.06234590922707327
Ni 3.2155275669781385 7.261606399611899 13.315939424750637 0.08173742637980762 0.5719781507826214 -1.0633635303128395
Ni 8.91221666814808 0.6127370626875221 9.373959355572143 0.5758885415806211 -0.632992999903097 -0.28744136301196305
Ni 5.538233766514145 -0.022012508689972017 0.4575744143691464 -1.1183126328552095 0.7894965635512016 1.2939634588557263
Ni 8.454916567339161 -0.07548333341151567 11.624171038804036 0.013510632891925119 1.237387876453527 1.5503898615434137
Ni 1.096884795040942 4.936581927226825 1.1528447613275201 -2.0218923861067757 -0.31239751873666843 -1.033740308129768
Ni -0.49252861196793757 6.992852999762611 3.518190556222115 6.656514865011613 1.9640448789706884 -1.6591860918132264
Ni 6.353148235622071 3.3146406583858883 1.5002716596961634 0.6611100698542872 2.4709625498085512 1.389427490793007
Ni 7.336363771884224 3.1155370416235306 3.934518186171475 -1.0200769517100625 -0.050825310181983434 -1.1910316577864906
Ni 0.7367618892685998 1.076352840684458 -0.14029245195583012 -0.8926967877904756 -3.1067099725283334 -0.03882879994173958
P 4.554944341077518 3.6679786907123137 11.312608098494875 2.3496345056203145 0.6327194345267362 0.006229268739163465
P 5.2087988821295 7.083274877023061 8.73377246456817 0.598668258479298 -0.24887584403393911 -0.2015037825078788
P 8.356893341254878 8.604459020324239 0.5441559017863979 -0.13503562358231583 0.7618458917134686 -0.2260205367023204
P 6.94896283012608 6.874076151798428 3.963298019628427 -6.2490721470426385 0.7114121605429491 0.43385463230360116
P 5.237717257788587 5.269249462994631 5.695323998671566 -0.2541476339558397 0.7559207844782851 -0.22767195626281436
P 8.231411050707335 1.4035987582753606 4.851190055518578 0.13453117314207153 -0.4262997027744787 -0.3560358242519094
P 7.808118442449281 6.453803763546929 11.140414919075319 0.04062908637527196 -1.957719450973293 0.31901348139128927
P 5.963078047436115 0.4556274346218019 11.99797175438588 0.08878327748299548 1.5173434726114063 -1.1166473293376444
Ni 5.303210774811451 6.399661470952369 11.536303879750967 -0.7961431223334418 -0.6892937313773548 -2.23039702541252
Ni 6.680107832661894 5.461989374605564 9.241401252954198 0.053335221088030724 -0.6449208616889345 2.2711747215505147
Ni 4.732500027334398 0.8657095820988927 5.682413712661897 1.6955042095179702 -1.2905230657156097 -2.476471395441922
Ni 0.5485255228417522 7.575386015155229 10.54335067390805 -0.7182371538845824 -1.2947160207510349 0.2676438686700616
Ni 2.2312406376861365 9.064280589212025 9.89164630783321 1.8927618151549852 1.3871844603951016 0.45905170039451904
Ni 0.25484376275488096 3.00064861146595 8.866857027554229 1.2885654277686065 0.522946442165951 0.451605528529119
Ni 7.216903449056171 8.054852868305831 9.956046265073885 0.1087365806764708 -1.8563192560572355 -1.186265346746099
Ni 2.533964585499053 3.7351347141608033 11.280286202736658 -1.4370576910764605 0.6378742392547982 -1.8977862649527701
Ni 6.552187199356765 0.9219069173584634 9.914991592507725 0.3314681622148743 1.750787041250675 0.17242743396721272
Ni 7.86619533358449 5.258295392879116 2.4668113328946055 0.5848172115288186 -1.5050733969948014 -1.1301433069415505
Ni 6.981215454783229 1.286807681875119 1.9264145428594843 0.7048483912825022 -2.0750725696741807 0.7725375670993598
Ni 6.733261857547887 7.770527324936511 12.545479453849275 1.2256428201024567 -0.1640356103590917 0.49212817123351366
Ni 2.839967365429176 2.181005235191798 13.0445380216112 0.49326922681649243 -0.16482313925739356 -0.0008363798583663016
Ni 2.140366189232046 3.867645712430022 2.8728794509684894 2.141953647767447 -0.7708486094327112 0.026186942808012963
Ni 8.503184670563176 1.0731017170076778 7.092006730216322 0.16196355832141138 0.21489485910280412 -0.719929711095657
Ni 4.864484565235502 8.75732648616057 10.05048309535222 -1.1111428545796476 -2.1650552667819163 1.3736270334256409
Ni 2.82988149311371 0.006132801481198933 1.1433740163895363 -0.46034445106401367 -0.119514130907949 -0.1446111830858929
Ni 3.2943211354060122 6.3593179816905065 6.860402036447652 1.0845977571012675 -0.5138794468676763 0.5429388261274778
Ni 8.916215919716391 5.883545587263519 8.58017996120733 0.8191285274850216 0.9481750233634378 -0.5324006456003153
Ni 1.2781534123150537 1.5407185938022874 11.074244392491353 -0.6184199871849285 1.180233281619406 -0.2697858547137289
Ni 5.82354757759203 5.063144846951026 3.4592112935436634 -1.0645230978385796 0.010133488889576096 -0.074056255685466
Ni 2.8659855909902263 3.9874939534240545 7.889287547836439 -0.909479406565453 0.44985152195248973 0.7258887568925692
Ni 4.146087830281987 8.815255598946834 7.854180953815298 -0.29405321190152583 -0.040028990897427834 -0.9634676878564505
Ni 7.14814033606291 2.8496837918722804 8.88019956523456 0.2843439550335619 1.4852329652301064 -1.0496994025621857
P 8.5467608112082 2.676284371679466 10.842694191988858 -0.744751398125027 -0.29773220341500983 0.6061429695897883
P 2.4079188899961586 2.0121592353758375 8.943531823904111 -0.24371615420987056 0.2555136610654309 1.180718705896257
P 1.4195865284017997 5.916712590454761 3.8567766148651503 0.7841805506549269 0.09694087359312337 -0.003116434141794633
P 2.332949086347225 2.52968824952647 5.095284790617105 1.0436441975070414 0.43107115602119306 -0.8125228492430459
P 8.8610207063856 8.130090520212226 7.620656988739712 1.0671715912050201 0.17234567288668384 0.4110700303089179
P 2.448548699809101 -0.15082535377685313 12.11286203177282 0.38358416618382324 0.36814006371461117 0.368567638170333
P 8.291307462763923 4.307932830816698 7.17425092309205 0.08620677500507089 -0.688138534726989 0.3352991059251903
P 1.2980018918076688 6.119178164655608 12.734691157379157 0.6391505348640605 -0.3768080238022543 -0.17567987946623936
Ni 4.221473260537326 5.314127900339731 9.554965666276878 0.5458410873759374 -1.317994274552685 0.06666304854518841
Ni 2.8572204876684526 1.4347799899026614 3.2362313136652707 -0.7640112747959036 -0.36408749091179227 1.2452456819350488
Ni 4.0962403459536265 1.4087894727820383 11.08899267171602 -1.0660565037639704 -0.5023588478225864 1.9213591671767039
Ni 0.8633617535800362 7.432105669706676 1.1809854534252866 -0.08443297093409975 0.04230827384990778 -0.6494596300995524
Ni 4.73115154990028 2.560028991794148 9.302151084975943 -0.4385044723707867 1.1583061425290115 -1.4228862846720849
Ni 3.5253910562744384 1.9541562334151004 7.012912987017153 0.06609226364338294 2.2613538788053504 0.7000504556732265
Ni 0.582326125704095 3.9921489714158076 4.500815902703171 -1.1830779501570527 0.2051758320428273 0.5755661252441958
Ni 5.210452152408317 4.232510455974123 7.564381146232265 0.49327796856724077 -0.5304926299443251 -0.6307864791700813
Ni 6.66291936345028 2.4224473489267697 6.043305065848751 0.48875205567242924 1.3565142850047542 0.4468353608339853
Ni 5.711134434779271 5.596310657649353 0.0036011736408425666 0.11511343073709207 -1.2729626882343432 1.7318511235781207
Ni 6.875516990700637 4.202760827102222 11.451492038062328 0.07639647378286844 0.27735749641339974 0.09267747033107909
Ni 0.10148678113767151 4.831280617457023 10.655279842628016 0.39259793964665934 0.24347909849840002 0.9961929460036134
Ni 0.9443498304897364 2.778639350617187 6.6433978435547045 -0.4661466595680875 -0.2864617727075131 -0.019028477386360775
Ni 1.8056297565790163 8.114619974307093 3.264983438681795 1.454961567940075 -0.7019975520972684 1.1629490406176617
Ni 3.6932026076477866 6.114624744278753 4.19802545463323 -0.41389387291095814 0.25330431211893795 0.9275167236831381
Ni 3.234323125734524 4.8252771220311494 13.299609917192264 0.1346872391039616 -0.41941326006729057 -0.08969781887746488
Ni 7.7317909252194195 1.8714557748870053 13.057718003107693 -0.5707843875848363 0.5967980380397786 -0.574282630546082
Ni 4.302381906584469 8.658185686312393 3.7366281990998242 -0.5372098940635005 -0.10040826331643352 -0.6017286425721766
Ni -0.13835655558465648 2.664295853121339 2.5712250489560597 0.8421910657314398 -0.05726103850499816 -1.0453619515290962
Ni 1.8258292096503748 0.5889013386174466 7.487369230523854 -1.7750633972995364 -1.6217757694855683 -0.3242896421885641
Ni 6.783534204629462 8.659118537140106 7.536439031290893 -0.5188679012212032 1.065965743822377 1.4653120579364636
Ni 2.811270657293506 6.150414813163763 1.9157080014784515 1.559216201585792 -0.010832057618497475 1.0311357806273855
Ni 1.0122262733893312 0.7138876480813448 5.032210220443527 -0.0658732056540414 0.2841359527878139 -0.4436225103236424
Ni 4.18461179862247 1.9488362128530967 1.4404408242819187 1.106450591310301 1.116693866304864 0.6527341870857662
P 4.453725408197309 4.4253427290531455 1.6306130870799398 -0.45761291106546353 0.05527717530574996 -0.1356709431734696
P 5.283657852016725 1.8979450439353165 3.41587252187163 0.855771889739668 -2.54634883715935 -1.2979658951469002
P 5.79494323092445 1.4160121395867031 7.611802294793891 -0.7314842487024757 -0.29044338306308043 1.6036338084692188
P 8.334246309279125 3.9451831648918674 0.800443274287531 -0.35922527772348456 -0.5435900865582316 -0.6286948867483754
P 2.1108659363239894 5.667022597619321 9.054108820731233 -0.968467712174203 -0.7667731538117568 0.333605006052219
P 1.679584061076122 2.096984007670011 1.3628479549392194 1.1746010230342934 0.6491904355985658 1.965673672823363
P 4.387363693374396 7.683162612269853 1.7215891331489301 0.32065101699471227 0.45403470679590197 0.15053757587265687
P 3.4054596899591245 8.249837163591359 5.815958235759046 0.8882464653286057 1.0340241579187741 -0.8482084755701134
