# total energy = -381162.60787214874 ev
CRYSTAL
PRIMVEC
9.30663778660275 0.00000000000000 0.00000000000000

0.00000000000000 9.30663778660275 0.00000000000000

0.00000000000000 0.00000000000000 13.62120513006102

PRIMCOORD
 96 1
Ni 5.7818605221103425 0.18021652975443744 11.858962035373006 -1.491569963191728 1.4992575616439727 0.8176979656860821
Ni 6.158825893319397 8.530092103082847 9.110175778777144 -0.22980391500415262 1.397927043623586 -0.826995331827608
Ni 7.151676645851784 9.103725347996129 4.078407010919899 -0.4619537045326625 0.43997308649651323 -0.5382154525098796
Ni 0.5211977852301302 0.13794857205982786 4.437775391044344 0.04023673603285973 0.6404394288788132 -0.38414723777614485
Ni 2.834224915868731 8.920263593579536 3.652458012052911 -0.5596024028260879 2.0742410749118214 -1.0401343845815698
Ni 8.576671826151637 1.451984430429621 0.5607240073770743 -0.24204622270661538 0.21968945227797004 2.5278245531029175
Ni 8.76269290601157 3.4017995394597786 6.428227934795754 2.6299899083197738 1.2452870766959456 2.4468528012445407
Ni 1.14133816143599 2.7829453406221716 4.88254799588115 -0.7572485021507732 -0.2187862237374103 -0.9898428354158695
Ni 3.78051455860828 7.280015183537819 9.59251555846699 1.0364247969404667 0.8091603605287161 -0.1969436739410221
Ni 6.739085464471436 3.164554724181141 10.840667865278627 -0.07822247124801367 2.859251063446579 1.4808039829244755
Ni 8.37691414863945 1.576200127492385 2.9929877837613956 0.31771610273610446 0.3545813511935699 0.12748275093572237
Ni 5.912404732996638 8.132605595137193 0.43056788329436885 -0.7778348109425572 -1.4481633140713188 -0.18088482070594655
Ni 7.71376035303712 6.460435416838544 6.856138772948038 -0.7577660652171402 1.635143963262358 -0.17923571513829775
Ni 4.38929897515609 0.8538710049848421 2.3761373040799745 -2.1168781928560576 -1.3613477018376556 -0.26524734341342704
Ni 0.9968246869480456 6.163153479978136 12.403946656605436 0.8449087217729191 -2.8457080346548214 -0.2749473443100104
Ni 1.7103739271892355 0.6348634774835473 8.7140303573638 0.3396540404597763 -0.45556914116255737 0.35372414539959723
Ni 1.7800713389898677 5.308552834575993 5.148665724815854 -1.3391868494699 0.5485479447841392 -0.355824993792684
Ni 5.696267372647075 7.113780016014399 11.500138093570142 0.777862321746383 0.13519400353705105 0.5407186785477076
Ni 6.519839687037961 4.540969254247411 7.065442269031984 -2.676451542216423 0.34551769832940493 -2.6131725796521192
Ni 2.1582931063256523 3.554381869072726 6.897914409493728 -0.25895302576428303 0.7975849969862908 0.6827541304866241
Ni 5.844736168274727 1.911518293759814 9.408044033830025 -1.311394252737664 -1.5802632520640785 -1.644129197480104
Ni 8.275564861083183 1.9918718060427167 9.60546946786548 -0.03776359190201884 -0.1901251083572919 -1.123276404618388
Ni 5.392321882996007 7.837315278803603 3.0594865040897514 -0.6170058804462213 1.3013278696405974 -0.9031426657141477
Ni 0.8443996395168887 8.335843955252324 6.83347245615802 0.8523556649692675 0.015201904551418982 -2.9950256220774483
P 9.14403239706924 1.0237580972499591 6.258589329764591 -0.6441736991102648 1.1277876622251803 0.07960726741068225
Ni 4.5374792650064935 3.9256701911165535 10.252422268079568 -0.2554604392299923 0.4534978604558254 0.3827606418412634
P 4.838362870763529 2.658683110369529 12.603483766797597 -3.4591575652083524 -1.3447059795159164 -1.999149435983305
Ni 0.3293991445148319 5.733493924550203 7.385526399596856 0.693088936753729 -1.9992332539463633 0.17029316123302932
P 0.7692308552502942 7.939911655848626 8.795729609498 2.2514669587089418 0.20332540909764982 1.4393130627695407
P 4.347623850300538 5.185398094242467 8.452475673028621 -1.6871144427923783 -0.21911661049363554 -1.4072475496935635
P 0.47252127662539695 3.062274772827296 13.477392894008096 1.3348270298393077 1.4359189494863271 0.4560599647560468
Ni 0.2245226411657433 8.942292405668212 10.998224592889631 0.34872669218500585 1.085698446364614 -1.1258490504415706
Ni 3.73512608520039 5.9339682131865255 11.580626552103695 -1.3384877665203463 -0.2157600353165768 0.8828386640494732
Ni 8.142656764151038 4.38029945623351 12.835206953765203 1.443842832319094 1.7900272176982204 -1.7972964976661239
Ni 7.367711633183613 4.0518682020681585 3.052280374305103 -1.2641833993798166 -0.4104650497350673 0.6708676634616834
Ni 3.0507438483753018 2.5952304526506467 8.915692173005832 0.26397027647321636 0.02434911826832581 -0.002428406935834527
Ni 1.1187788709826942 2.871609680617448 2.3204817476572024 -1.3493067115127215 1.6789784439488051 1.4297670709523183
Ni 1.0025296560272001 1.0746933268914145 12.839048733921606 1.836449770826818 -1.7105125100013445 -1.0128904612639524
Ni 8.68963579790168 4.5676606919619545 1.3556439754319198 1.7703816755531512 -0.6049677183347646 0.4273607970491414
Ni 1.6854414440521153 6.795213798103378 10.355467225075024 -1.2195395354181964 -1.1507841231203537 -1.0745753398682591
Ni 3.8431761520992205 5.701097517756506 6.117174035058785 -0.37212578783523653 1.1079405455922662 1.376203021682933
Ni 5.870450409001813 4.644663814573576 12.692988496202085 -2.6462655055513458 2.794744399122761 -0.9468244228728145
Ni 4.061212066595844 5.588487198249543 0.8246100045251856 0.5389690428464525 0.7160599437276055 -0.7131021466508622
Ni 1.9121604517801432 4.338075239737386 10.574318401058326 1.7094552723814236 0.14074578659321565 0.4894956187066731
Ni 5.602912487112004 7.1657855090230695 6.976495007242244 -1.1145832477197644 0.7408235238255306 1.5961686104404251
Ni 1.650774217592327 5.437477690454502 0.9708061191591515 -0.5466319587083489 1.3979154736593602 1.7860661761679435
Ni 5.389129706170314 5.568468619963635 2.8294645705441184 0.08313507805828264 -0.9939470873922301 0.5626900406124761
Ni 2.4626015548577755 8.623046803184959 11.39483255421037 1.7299765322632272 0.5347897146577822 0.7198461502429151
Ni 4.801936689726317 2.868166224566408 1.1756964075149825 0.9345654029998034 -0.0741066493074272 -2.173945884403327
Ni 1.5127940029633813 7.973275952991804 13.402148725973898 -0.14917129165274953 1.2828555218680229 1.3632935127101165
Ni 8.40477822273894 2.2073111685440967 11.920312323573159 1.0643251228951605 -1.658105457154538 -0.01525486927654147
Ni 3.0613441090297178 6.222380924056012 3.1298940123679357 -0.46416562458231675 -0.6462573211121708 1.2328946165688637
Ni 0.9525902366491533 2.079205296807456 10.660540679248756 2.365130801483701 0.27935292957687374 -0.9744565827677864
Ni 7.73494226107 6.4642976715984934 2.5814910630069994 -1.3932152399702136 0.5068302533303788 0.06420970190868942
Ni 6.033856358580595 2.0289122251863296 2.9953712137469934 1.485869570372841 1.4581811033186372 1.9704854923897095
Ni 6.952235394030773 9.45210072734358 6.421921756903364 -0.36215942065114404 -1.166501019634978 -0.5152382748884159
P 0.8102331101801975 5.033569602305558 3.079672601859223 0.07109974416030336 0.10269911623313925 0.652461907260986
Ni 6.142390370654165 6.625302508579524 4.944988091388266 0.9779280862561547 -0.6937227136829859 -1.3371824174453617
P 6.561096013184603 5.099116253568991 1.0819255152623948 0.229670731860398 0.09229334751878299 0.2849224532448512
Ni 8.420106255485054 6.922398312680415 9.238146704263135 -2.14063184363223 -0.7206190238531976 -1.0332651682655625
P 7.071257987103051 5.432526559051385 10.90694881027835 -1.9277319034722673 -0.8181211692664296 -0.07718271712958966
P 1.8068651497221442 7.6842303907399625 4.954291006708858 -0.08743319121300427 -1.719443236832071 0.36533704704817727
P 7.9285203309662675 8.415843815292146 1.31393720800725 0.4604503805142587 0.7669505599298856 2.0959535268882483
Ni 2.3669665430186386 6.410347091252884 7.848293388959835 1.0465117488628235 -0.004372675146398921 0.4189849142806203
Ni 0.5481526007993879 7.450121912459164 2.5431337545898134 1.1095947933662376 0.20058152780392552 -0.6546514587131371
Ni 3.870332921712553 0.45227561637288055 13.628969176055863 0.18040479574573448 0.2370631676697272 -0.5141000475189146
Ni 6.3933159437572025 0.9338932009558071 1.0554918714197807 -0.2126088912821048 -0.7094794622966104 0.21419551904293435
Ni 8.416867545469483 6.960844034158372 11.4625709187171 -1.0894088053366657 0.6356227242164602 1.5905926590145447
Ni 6.695409412451091 2.7263237551775132 13.252465414090405 1.6361436081714662 -2.3963738186583825 2.1115824916747568
Ni 8.634456741343268 7.415110340394272 4.556429441252781 0.4983193876458901 1.5302709793063516 1.3005832781650892
Ni 2.5081947743011326 4.108164055183665 13.10629628870657 0.6144694871776127 -0.8221583154502808 -1.6831711418739141
Ni 2.4046491201825804 2.1374834638118037 0.7719018603493437 1.6334223525855613 -0.1512322879468363 -0.6064576726167297
Ni 3.5622645914382134 3.8612124164962864 2.548078371346347 -2.01853761070193 0.21151745799013894 2.45673972134095
Ni 8.383103062893344 5.355793328941062 4.935030919417978 0.08523361245852418 -3.1322790792466892 -0.666082326257898
Ni 5.09475144035835 4.3099784996884996 5.171576806184634 1.068306733250728 -2.223292810267571 -1.9748882494430957
Ni 3.664237423738858 1.1774665300579763 10.881272726766966 0.37980541586768135 1.2733547814664392 0.5272268147088598
Ni 7.719428095564371 4.227214568169869 8.689389171995321 1.8139806431900243 -0.5142674263347143 2.1049089363093234
Ni 8.492893471093646 6.729834666323509 0.16033662037436927 -0.05006169254308153 -0.4042113555158716 0.7925808589034802
Ni 2.526110052404513 1.149630375872412 6.26319332357121 -0.2908575877823636 -0.2001488111418811 -0.4951289057330505
Ni 4.80221588886559 1.8288846551728448 7.005072900474479 -0.36255099966260784 0.3057717858900347 1.531295306805808
Ni 7.435277824887792 2.776319014383415 4.949169563830785 -1.7767765233359012 -1.333520138102426 -0.9145151692171476
Ni 4.130741958912912 7.9604420992232 5.092355911743383 0.8230854552502406 -1.2280275182845495 1.152672598392318
Ni 9.01091955410163 4.885836031077993 10.524274747334951 1.5334100391559655 -1.0184242465979878 -0.24132014317386827
Ni 7.924471943446802 8.980700900594265 12.869219923575294 0.5707280804256042 0.06682862758877522 -0.23928768612487178
Ni 8.589003121469547 0.14517610711182025 8.171674861359527 -0.9196692026142613 0.018223207876246036 0.9481997059537863
Ni 5.0989859606373305 0.9239499889424814 5.017684101944695 -0.697378051047386 0.040504644982265726 -1.5695394378886711
Ni 2.9255230344111536 7.873145835010364 1.6471716180319016 0.8801199795667294 0.5982429980164212 -1.8589045002859081
Ni 1.109946871543677 0.5576155902931631 1.997822470364432 0.2552195268637798 -1.2239664608412986 -0.24368144431719324
P 7.40443562663605 8.922664706177288 10.78517517502043 0.8623850241808115 -0.17094390744315074 -1.7132131967619593
Ni 5.92473602831455 6.286643259278788 9.20756695320231 1.4538331107625866 -1.451702694683145 0.1531865834597297
P 3.975693370236382 7.604118851044431 13.14598909967328 -0.9381634047637069 -0.5328595875146049 -0.5000420267639517
Ni 7.129954952816308 2.174635562611126 7.386780003732194 -0.1418747579913363 0.23637591179471548 0.6258728439185479
P 3.1559740039674704 2.3176692816609212 4.411758684583045 1.4469474393863466 -0.20251242627805124 -0.2380748967636932
P 4.256818983570833 0.489246235731675 8.921439952619675 -0.7410258696443238 0.11949973273024579 -0.583018467757183
P 0.8830854722546198 3.5537117911384697 8.84080258787851 -0.582750558807777 -0.22203121303726922 -0.4544597101484625
Ni 3.6318875501350396 8.460180638608772 7.332445059238185 -0.36751682830831545 0.674186186311955 0.4622144143932169
