# total energy = -340857.1810100809 ev
CRYSTAL
PRIMVEC
9.38089747285400 0.00000000000000 0.00000000000000

0.00000000000000 9.38089747285400 0.00000000000000

0.00000000000000 0.00000000000000 13.72989168716839

PRIMCOORD
 96 1
Ni 4.030662048936382 4.3363010675633555 10.236513118983737 1.7412269083660659 -1.4479069750861389 3.590788533984493
Ni 4.1980078778945655 2.10260620355404 4.895118312212179 -1.943816724849272 -0.33674560856372976 1.5698641682179415
Ni 2.620741310390039 2.817712013379836 8.870951830036283 0.5765246325027232 -0.8859080470034162 -0.4352779950136891
Ni 6.84023144336136 4.089011230847919 4.6743004299077 0.7356491787134428 0.32764930268941633 -0.6476104927059556
Ni 8.09197148972244 9.357126219384725 2.3008827274637866 1.0007785084917669 0.09833723972001773 -0.4373364202046145
Ni 9.007575219965483 6.048333607309224 6.552027760666988 1.250180400232505 1.481898758650551 2.406751305237965
Ni 0.5657262755938138 7.835572801618562 4.799201450429076 1.235566249863756 1.4157393892146586 0.3829434472760308
Ni 1.6580267133367486 4.833760676500154 7.879887222909866 -0.6574169372734161 0.7374738906270074 1.1796527265255876
Ni 1.0084746146360037 1.991217427666968 12.744016678606517 0.15797423465636018 0.6877937497930607 0.42859929744193287
Ni 5.460123196794899 3.8487383053977267 6.464252579749002 -0.8011698861240718 -0.35630347609099927 0.4086413662627672
Ni 9.451723188901756 6.410952196825374 2.7959004888038694 -0.5726396956260202 -0.7825394155070781 -0.8482285301747714
Ni 6.297312005559077 1.8394345075176648 0.5828642370784097 -1.4834455343123807 -0.9540661920368922 1.775106591832646
Ni 0.5503040802461343 -0.037043287706153796 0.290189618676796 0.9076678072780109 0.9537990544184347 2.448459226499712
Ni 3.736486486948619 2.161527620207796 12.001476434295144 0.28041093852774285 -0.7304704627259807 -1.2207718651634007
Ni 8.89807200445851 4.533112295297125 9.12183830282003 -0.1211059008751011 1.0986141259850177 0.6699904030630526
Ni 8.02437274296126 3.5606603267286934 11.348565036230651 0.00029207731912207763 -0.6452304225095534 0.8113596821728801
Ni 2.1868841859162984 2.162859707640503 6.249736784326866 0.4534459241719675 -0.44141161871525275 -0.1671942105927314
Ni 4.504125322289625 9.169592699192838 0.35619830332639874 0.3061520520475889 0.38904210397460093 0.31022879322012376
Ni 6.54896395957176 7.731491744816551 1.771595609782702 -0.5202187588221427 0.7312831884352632 -0.4089761238943666
Ni 5.537055936482441 4.017134794866215 12.94389639788422 0.3095801038925313 -1.415126695331324 -1.215347608824036
Ni 8.452957803088655 3.8408302088782045 1.543240176406532 -2.092741190598538 1.3404618595275817 -2.478274510088932
Ni 5.983051942209161 0.9061693617143562 12.23959456760947 -0.39892131076152587 0.6806082877882149 -0.836064898229044
Ni 0.06050115977817775 0.8446982171436298 3.9933804864359264 1.092954099485763 0.9658829821661625 -0.5323615648322638
Ni 4.707343702956767 6.011429156884788 11.848512459161489 -0.2991758778400718 0.1018506521899149 1.383772863610391
P 5.001932024430721 8.288642003995006 11.749602153013763 0.8231186224810212 -0.11186252789996219 -0.18778103360514756
P 2.679428204608459 3.9054364493644997 13.145492821388578 -1.1136183127033337 1.0200838936885979 -0.2099354582149997
P 3.303445500549847 4.144714999688868 6.194927015009417 0.31612330432768787 -0.41804826139896395 0.3507668625434862
P 8.114194835694857 2.2992954796214344 13.531425755246328 2.8386482995945626 -0.04441889243500737 -1.8999855865969342
P 6.531506109485367 0.08760913903376745 8.211711140486948 0.1656273803262438 -0.2989035980152917 1.1624307062203463
P 2.188704080014504 5.394250535157791 9.973612530882612 -0.8569139737639113 1.7935192900118788 -0.13279567850820354
P 0.4587071217219176 2.45034668977249 10.066166340942997 -1.0056247808404746 -1.0998559688119187 -0.006135937694408788
P 9.403223949274322 2.5189960970439733 5.44413533333319 -0.6326644129190846 0.4003505870088847 1.1997968055736306
Ni 5.014305428119035 6.923880905596919 9.788492715595199 0.693162984524774 0.40935021940433375 -1.2194675445296805
Ni 5.967742317630443 3.8687008550935063 8.907006371155061 1.3571804578338431 2.576660343658698 -0.1518624653316675
Ni 7.762054708589507 8.99121493487646 4.92708184396896 -1.4516145058447127 0.3303204217636763 -0.6479802173405486
Ni 2.7393346154906255 7.640271898368355 10.814444880202165 0.6720696541895844 -1.4852082826397583 -1.287618233363989
Ni 2.4337049777610646 7.825310099848268 8.428039325289358 2.0766908220038944 0.8157488123795112 -0.3365273219053365
Ni 4.857803916570776 9.0117778620067 4.146029263416489 0.08002738566723636 0.005305214262997315 -0.106181675465101
Ni -0.05459682294616468 6.7923325811683855 11.565470146223985 0.03495826124273979 0.25489685341703844 -0.30311120833873606
Ni 4.980280913200524 0.2268207185593326 9.859434814194525 -1.260225700283649 -0.10735512694791188 0.15041699113439258
Ni -0.0904112130911591 0.45909549087483364 6.50434372102478 0.48142878253813864 -0.19131989999634147 -0.029053465722530605
Ni 6.525671191294213 7.606810237294649 6.22079390153721 -2.1981736466024397 -0.2927746022994184 -0.4325310283961712
Ni 2.298957767314551 6.789433883867635 3.3218095453263783 -0.6088876222144609 -0.7867431691757806 1.0432780724168742
Ni 5.830415360395236 5.830668644625398 0.5771841036945777 -1.4472132914532239 0.6118413055261462 -0.7471679779863197
Ni 1.9500821925090759 3.530078601160911 11.067583706454878 -0.6145911003571416 0.791794872667075 0.7481236570313695
Ni 2.2482071123078926 2.095045200238815 2.708591538487332 -0.3493031335137662 1.4115289506777369 0.3405667820820328
Ni 8.226502939528444 4.0083730366820705 6.944758092790508 0.10272405593380374 -2.7194211037994136 -0.8525060745042027
Ni 0.5661249637338847 2.282212865431578 7.839740734339348 -1.3255101233137558 0.8481863640829265 0.4845074214634624
Ni 5.143846240501095 0.2409239597306838 6.5190764204125715 -0.619498564961088 -0.02685671518152794 -0.02754988459381062
Ni 0.7706895031798537 0.1653570787065369 9.33819369222494 -0.5362128202575539 0.28771647105022063 -0.17581100572746497
Ni 0.9352923577343507 7.030297805854872 0.4910787225161831 0.09380952705299328 -1.4132415624934693 0.8536360743435879
Ni 8.046445994575063 7.931220431645897 7.856985638054457 0.07375080862990524 0.8883418532558894 0.4997460927900877
Ni 8.174908003754577 6.504329649678659 4.707402802610471 -3.0645731912592833 -0.6025341691926074 -2.2152663404186685
Ni 1.0643284778355682 4.424331408890986 1.5348921157983204 2.59666301203287 0.52309659459057 -0.504343482352783
Ni 5.05055321572453 2.0402982829340357 8.29479024415977 -0.9248219504597943 -1.3825245930255867 -0.6374716044997408
Ni 2.2595392363833167 8.4709409834302 13.042271054789639 1.7493263975447486 0.9702772545791161 -1.6018247802849381
P 0.8918409790050827 8.403923852308653 2.461824217757822 -1.3421382187887403 -0.2825704080729069 -0.5648237991260272
P 2.072812473368985 4.5351104264461854 3.4218324259073376 -0.15077951668013387 0.11630462283171585 0.6424590304120034
P 5.950021802416473 2.835929716156718 10.7091508733646 -0.3994036497145831 -0.7151963101757296 1.5127429977249174
P 3.5833902411614353 7.06811220332841 0.2971643159036815 0.737919205694542 -0.764484100667264 0.18770878560631543
P 5.997188954611201 7.080194799196909 4.094720445013732 0.693151157450232 -0.8046308480894788 -0.7176740822922608
P 3.25639091912408 0.8530415873031347 7.823457372609116 -0.1323040835837657 0.06609971984255067 0.3753540649645471
P 5.9752001310741205 0.35686903749145904 2.3668961025620963 -0.6932295760966513 0.3478751428179879 -0.8085186131796591
P 6.183962622112599 1.9497726228944328 4.65631443529693 1.5304694684704028 -0.22530139914810873 0.7712633283726265
Ni 3.8495450625752814 5.153011377274017 8.33324817119587 0.7793815866043868 0.0021414718230350215 -2.712882274239631
Ni 7.146808551729678 5.679598672679515 2.3964149724529373 0.6160121490743843 -0.8345826572565626 2.1831206089240593
Ni 7.542832516935054 2.359079938837226 2.970997753294771 -1.5913387931519498 -1.345788671057134 0.39944015937947336
Ni 2.798978361245216 9.30767012822112 2.7033466787434826 0.8515362543917657 -0.4367262974244414 -0.2927596899010829
Ni 7.083675112137292 8.907443520974526 10.695997917101229 0.12764961553088985 -1.8688790950001168 -1.3900157591963094
Ni 4.106834935933436 6.564676962739257 5.2384066245182135 -0.8332122592715973 1.5739167410207602 2.0516469916613893
Ni 8.883484708980626 0.47164244116529674 11.642728403051777 2.0348839132704373 1.5392335878162782 -2.1801242452998966
Ni 4.140540500339891 7.344839296127192 2.312196089744384 2.5211461126414774 0.3255497398479103 -0.09872470496642352
Ni 6.977605305083634 1.6547340183446344 6.8726067965145905 1.6081018715429016 1.3096471881395702 -1.1316389176504704
Ni 6.895400501049744 6.7290115236277295 12.194298904448722 0.25532751319655383 0.5235239119359757 -0.8927885761733335
Ni -0.18139466092453743 3.911440223709095 3.6810388166070562 0.9302786026989913 0.28104034458162563 1.2997206730544777
Ni 1.126214258071968 4.466451638277289 5.825964124572564 0.30479425246811376 -0.8790300889366605 -2.8297062599099267
Ni 7.992956117523682 9.123935871481674 13.375317303299692 -4.639217297364372 -1.4617083997456053 1.3247282508424087
Ni 4.763507135770975 5.175516150168836 3.7193588444511776 0.7885758515091451 -1.0559687805106652 -1.111237728286299
Ni 2.462673188973737 6.128896754295763 12.42912152850171 -1.133841324618428 -2.3661461301220927 0.6124048913391001
Ni 0.4564876013939 6.950203703739004 8.877144160418888 -0.11587499149346496 -1.1997777794102369 1.10997583085474
Ni 3.9546955416824225 2.696538961490556 0.5253058648188251 0.15011128696851567 -0.43683968307385407 1.294644286972835
Ni 3.3835771262553687 5.09767346343219 1.7304472413684309 0.5645780016638083 -0.18905784343504214 -1.1873706639951356
Ni 4.404753475989157 2.9003389577973304 2.8518631704134294 2.0911489064107536 1.0272649848180695 -1.169788175026682
Ni 2.8548603671370207 8.732442879726984 6.224734816540592 1.18451596815516 -0.18539016477546783 0.8253631955408237
Ni 7.887017643033813 2.4427481628676113 9.120107527247253 -0.9584738341862847 -1.4356060462315985 0.22454215238458103
Ni 0.4370832150942193 4.611114457289799 12.913100787855411 -0.36293229426142654 0.14933841335823314 0.2009391682536604
Ni 9.591592369336002 2.010251268518818 1.6734676704792548 0.5118639590995443 -1.3997011048048735 -0.9576677933452216
Ni 6.7603906254756545 5.652900638640894 7.435820867781088 -0.6111483932241797 0.8226658512143187 1.3230511202503021
P 4.639735575298174 6.85475307255735 7.4777656743857595 1.1203869988857351 1.310406692013414 -0.5737447557647409
P 2.444164678377039 1.0874242472674336 0.5111022480451501 0.6380585873514624 0.01779614764115645 0.5869615115653309
P 2.037643488966035 0.37962709461644106 4.717961002649287 0.22558576315774698 2.1288993856866494 -1.724338360140843
P 8.42874570686459 6.40287524415241 13.620189682751688 -0.6583618176851888 -0.4074090365175629 0.23517494950807885
P 2.41938972830817 0.23040234519178032 10.698482916826045 0.1655564178789923 2.1918466759431476 0.5836833550346916
P 1.72068172716105 6.981141903408498 6.478408353945868 -1.2692667274399947 -1.881861623302714 0.47144981694855576
P 7.744934570809997 6.5076411064656 9.557501250045856 0.03830738022063081 -0.1287806438115395 0.7417455214191677
P 6.37798772331458 3.816946444063611 1.507254115838872 -2.8814317133086758 0.5992107612463294 0.12660909008151744
