# total energy = -340867.6559708022 ev
CRYSTAL
PRIMVEC
9.23204694106298 0.00000000000000 0.00000000000000
0.00000000000000 9.23204694106298 0.00000000000000
0.00000000000000 0.00000000000000 13.51203388784882
PRIMCOORD
 96 1
Ni 8.184403311559091 1.7773351750660538 1.5831639983317132 0.13873595525203847 -0.2855675430280179 0.5005819584278218
Ni 0.2892464869229995 5.01938072630527 3.7727756080503307 0.5955415399248583 0.11119892617403429 -1.7625832625546547
Ni 3.482734241902671 7.2568503431402345 12.560988935241559 0.4548284063417909 0.5455901477073959 -0.292916012973289
Ni 6.847196732967648 0.6540812797673716 8.740813229593385 -0.8684168321971882 0.11062814127222884 -0.6087279567081452
Ni 0.7695612596696729 5.746505959911361 6.697266447435346 0.7703950668350603 0.004844472576494883 -0.5833627384704791
Ni 0.20728529913422689 6.725610677348849 13.169030921101156 0.5420476817717762 1.3950144979624814 -0.7722619448404701
Ni 6.831751518764896 2.8762718592409766 9.911252115800773 -0.4253298826620417 0.050113628826939496 0.060444064218670095
Ni 0.48434917717381204 4.76000637303191 0.8557294911596973 -0.28105191454585143 0.13937307461540516 1.5835730331636018
Ni 7.395755718450823 8.853431275005038 4.544745508715519 -0.1751026668065307 0.1876185398853543 -0.23521120206265297
Ni 2.0469755643187693 3.630511614134267 8.355584845491462 -0.9582840867729819 -0.20677428687819874 -0.7406636012088986
Ni 8.000491708371385 2.9834559219390973 12.038748668616247 1.9458592092005973 -2.5452131808930103 -0.7700561954384028
Ni 8.255111557571572 4.760578759930039 5.49238464123535 -1.2889490363602705 -0.6724108395790872 0.4025401384610358
Ni 6.300521085020254 7.35259589992251 2.4453134547972053 -0.10917983886147647 -3.089096116101312 0.7891085840841635
Ni 3.7340767145087304 4.612182840566593 12.129928055078928 -1.0264913398768385 2.0710230821951554 -0.17788768575083555
Ni 4.42914828181957 1.5857886692210394 9.778536827832054 0.7500704963450953 0.3248928229902018 0.7221783979205175
Ni 4.24385187162026 4.040026743605693 9.216315336372398 0.8318945689014382 -0.3089645817957195 -0.18137513007880376
Ni 8.77171842927368 4.16394850705073 10.174683030413458 0.4988899154373795 0.8755318459754148 -3.0170113823199203
Ni 5.627015578903455 0.42317486583388436 6.303539041100875 0.3545039609884153 0.17088914294581536 0.5877703806198716
Ni 2.0222521431382723 5.100521185138498 10.153225907370999 0.25286953857436445 1.0720070649204507 0.3691088553857837
Ni 0.22795308218007393 8.693615313819235 3.395006717717581 0.2116293009776549 -0.13801424659466552 0.12093620806645625
Ni 7.920006724856982 8.52128992929528 0.14427473369691282 1.1592600218018487 1.0388100093431916 -2.2055871654576915
Ni 7.575614453117903 6.1110333255991565 7.153608364401811 -0.6827734137603337 0.2547698409208709 0.46695732839484094
Ni 2.8518530956030324 4.342994821604336 6.176431298324475 0.22321957691841554 1.0398222526577898 -0.30450114670772715
Ni 7.713818192875944 2.082435855862566 5.604129335025019 1.0109971008959815 -1.3063842011175826 0.6444349231914515
P 5.864334572505341 2.4324596761155 8.103085597428377 -1.3395079802547447 0.0823488347115614 -0.5502297033619363
P 4.428843624277016 2.4859963151840967 0.38496988679308897 2.5156051282185903 0.5962529641695861 1.883775809606291
P 0.5863060550054666 2.6610266894040517 4.482441194854124 1.453104203016362 1.211264697003914 -0.9783631169110439
P 7.621783918884767 4.990115138126713 2.1739512888267294 -0.7249099379190677 -0.22377699208378232 0.24511483432961012
P 2.876918102513058 5.901216599247718 8.305698557705453 0.5468523022492712 -0.972534426044409 -1.0441491621679178
P 4.287861038449023 5.526552446234984 4.653503635383497 -1.229631886657192 -0.2168787223020523 1.6035358494387737
P 8.799211464477384 7.021996306019003 5.136032252939387 0.34600672215068157 -0.2529919230848417 0.012758070996616737
P 0.45194007707891504 2.7439212371186454 0.52215625499994 0.5380375321711185 -0.3361377997764018 -1.7854449976441769
Ni 7.053117535593108 6.526844710950007 0.4262306733061563 2.23578040121162 -1.1509820980637726 -0.8867397988760923
Ni 3.989472055635416 7.793564612650826 3.284762231523816 0.5075810154534742 -0.7094049003049332 -0.2940346999587646
Ni 7.247258246573193 7.22467666023731 11.283250585751748 -0.7004152952118131 1.3998222037637698 1.0672505240720715
Ni 6.701311930318577 5.241171417283707 9.347949551667392 -0.5512059512322764 0.5584004120981867 -0.3484580119046515
Ni 3.7317594707759802 7.295449530577 6.078496823259192 -0.17041246041971297 0.4980741044043035 0.012021964161540586
Ni 5.287165474162436 2.9900014430806103 11.875753190531803 0.9688371796984799 -1.0643726883036444 0.2578795901944462
Ni 4.224990800122218 3.0920617198357983 4.618277837826999 1.3444018180119361 0.7152027379336329 0.3903793347287857
Ni 2.3539780467445506 8.977999281722157 4.306028783236588 -2.8141986511926307 -1.201465708635621 0.7378914377804002
Ni 3.8883626796948634 2.209330338359179 7.161877508670434 -0.02087967166248662 0.33488798652970064 -0.547355981358567
Ni 7.756793370469378 8.468094875956211 6.918188402815171 -0.09445050307110185 0.09519895120135217 -2.17514041893206
Ni 0.5426477059529762 2.1825666348482526 10.621363610462303 2.0593896117212855 -0.2375632472345973 0.7175262438604869
Ni 1.1891799410977593 8.404892283946621 9.814019276288038 1.4521271838150733 -0.3624682101408145 1.7134160568013845
Ni 3.508399331851058 1.682041988574236 2.42332918188566 0.7122685950059733 0.96498258183908 -0.18183998553036426
Ni 1.178018396584234 1.9361540752035022 2.4649195524674896 -0.1290536949672681 0.33474349053203645 1.0175349020144993
Ni 5.974796011797591 7.045962699366489 5.276949291235499 0.19086944272248418 1.7246612906979009 0.5745870491603782
Ni 4.071591111423511 0.38302931056749506 0.49936694761231626 -1.0546976271077257 -1.0685838981715146 1.390007017445561
Ni 5.440242041225101 8.292759844193704 9.903928333118738 0.7610511637263152 -0.18205055887927354 -0.0917179346312872
Ni 4.168961508432735 0.7550909496030893 4.492346257805788 2.4778520778395325 0.7517669102109117 0.7795793044374897
Ni 2.4749455552314994 3.960871174822429 3.4410016978009836 -0.7941574593619808 0.2803407474114398 0.4796763186234062
Ni 1.8946467930423694 7.708168180268602 7.585898953190745 -0.5842024607629551 0.9600303800401272 -0.3110068090367289
Ni 8.091288888098862 3.1255740495166062 3.4527974839258233 -2.5089480279133887 0.680112579098719 -0.33446401161840467
Ni 2.329891636789391 1.2967702138526174 8.75890527159765 -2.393878563040355 0.053405669314649955 0.37767448556760763
Ni 7.908189705024631 5.220030030239891 11.934881680313255 -1.4767053873750697 0.4073627566606597 1.3585056044031703
Ni 0.8683773951990105 4.375177736554003 11.980917281402332 1.3307893694348243 -0.9922401320034525 1.8842738322886323
P 0.5826990943425765 8.861149266083043 12.466093649964407 -0.1984814507417872 0.2798558373552213 -1.2084321126511253
P 2.579618501215246 2.9698386529916614 10.569571828228327 0.7943083831175481 -0.28758714456120793 -0.7581602153317651
P 9.162243238592648 9.059924464528628 8.289970842872334 0.7090279765814885 0.9129938474766148 -0.5374667472693131
P 0.24745301131280184 6.520502294836863 10.98804019663211 -0.3523126097640513 -0.44748662126473904 0.18182224491855137
P 7.694827872723487 8.950349301723804 2.1195514533875666 1.1650228924275547 0.10874326554469015 1.4814025357404228
P 6.806788064369053 1.3291470017839102 11.434680155675279 -0.8893034458382103 -1.7072333250294405 0.2724389760658599
P 3.859780262975364 5.7518051547424305 2.455339457561215 0.3401705750848787 -1.1330355408876809 -0.5387271020389753
P 3.3707772110378897 8.400571686070418 10.295102155323814 0.3277112662756034 -0.9365227838364903 0.0564043469316577
Ni 2.54666009433908 0.5978442670261481 11.535466409979792 -1.4222098274303507 -0.11956606719180697 0.16472029513094213
Ni 6.324192052871932 5.09350482961304 4.332201635755896 0.4130639208104951 -1.54370036533838 -1.7989980537382633
Ni 4.273579062136018 6.253788464402003 10.228014718044339 -0.6836005376473194 0.5736596522501024 -0.2616058900060978
Ni 7.049193915726898 3.6779551023518073 0.20872457522162027 -1.4301393666900724 1.6741090316716458 3.653366870937347
Ni 5.167047313975937 5.434979774581008 7.028162390039336 -1.3829555099154183 1.4614250641772315 0.9953632510134663
Ni 3.940560671985576 9.003581283249849 8.228788222690337 0.08769621506640381 -0.30782789708811503 -1.5161605080468987
Ni 1.649739057016895 0.961545364530354 0.2794143571406137 -0.49410175002011675 -1.1655723371731217 1.0133841130709191
Ni 6.504336980988077 1.1127293620104945 0.41280450772632193 -2.3994087488299645 0.3880594283463575 -1.8252495312356243
Ni 5.703143036354679 0.1712240013473939 2.661086697707888 -1.2819301818402762 3.3411519005251296 0.8394582401813092
Ni 4.9213548539772205 0.05548737054560874 11.994064639170496 1.531109930267879 -0.14135616648370494 -1.2330537678545475
Ni 5.48174009133949 3.89028294541762 2.2625226220842234 -0.21639612623867896 -0.40927385764044355 -0.16831006936472948
Ni 8.988616135477786 6.722942615839826 2.068989379779895 -0.8533691938354465 0.64352449556204 0.3082066205837724
Ni 2.994045079554493 3.9649794356235195 1.1586301752171086 0.130759107694149 0.9168985818476597 -0.16593411293338517
Ni 8.813521136930621 2.110907488021137 8.499028694981414 0.26903483548031737 -0.35543984253912336 -0.7090729708868111
Ni 8.510986965128948 0.36228582473834703 10.313059409445614 -1.274783800603482 -0.5155529779153574 2.2858086694136053
Ni 6.171798657268324 3.6086778235846495 6.345440531657978 -0.17409402303635824 -0.7701996629948026 -0.22328334027681548
Ni 0.2831782625981524 6.369613722852531 8.908956496942297 0.07128434936728369 -1.0079577998490252 -0.603840803819173
Ni 2.7631331263929595 2.555947533363568 12.72875461187864 -0.8585255412254053 0.979240634419991 -1.4926750233304487
Ni 1.8986719654227642 6.51740032713087 4.491196867986156 0.10605980517525605 0.46360178165904675 -0.017576318320866504
Ni 7.511534816667631 7.555728624431275 9.113448178731781 0.052431992547470996 0.40544599925392105 -1.110387464470862
Ni 2.173953135236078 6.928761865951102 1.8069238848806515 -0.7853594014543764 0.011353220229290126 -0.3773096460290212
Ni 5.145148899099111 5.6175434989440864 0.5061811213140804 -2.8624857683337925 -1.6401699557220395 0.10569547985730184
Ni 0.677858416156606 1.016734539966131 5.716144527784288 0.3462198666027521 -2.1484310279616743 1.04779241534746
Ni 0.3635903129432777 3.217423682572903 6.519218117134769 1.536588179773631 0.8225015577223125 1.2276727060482922
P 2.1709250239040383 5.74911862913992 13.310920093919414 0.6007783628437654 -0.8095833069987476 0.47148452684123315
P 6.064309937027651 1.9373542412802256 4.387640999658437 -0.666168201103485 -0.31344575749552467 -1.1881823612631537
P 2.1616006566925736 9.127383030087213 2.196543030414031 0.4024591487114553 -0.22097294697608394 -0.8257051522612747
P 2.8293269015476135 0.35838897780769446 6.302174544592108 0.2777601311684571 0.1409771858777314 1.2567721945174097
P 5.770961651736281 5.16058488125512 11.328123872155752 0.35765973300857756 -0.5378069042175512 0.4406711410048023
P 8.267297859273684 4.241516163794022 8.023269937302915 0.48860575990255206 0.3338225213796638 -0.3090239742787452
P 5.281524693601837 7.785486571749805 0.2558514042358407 0.12548988887540968 0.7410677786258527 -0.1532655163267812
P 5.659826273031718 7.825202836842597 7.63443366933343 1.313921647145208 -1.1968197252231774 -0.3499759912110747
