# total energy = -381162.85624609585 ev
CRYSTAL
PRIMVEC
9.28639701558940 0.00000000000000 0.00000000000000
0.00000000000000 9.28639701558940 0.00000000000000
0.00000000000000 0.00000000000000 13.59158071571983
PRIMCOORD
 96 1
Ni 0.7534044557160576 1.8771058469955628 10.36057676983982 0.6217788763548324 -1.0704574610451436 -0.004841130142385211
Ni 4.952788375219133 5.957762252884355 0.32794725092378313 -0.598142210772499 -0.7601661900182005 -1.0094960908704227
Ni 1.519988165980096 2.372739424880873 2.11156043937037 -0.0517449937827754 0.39005820394394114 -0.7448244174548077
Ni 9.130264755683214 6.822316522305485 4.5349255858505755 2.8861990527903325 -1.7470872238015847 0.09487910596808823
Ni 6.046103747046518 7.4509220180829425 6.550557544752624 1.4751496128521755 -0.06615319878830542 0.7068597652855761
Ni 4.082170088591245 4.908910149641899 9.289926707042353 -0.21537128451859036 0.43448172436463883 -0.03947491816617072
Ni 8.065198603370314 9.154576542891933 6.465093905004511 0.8493726710815437 -1.553643592594021 0.17287532013790874
Ni 1.015198200704489 3.4815909388015305 12.166476382320864 -0.24687603999509097 -0.23803221645121586 -0.6931930664317609
Ni 0.8839173356964916 8.976946342078955 5.157773515520544 0.24381488457126396 -1.1513219979016946 -0.41375888999499066
Ni 8.515978883998896 6.519895719311162 10.773610632795647 -0.8489924049239895 1.6078244495117984 3.0980844356428516
Ni 7.1388990806448405 5.190167253992727 0.9927752666349045 -1.072743943086475 -1.0539314383656624 -1.2814792103457866
Ni 5.070660611674545 2.683016519692834 8.859223616614399 -0.017982038399717418 -0.35546786756358134 1.1401888641030105
Ni 7.74117764107596 6.71927466177533 2.5728454922260355 -1.0485840580108199 -1.1919472276222245 1.5859744435162426
Ni 4.98289487412313 5.511216569263861 2.6454790459513964 -0.8906015958243435 -0.31857202297849657 -0.28854668026099983
Ni 3.148079278826768 6.253264690152744 4.366920735473746 -0.6288715215355556 2.2148922449087016 -0.46862983100125744
Ni 1.1474364932377803 4.86863504608032 5.522259023874208 -0.9874771633971704 0.0332433354341621 0.38958229274878714
Ni 5.6630305865626145 1.0369562287526282 3.3703176160170565 -1.8743815128755847 -0.12189368688371911 -0.2997687742290644
Ni 7.987675761652061 7.735466506953208 8.683932659192513 -2.227225055442442 -0.9917284824743564 -1.5519052697466755
Ni 7.258730746856188 8.923428836470153 2.7344083690403402 0.8985535036815686 1.0255870828950144 -2.445805076706317
Ni 3.0999757426383936 0.6973564069390437 11.359720647501364 -0.34648057646330654 0.1753222390165045 -0.31923691025600504
Ni 0.21406816515582316 5.311261870188944 1.7679795391853652 -1.310254739816582 -0.26892762047849167 2.1609800682712783
Ni 0.9310541579626246 8.128689699300798 7.915532529685531 -0.8257005242755845 1.5116153118783775 -0.22773649095216264
Ni 8.442867080830736 3.5285151025775647 10.706291684043377 -1.1561752122289377 0.06241018680610542 1.8320742674669415
Ni 9.072744812990011 5.284257027865432 9.201527637219113 -0.6455484679706043 -0.25966933510501733 -1.8442818652767268
P 4.349005418482509 2.5203188451715373 5.836347255993449 0.06320465768294276 -0.8446456979195195 0.8783248353395197
Ni 7.314170536633137 7.735912254006692 4.619859900972677 -0.7583404496633713 1.4195507925409487 1.981883706924322
P 8.246515503771471 8.128959004812277 12.642684675071262 1.0636244972837101 0.46130912897012816 -1.0417384958438962
Ni 3.9815148320766145 8.63034086240813 5.453703127048522 -1.9863445709091532 -1.5796767834329892 0.3007763895579723
P 9.161253462297228 2.863293343635866 6.1266901711177715 0.2974902626075328 -0.021580554384253155 -0.40900800557356654
P 6.939241546272245 4.677121681830738 3.010018415407355 0.9224480509109791 -0.6085428372805326 2.5207445063276843
P 1.5310204055538006 4.826168352839117 10.217456677363375 1.9102813120959876 -1.5601826792641194 2.1011101313885234
Ni 5.341897693718952 4.272476221237646 7.048131979599974 0.36955339912237 0.08130522393839545 0.9964886228671612
Ni 1.937968892589888 5.735798793043714 8.380690938708025 0.5425451902334849 0.3265527271911279 -2.63480172788612
Ni 8.722721939242483 8.934581799204175 10.28941139547187 1.040576357214995 1.059544927897698 1.6485324687541218
Ni 7.5704286604011255 3.295797995071646 8.73286268470922 -0.24273836367763357 -0.591002257293608 -2.216432592812628
Ni 1.9287196412301155 4.567941512918244 2.9749251213425163 0.8734345971267538 0.6562686826015859 1.3660235100467701
Ni 3.193768351808776 3.191316743014619 10.696982071103445 -0.6686981666141902 -1.1371194811490675 -0.3926794436168721
Ni 5.2972579835920195 5.3015482989817935 4.963672032441677 1.4271106071660777 1.8594526594798944 -0.189801406469286
Ni 6.750059067656499 2.5588481061069746 6.548179298494352 1.2040100723240297 -1.2782349923768759 0.3322495204655891
Ni 2.207274404069203 7.226943410104681 10.062173262165015 0.8230831412573953 -2.4954584780673863 2.9164892191334415
Ni 3.0931966728666733 8.462154927290824 8.402927216198963 1.423225927399691 -1.1949734160430583 -0.7419254986404576
Ni 9.12681021601872 6.412962858459978 7.060880345329588 -0.9532966608607194 -1.3285545665670344 -1.4486417963696343
Ni 2.619098249502761 1.5974645757136108 8.709199088007441 -0.4119411200599615 0.2640944607559065 2.198051776312595
Ni 9.068844526272034 7.65552920202859 1.1298378423824544 1.6252063924336722 1.286428841041578 -1.377656209189692
Ni 1.2035077580071631 5.889265788999134 12.11626854858417 4.255990514519967 1.760142514323646 -3.1252044317880956
Ni 6.682871985740885 7.673089778656431 0.4649243918194155 -0.4987461907706637 0.30387045510226374 0.11500467307336967
Ni 5.87259670647826 3.1172484409608603 4.433016665748023 0.715099122476233 0.024484101184293318 -0.5824250571475582
Ni 8.540838568627521 1.1988274139455914 12.296901041530296 0.24244320103471795 -0.23118536873271153 -1.11677382761318
Ni 8.899172767643119 1.4587443781109208 7.814873558612121 -0.07948205468672763 -0.28013197383474336 0.6073850695270054
Ni 9.105980827665338 3.486364146832578 3.7742053066192276 -0.35012717207695826 0.7353607009387465 0.44337542730984286
Ni 7.01851023061664 1.200666120541209 9.761840041204502 0.2950667407677048 0.5041943583694284 0.5750791583054483
Ni 6.502725171355118 5.0329671264643885 9.740800780280106 -2.330321921334632 -1.3726093907944037 4.947803669885066
Ni 1.5467237027921288 7.689080954200134 2.998724299439729 -0.472709914607902 0.47678434178759177 0.8822136288709644
Ni 4.225617062240245 0.731065099219001 7.448335756533047 2.4067988706464485 1.8927139926361856 -1.6446567878487997
Ni 3.2184887404831874 7.335232084910208 12.917913979163426 -0.38650056849966985 0.8400135984641468 0.014189918347136853
Ni 0.7271090941193394 3.3389518816869694 8.428465736444457 0.8697836306377278 0.2122221973666474 -0.28074775304187133
P 2.2440578223784984 7.209596420606634 6.389198040031471 0.29848785063411176 -0.17059038075847394 -0.7083342929485736
Ni 3.304880091286362 4.373818671126396 5.439038048988931 0.7404931370693053 -1.7265986169299297 -0.12272955252145315
P 7.236554830945408 5.582406088263875 8.125128366071408 0.7788737937300328 1.992798811174929 -6.277404675438743
Ni 4.1892608181905375 1.7024751523966484 1.272498258209995 -2.091454353466314 -1.5260497421361525 -0.5166410687732134
P 4.044300161839085 4.04973270405341 1.2471157494332223 -2.2895825346337406 0.9621883069233946 0.42550163235321553
P 5.850782960048434 0.45968222074251636 1.0318496390711636 1.0439668709537826 -0.7826216908082393 0.21180285044104166
P 2.1648448564157894 8.974021127040473 1.2787526465541785 0.02508573932403422 0.350004530456165 -0.18147180355766812
Ni 2.885645701088649 3.7265939494690743 7.581465543173304 0.6773255032718851 -1.0888968986972538 0.25498247115230926
Ni 4.283378451254085 7.947892837128702 1.5133818231915999 -0.03086326523775975 0.8955998203698835 0.20990383364611592
Ni 3.557497947450907 2.9184731142982834 3.2235832578486203 1.8283785637829093 0.015016270903174136 0.13224880486579804
Ni 5.196509863107913 0.008928870665081424 12.466972115227955 -0.5834401286756339 0.9557122122807477 1.1748123677141509
Ni 7.917442741537645 4.624542102313638 5.573921107372889 -0.7161532747723601 0.5859814070402488 0.27437681651852097
Ni 2.2777488705042552 6.415498044826664 1.3248651792369952 1.2104576277215862 1.2895167359382822 -0.18166566473602908
Ni 8.956711283130216 5.540793743541848 13.273428828065745 -4.033725588205336 -0.2432780382311875 0.18656464469954323
Ni 2.179712377928837 1.9112890741595405 13.384417987103625 0.14555709193892996 -1.2325989397053159 0.09177501312146776
Ni 5.355474406056289 7.504411664500904 3.7422378137669385 -1.3711693159137675 0.8668631145568232 -0.10498328428162566
Ni 7.740276860572046 1.1495352189479293 4.551589096533282 1.2984544047475444 0.8768161120044771 -0.0283096455779706
Ni 4.340591942848017 6.297635094768198 7.162110429815273 -3.5443757510479084 -0.1533724742182907 -0.5083186649504471
Ni 6.458475489899983 7.8151809383510855 11.269132773917585 1.9126364425917257 -0.9977489776368237 -0.19982948012924942
Ni 0.35530033313282866 0.6404075776581162 3.0087814673339395 0.4060859468307651 -1.1242652508942188 2.0174124959585513
Ni 7.85150932320995 2.3073631903700322 2.3367871390983845 0.17707830247566278 -0.09650558582791767 0.48048107391288863
Ni 1.7775185261299016 1.0252553685986994 6.686907853854295 0.32457426330851846 0.7124904812087922 -0.15325008970781348
Ni 3.1353476286116595 0.300024912581852 3.4944228821036725 -0.5498805475526336 0.5536418143672787 -0.8824992784321835
Ni 1.8827612627366284 4.466209034357696 0.4827765613114098 1.6638269330193474 -2.1748578546946353 -0.402244718707804
Ni 5.922631813231726 0.35775287056668 5.795490823982952 -0.0799512810136623 1.0399574926840733 -0.6800357031141966
Ni 4.970859703679089 9.186252442880068 9.908846490803501 -0.3800944078630099 1.3843922423619448 -0.5514574051214503
Ni 6.768780443902786 5.094183055142722 12.105409035993691 -0.38085751128127954 -0.28787947899064614 0.345197853096141
Ni 4.893652599457055 3.3908906998146873 13.040496276150643 -0.18109487983422357 -0.17375412319843625 -1.567691586046655
Ni 6.876744094815149 2.302088516903817 0.0680423590744858 0.7795831610922316 -0.5048862422301305 -0.952645914650598
Ni 5.813340207555862 3.107284137036126 1.94102690310472 -0.1886500664736622 1.3959879176193442 1.0089361046018945
Ni 1.224829325398767 8.500498460287309 12.086992253567285 -0.8633628147130485 0.19733422451122143 0.4294495612573701
Ni 3.5331768738452407 5.099095559127982 11.872463483122862 0.2002488270548551 1.3026887545438663 0.009981536692744099
P 8.96935006937585 3.4189634777871687 0.42904175401403366 0.11489180164458922 -0.8563347042216737 0.05880755705651162
Ni 9.027055740008002 1.0384513386611858 0.9742897648710864 0.5266948534647897 -0.5796639494626533 -2.2566973538699457
P 1.600891256187261 9.116465169819136 9.83800706896841 -1.0661367221826026 3.044183571859338 0.6391222527292864
Ni 5.280737483422305 7.0224940949071435 9.14161551867222 0.3788505081535798 0.008105145605637654 -0.024670506163486546
P 6.50123006144656 9.333943299934104 7.987377668310044 -0.7391998721791786 -0.28934912155763715 0.1361172866822688
P 5.969741704946711 2.676432464257012 11.115643490609493 0.36019458361528933 0.6960745017446142 -0.15241011030502138
P 4.387293233097309 7.39759952681004 11.171178001635306 -0.43708085255038276 -0.2350980735235564 -0.3319682417797444
Ni 1.7708601795184993 2.5084508298725523 4.539166683336527 -0.5781179451317721 -0.8278335114581873 1.5260314873037073
