# total energy = -340872.4109794491 ev
CRYSTAL
PRIMVEC
9.17522636530033 0.00000000000000 0.00000000000000
0.00000000000000 9.17522636530033 0.00000000000000
0.00000000000000 0.00000000000000 13.42887123171098
PRIMCOORD
 96 1
Ni 2.514379026563619 8.801363393549229 11.43668474860776 0.2631048431491275 0.9474779972964134 0.05857590066167976
Ni 3.106071022859906 8.482772009301058 2.0568866433027546 0.2888341295944316 0.7159303601282767 0.4753254978538781
Ni 3.370675375316001 6.274652862782934 8.711335155165983 -0.09496060993830098 1.2000883686721202 -0.5785969416507196
Ni 1.5502278921695223 0.46782460564377637 5.798304471868111 0.3288312388126595 -0.16853401245007749 0.3025471083051499
Ni 5.148283726675056 2.7713771163827943 8.17674609752727 0.8583360509224185 -3.08995563588813 -0.5356438351279613
Ni 9.17469417814946 5.6305244479462475 3.398632289977873 -1.9646053794598486 -0.5536788382528013 -0.465085822403741
Ni 6.986659602092391 6.847443892816191 6.422290512317792 -0.35621631569383166 1.3908575383713142 0.4164050693685861
Ni 7.575874287276533 2.291971540051058 8.154842997205371 0.5266238910175381 0.8348816765542201 0.35653050450014084
Ni 4.176599731454771 7.045738884503875 3.7944488017726714 0.24077918306873367 -0.29987316101741257 -0.465112047655986
Ni 3.166095353584542 4.94796100996595 5.037840609682467 -0.9699625515521747 1.4653061443991926 1.0838863328565398
Ni 5.105306966492513 4.6879350954541525 9.131269666921463 0.961533446948215 1.5567075762313256 0.4931447854234862
Ni 6.446734232813589 0.4960732925033008 8.951914177447444 0.47573995968347743 -0.16769814681234346 0.8405170204631266
Ni 8.136269586522724 7.298736575638254 12.590869500891856 -0.33071431476798524 -0.41499584772588527 0.889100842909101
Ni 1.6885903053959834 1.483634099384532 3.5543129429234943 0.8317811832520255 -1.5501803166357688 0.3028206736815107
Ni 5.649131806966357 5.208280531720668 11.320941103357816 -0.9820169116135474 1.4679872907757816 -0.8693789390001414
Ni 1.5675782451808775 4.387162000760743 11.485820838233202 -0.21687229454414905 -0.22540784281898602 0.6241733447289379
Ni 8.391212425641454 4.5761716633910545 12.369252918889911 0.3098364428777115 0.7944073705892576 -0.6449995374456698
Ni 3.3438837143994715 7.550724991875092 6.034343592155908 -0.5807800653449675 -0.6486253071237151 0.8154438795445828
Ni 7.706492809470956 4.232908095511189 9.859732174673999 -0.5886185875527798 0.6160491729599068 -0.3762585790566875
Ni 1.4925799450672772 4.891808624757333 8.832450895438745 -0.8724074414138201 -1.2077371434666297 2.4493444573181433
Ni 5.270167433392583 7.679086408389561 8.39504583520684 -0.007150495001852201 0.39123294097833267 -0.10642027383846833
Ni 3.534416464602435 2.9260806077230703 4.125201948536204 1.2599973863229266 -1.275297764125423 -1.520374803238562
Ni 3.6540614160926905 6.30874800386712 12.635439997889875 -0.1060870588687657 0.04567204811581812 -0.3353073334553064
Ni 6.9096060512783435 7.225022807212432 10.487330501734244 -0.4536104747742898 -1.2546664610283165 -1.1099028115249594
P 3.41341357961367 4.871824981786031 10.56744766062364 0.35883601270486587 0.8939306601975766 -0.4404155733505705
P 3.0113551613389014 4.970541241991833 0.5394051339452509 -1.6858677148694707 -1.565412045983859 2.790124898072879
P 6.323015480827807 3.643197948104618 12.346571759374275 1.795467414877185 -3.6178064573342334 -0.6738892238968265
P 8.996392004659418 5.833544681199689 10.589403977258318 0.5591349762713661 0.3781586242928778 0.47110117535988544
P 7.199277122098808 5.635185462927616 4.725243400803055 0.2785998534609331 -2.463347456465454 -0.46931502999374014
P 7.208443173213744 2.4985150602195505 5.808752302102924 0.4633590695206214 1.189276622768597 2.231882094598479
P 4.643077413871648 1.325278867960428 2.1691657230862327 -1.1103452983790167 -1.2815108349146702 0.5778073558698889
P 2.3867608033827934 8.075722267896635 0.03180133449886696 -0.8181273399140169 -0.0403938304360143 0.8479721911895913
Ni 5.914130694155127 8.873856856871662 2.7762179658004524 -0.3020758250956862 -1.3863151704162706 1.5261312461063652
Ni 7.855370032084521 7.620621866142942 4.433515244236875 -0.41277749991832785 1.6181222318933808 -1.3126638634787071
Ni 1.8340451685842516 6.870244330274264 10.562814171321296 0.2272083863628345 -1.9931808771046966 -0.29478006276522134
Ni 0.12191031487391675 1.7655429287202757 1.930185025233423 -0.8441741575997397 -0.47777344517373854 -0.8747546014897579
Ni 4.264709430010057 0.4873962809523549 9.659494787569868 -0.6901295970150889 0.8422502011041495 0.7466043921733658
Ni 8.29664336774191 1.4871940872049476 4.374898393232991 1.620557323697435 -0.8002592013843444 -0.8865395099398281
Ni 0.8066299310444144 7.474194428962499 2.147612198887938 -0.6007935323524168 1.087495904584669 -0.3045813651263593
Ni 3.767769996140139 3.3471684454296486 12.64236912882281 0.07236035604028183 1.105944855318476 -0.127499977326903
Ni 1.5981409241236721 2.8281809426616418 5.462113168452103 -0.4048816421100188 0.9958350484435624 1.3722748902731203
Ni 8.049481120560582 8.062932002376895 8.519101317999347 -0.9530189817193007 -0.2742896561213534 -1.0858866511160201
Ni 5.251523373467108 7.237308435283403 1.2893578568343276 -0.535233229953104 -0.4610083099002577 -0.10821618939662654
Ni 6.930039280340369 0.441134789739635 6.671946586018678 1.0486611911056585 -0.3335073041320901 -1.031646915935849
Ni 0.6084312792333137 2.787553040422466 9.832297330390947 -2.1960296036762434 -0.34893597998233455 -1.7795980519450962
Ni 6.096956254231418 2.170922778930587 10.498423350380845 0.3195500706210497 1.4194757163286391 0.6510254319247756
Ni 2.35742760476973 2.915107037018903 1.707373828761846 -0.14999712998815456 1.6498833263550619 0.12981397017206028
Ni 3.921280708056049 0.3221632998628293 4.448971830531391 -1.477885780836416 0.9661231232014266 -1.4913994990521346
Ni 3.204778107839367 1.2381050424919526 0.41241908385933956 -0.3612279099758101 -0.5164829459287944 -0.3873778288983006
Ni 4.928968291439506 3.3255149112642344 1.7495128907794302 -0.2344362715698414 1.1213905004495848 0.31963106037063016
Ni 8.0447283533158 1.9353121417129286 12.609697065344156 0.660841646684249 -1.4519623761024347 -2.8524484387024485
Ni 7.719273899764355 9.141479858794037 0.7164392911549272 -0.6442652303828066 -0.16787709559236896 -0.09511307635576521
Ni 0.40440360612759974 4.541250751936153 1.3607209322715137 1.568861180874724 -0.8652029532455808 -0.49891356958646327
Ni 7.672012308880436 3.342186297526335 0.7369486745955842 -1.8836559961989754 0.9705970998123801 1.8832348495011564
Ni 2.2494260155065553 5.677327277513102 2.875604935051802 1.4703372790651967 -0.7129419669239142 -1.151702521169565
Ni 9.041249686241924 5.7058255305291095 7.551242474640741 -3.215644528148223 -0.7581111072613848 -0.12425910179210213
P 3.1953276247078515 8.627043268291303 8.100657780524324 -1.2936382143058238 -1.343759556442247 0.3613587791267196
P 5.467710056520283 8.355529970400227 5.224542702887947 1.4061466033199008 -1.1169964851469472 0.13869995980778047
P 0.5365562261662843 3.422074993279836 3.4690934406657115 4.223692059497577 -0.34960575235584956 1.4853504646445774
P 1.9287426796525742 5.697338446163429 6.858634916384647 1.2195310507777644 0.28796381117433634 -0.7907929137651221
P 8.034259420060403 5.9356007237937165 1.0344994297979373 0.9432199933510079 0.8290864100286818 -1.1753492140542274
P 0.4265948085566129 2.975379098854753 7.564107059493845 0.8020348052275285 1.4885972537166492 -0.22651136029580993
P 5.9504737656929265 7.095266756294089 12.618452066319003 -0.10263046777873293 0.23294066086092144 -0.5034639079613071
P 0.8123653650303468 2.6109299333528795 13.441225808110893 0.6673617071909538 -0.16412996984511088 -0.9255436591171673
Ni 0.8185962612387081 6.661636384178985 5.127371550798017 1.9875411623204156 1.3984582335367077 1.8883755131618318
Ni 6.6324316387347 5.676987794138475 2.5857696276798285 -0.7936028724100913 0.3467024626661255 0.719825838527941
Ni 3.303760449609066 4.008326080355746 7.6838391756343425 -1.3057049156623706 1.9958918482779564 -1.9110534143753215
Ni 4.631782710245536 0.4433065658146153 6.8546602083336055 -0.22618971529033305 1.064405855534425 -0.1465063432260767
Ni 0.6341457685773774 0.24133689597724972 12.98833663590545 0.15126468384666855 -0.5945647778338857 0.2566688577157966
Ni 5.707963358266627 1.7691946688041038 13.388047113759486 0.4600919687335754 -0.031203422185997875 0.7748258489129042
Ni 1.696196568032902 1.7366226152925697 11.380605765209873 0.7540958154544045 0.7175175021097384 2.0386770617642824
Ni 5.814992373537626 1.707179313963411 4.55418690355472 -0.7909793187443152 -1.9948729200951387 -0.871331434740822
Ni 5.562636948247137 3.9090776570221504 4.980365156835438 0.357456615858836 1.664434227586043 0.12563232799054494
Ni 4.879211038990759 5.527514181812727 6.58718401003269 0.10529181666097996 1.0826822852461095 0.97102878803316
Ni 4.4750514938838375 8.669074980160694 12.936205752402214 0.35362567214852003 0.34721411219522136 -0.2462792869513565
Ni 0.9987692633797354 6.261174455287598 13.178946458009678 1.2913848994952728 0.5688807428042203 0.013600621502570123
Ni 5.833902515026998 5.011279246947104 0.30727098998830216 -0.36370413943044455 1.9850019408383297 1.1261470412979637
Ni 8.824191356686327 4.447801071650244 5.70336289977911 0.6637482788080827 -1.6339250032535924 -1.8675485491141517
Ni 7.859902593897112 3.6769719562668595 3.0127002495205324 -3.518688373584134 -0.012912594296610022 1.0069638113668722
Ni 6.934113080835896 4.301758993976134 7.0490162753529795 -0.6302282926737662 0.36102813526017824 0.5924425892845603
Ni 2.666054693211273 1.5545494237762638 7.824184355273154 -0.6067852311594776 -0.4573113206646447 -1.0679879164587283
Ni 0.30683791930499393 0.8556577529990295 7.587137795133085 -1.070330705659292 -0.7484625284280271 2.1687877372411553
Ni 4.3261650960439315 7.418950391161668 10.803996923496012 1.0724084141239272 0.09180406658719029 -1.8365207332740696
Ni 6.589500754683864 0.021473699729125283 11.73488602735771 0.2586141543676255 0.2720795358439121 -0.024920674501079664
Ni 1.0008520397592053 7.4161611223539206 8.118625626268448 3.5133173390802073 2.660385747002812 0.18164458169010653
Ni 2.923594121384584 2.8779748960157536 9.543925471620406 0.9123821820345448 0.40195675515373996 3.2618454521843177
Ni -0.02141222571263873 8.203652448773065 10.621780598448783 0.4210765067023264 0.5786977288946421 0.13006079607554374
Ni 6.887576332832937 1.7246397696908615 2.316399662662074 -0.5556804420638624 -0.03442989954309554 -0.5974636966482356
P 4.382409233515961 1.4884235675346786 11.732428901743516 -1.3497294008724368 -1.9543093968504797 -1.0969963878759368
P 3.9736437247857186 2.678615578072481 6.308897560056483 0.36800405235737915 -1.4606082247028909 -2.306919997470924
P 4.628103444482684 4.9393638228841725 3.1975214213260506 -1.290245386574191 0.3396167594639377 0.4469515746968754
P 2.043974347272675 8.426720551582196 4.26936035224245 0.2725991557928079 -1.9456892592816364 -2.8976931694728614
P 6.681509924434192 6.098635320651871 8.317937233034744 0.31689052151101554 -0.9851027496277228 2.2341567495652686
P 8.343345269819011 1.0105594292282767 10.456565050289306 -0.49919407694135964 0.7252611506108994 -0.5360593253988252
P 8.18810961535094 8.976536814856896 2.8137382188778375 0.4822075696856921 0.7943510634300256 -0.9364327952258453
P 8.77156225839276 8.497745978690025 6.245956424877956 0.648742806538186 -0.6991873363419829 0.38499261649557565
