# total energy = -340890.6997910901 ev
CRYSTAL
PRIMVEC
9.06647574160041 0.00000000000000 0.00000000000000
0.00000000000000 9.06647574160041 0.00000000000000
0.00000000000000 0.00000000000000 13.26970370124522
PRIMCOORD
 96 1
Ni 6.508006895202742 2.0201105088073703 11.643859817703104 0.04777006829542741 0.17504970208140821 -0.2856323348276823
Ni 4.586285780283366 0.44943698500183016 5.8991794547613905 1.1998572264979206 -1.6740609520425296 0.17695026153823074
Ni 2.6811925817287667 1.388548880642636 4.742379665172051 -0.12371042837748371 0.8215098832330044 -0.782053219899279
Ni 3.3736718598689364 4.48957368439291 4.91849504826594 0.07288203287170675 -0.7377423137970456 -1.5109774211840623
Ni 5.202588529908338 4.6685187145410225 2.7700503897529147 -0.7527084481885746 -0.22958254302196587 1.6033047072645743
Ni 7.2521016192887595 6.333123646151369 2.8567812025866717 0.5416468467889316 -2.245688147243636 -0.01829159922033624
Ni 5.309518543870279 4.293601812950875 11.788870842742117 -0.11669131674717322 0.9889048969826324 -0.7420072597209866
Ni 5.460720158491553 7.828947066831117 12.50109599822735 0.3833034017186108 0.2503549996826269 0.38643423403810867
Ni 2.103649015560408 6.59851752174014 0.22771904262137502 -0.43893616059156665 -0.8500954081801811 -0.838186315447421
Ni 2.6077994612419166 1.579234996773512 0.24351374987278235 1.6844834329274345 -0.6026886924926008 1.2015739520787112
Ni 0.6497652979996321 -0.12965150861939614 4.811673832011946 0.07260358239933946 0.6429989620758733 -0.859392774321707
Ni 8.721895188341856 2.469635438623125 1.3647357823154322 -0.5618287210534453 0.3143592704487296 -0.8117057526583892
Ni 6.8034289381852675 1.0052817549674495 4.851190972833933 -0.05505837442672454 -0.616765482300641 -0.45471219247890077
Ni 1.1424031328850688 7.294251664643098 2.3052257822569175 -1.7856905379960795 0.7460181806525927 1.0897726164339876
Ni 7.508818877668646 3.639718521705397 3.8887664483224866 0.6595373260505286 1.3256559048630008 -0.04627959979282997
Ni 7.5404155453519905 4.1488283295742185 12.883939719489105 1.5284894619258966 -0.42519669951828704 -0.25811124658927803
Ni 7.825374875420144 9.016455916136456 6.945774419379541 -0.7834603846594507 -1.7499987410214248 -0.715998751472367
Ni 7.337018230342478 0.5948940806434284 0.4338861659457405 -0.8125806990641747 -0.9674842652150113 0.35915688637939436
Ni 2.0151964789983676 6.151422407401898 9.110924965948042 0.24792453586426336 1.7958019153984686 -0.010946728819490825
Ni 0.17478079787638776 4.8481074644611635 1.794368864527957 -0.3974375271271478 0.315393882360831 -0.27396286890955396
Ni 6.269368189293615 2.168383651789699 7.199490674315184 0.1800942064838511 -0.516868097182355 -1.1563749869445696
Ni 3.387371304594771 4.297591062242316 0.35251908011383926 -1.4708070196127636 -0.3020012631040089 0.6248217769462142
Ni 6.008389687352417 5.718951518307054 5.059857723498413 -0.2324529225912255 0.39976926058411794 -0.9273516588601836
Ni 5.285764377634881 3.098948580823593 9.4190609277519 0.7597908089566527 -0.28990345139921037 0.408636995387393
P 0.3247647848162053 5.532327183272917 12.651720078348932 0.11303597938277307 -0.08469522345655091 0.16637788533902315
P 4.056459075526037 5.992813482164472 12.548110207774549 -0.04460144075945867 0.9876648539279441 -0.28453627355002614
P 2.541596055955322 8.561037777140163 1.2798454640411356 0.2510653954860902 0.9312011145132608 -0.3108787680992969
P 6.121911029120898 7.800813792850796 5.978929987982691 1.247895203742754 -0.14359276912370755 -0.3544008597516477
P 4.746354408102433 0.9901588735626234 12.513954074011718 -0.10900911761156712 0.7298685674759237 0.8162288373397232
P 4.1845774431109275 5.9699296975926615 8.020169011673639 -0.9927270989422 0.48417677759692096 1.2491010511253973
P 4.735519969685905 1.1647973277711121 3.733085994724005 0.036111915231208776 -0.2939092301244938 0.7233621338159736
P 0.1765460406878504 5.799697550556083 3.8332723640882786 -0.5967425022114948 -0.7445714209037371 -0.7885668526480806
Ni 1.1908543788247512 0.9169198831620331 2.385547503444948 0.5982486544433762 -0.30744531693771565 0.4260981282866339
Ni 1.8165590637115971 6.550057209324795 4.908954395926433 0.45453967145677854 0.1980425634321557 -0.9307398586061261
Ni 5.843515827432296 5.599419103174424 9.298625491643302 1.0260971897622135 -0.5431763960595807 0.4740039508289771
Ni 8.655891245519832 2.2889405786721766 10.141370724116388 0.19440522378988453 0.6493999805062107 0.5675771935014483
Ni 2.4073215513956856 5.260450777585556 6.868159947824294 -1.088851647281615 -0.44886550389013663 1.0043346012741412
Ni 0.51426591257801 9.299756081158398 9.102631860659676 -0.02072849079660301 -0.8490769942179957 0.09960710757137684
Ni 1.7071176359911806 1.013650112003813 11.278213387477727 -1.241684446946352 1.0095444276098549 -1.1155895774970916
Ni 4.244262052396281 7.163558417970097 1.3547436194879392 -0.3927954003694461 -0.03368222274379361 0.5894032882376042
Ni 5.645875724468386 7.957981148457907 8.181502412847607 -0.6552708374646908 0.13098279366918086 -0.25638552214742294
Ni 5.340988280894351 3.035020860928252 4.831100569413698 -0.9180491505123349 -0.3733565749185441 -0.3298725355929803
Ni 0.8234145997133566 7.689096679739126 6.968266532202739 0.29743781210304265 -0.5776052671614117 0.5451620590310418
Ni 4.764695888367399 4.1570334900486605 6.989842930984037 1.2690767229163755 1.8437709870785794 0.6722534880656164
Ni 7.881995015931619 7.566119003854798 9.099765947702801 0.7337311357551234 -0.8087798372608459 -0.16244409750225575
Ni 4.339913370634239 0.2280037299571733 10.47597988820679 1.1791667880281047 0.5083849994120083 -1.6814775562215754
Ni 8.19257620622162 7.227703733281333 5.085309133977806 -1.020795832153958 -0.264973263816434 0.5066124808926179
Ni 7.273090510447137 5.825337543729253 7.257492545717603 -0.6363194931731686 1.2402294596673804 -0.45479832443480384
Ni 2.5049130954253904 5.501691562009784 2.413466808599637 0.9659336328984396 -1.5413796876250034 0.9645339243374357
Ni 2.469454109109878 4.804833176124691 11.261732348018679 1.0344342488729992 1.2739217097135027 1.6011658065447005
Ni 1.1498648423551956 3.090426093700969 3.7131678543413535 -0.5031078101734691 0.8222688728862162 0.9866603239228298
Ni 3.799188762130747 2.7604517119691683 2.572676841173478 -1.2133974270762007 0.0326326984333567 0.17380580237197807
Ni 1.1149498445794253 3.5425440355561606 8.125464340073655 -0.9163987593931056 -0.20164647873333016 -0.13763578020932424
Ni 3.631649358365891 2.2980433202371917 6.813010389665255 -0.986762910938965 0.006331855755298772 0.3987490468497197
Ni 3.985894695445845 6.785794643021966 6.017558614189768 1.1612186881901163 1.0692500710006037 0.00830826275537924
Ni 0.6289894690193211 7.365106171944486 11.39859533137992 0.5681202104891119 0.32557339399699414 -0.4207641176682302
P 0.15233764402176764 5.943038530778084 8.122889460985544 -0.2881286188869748 -1.133003402098165 -0.020754716048848126
P 8.433363666862729 1.653861157950444 7.8215352229771336 0.03216270077547364 1.8023962807865344 2.251417079307613
P 1.6480948794291794 3.0348032655123554 10.335334371199208 0.6397382890467304 0.3264120878482056 -0.47594359105385137
P 4.062950672100291 6.289260036896845 3.794949278111025 0.07928999328057958 0.014965877281212936 -0.5260729036100746
P 7.145769992720535 4.03922370529188 10.628329318646916 -0.27080683977907555 0.3894907614762454 -1.1287461694837078
P 6.117006065787558 7.635250880780336 10.364659886729129 -0.05586338682652314 0.1384464490360777 -0.021544044719362897
P 2.639087868752741 8.457580223356908 5.7326446164999245 -1.7553499780310093 1.0218587262008336 0.7528028076745938
P 6.93764904389093 3.990110606628845 1.7032725436627711 0.8869981947438015 -0.5597286439913071 0.33686105109567144
Ni 5.131335097677806 2.9187705099853987 0.5288484320333592 1.1908802198102908 -1.3879673613077128 -0.4948404279583542
Ni 1.232424169736698 1.1001714892497692 6.822405978394165 1.411387540003866 -0.23223180771935487 0.7688351785471081
Ni 6.77963850604722 1.015409008282312 9.358485083908938 -0.6558861024511865 -0.7619155686091393 -0.8477521047589851
Ni 2.640538504858719 1.5837954340316818 8.970651174442617 0.1002118310349113 0.31181619231190166 0.5455158428260347
Ni 6.3593801596695805 1.9557747975072228 2.40608941735317 2.248278533678631 1.5055040567743168 1.3827390230292378
Ni 3.9927036186682816 6.766365185677516 10.389700585861018 0.13252519845563626 0.17589379524925836 0.3210551944116664
Ni 8.37331639855088 7.099521900366807 0.6498332965670998 -0.268558410064531 0.12955608852498332 -0.08204235921473613
Ni 7.721745058599305 3.719648571144813 8.36966623544921 -0.2048385033080666 0.5492138605029122 0.378978806201328
Ni 3.0333979617846887 8.48161545033784 12.182423885056256 0.2334631090232947 -1.3417504964320182 1.7501658627269083
Ni 0.3514193166159943 5.094760934855823 10.457972960893764 -2.3574177491101596 -1.199454334632547 -0.8580807403785028
Ni 8.628963812802606 2.345932444685807 5.770901517204843 -0.3696022500824344 0.3972022711878901 -0.777532706321106
Ni 3.680046205451599 2.6714823862943735 11.396074851145782 -0.12202455603462857 -0.8316847668834773 -0.12802216837896016
Ni 1.117298061775978 3.0820124042862935 12.59573549778139 -1.0600023271500905 1.4662057733953267 -0.13206651365166286
Ni 3.213304038353012 8.481334389592305 8.01275082128669 -0.31152720031657316 -0.5823924041374099 -0.13877426468914164
Ni 5.786714357407575 8.095601182536956 3.573000140601179 -1.319625896618837 0.2756435990460866 1.2239975711895499
Ni 3.252833872240926 8.459973772931772 3.456545793955923 0.0031668277637558364 -0.7481462827391889 -0.03955153704037704
Ni 3.1965219919019727 4.138546946173096 9.097350638586347 1.2819317245021729 -0.38489799989924034 -0.4006462638724326
Ni 7.43494523397169 6.33918005189383 11.649087547570025 -0.4889196915985451 -0.7828664598291937 -0.35921525042115554
Ni 0.7722615440262891 -0.05122196090210142 -0.03811818362728423 -0.7369043912767825 -0.5330462496041143 0.7876122020442952
Ni 4.931392109895655 0.5850170620568472 1.6058995016965294 -2.015106216422878 -2.2366008402303867 -1.9215131762560647
Ni 5.772398392336699 5.425197706846404 0.7050390668752446 0.11876773966022769 2.077501233720332 -1.7088430927187215
Ni 7.736505280977636 8.859714684885477 11.224550731327316 0.5897521869365907 -0.30443198403268856 0.529624882627391
Ni 0.03774373818242852 4.674892446931666 5.8896650952013045 0.33803295991658555 1.1334194065896608 -0.16668076129142262
Ni 8.072055545241792 8.636733782445255 2.925916706102475 0.3118866405385209 0.6123390710981712 -0.5093836158798517
P 8.380923171631606 1.7123671253996902 3.392107631480791 0.5129525641780327 -1.6275409541041197 1.1690942342834512
P 1.7578627002734415 3.123174203793434 1.6790423874550988 1.104187249197421 0.6898161795397281 -1.2351710713078663
P 4.723452490579296 1.1914527662184673 8.369414187425798 0.09675703971709143 -0.7680039408950644 0.3218424661996522
P 8.635509808230836 1.509078608098126 12.22495290909328 0.07801549744353016 0.4096099008236236 1.0459975282305665
P 6.36286168632393 7.7322531038919875 1.5050367732478431 0.7494025237437931 0.6064676999190587 -1.6010894447808104
P 1.804808911253171 3.151144281211832 5.980655338301241 -0.45278232244603955 0.40021123321754304 -0.5819141789494107
P 6.8543462655051135 4.013629044497021 6.0928901471732315 0.8077457395693767 -0.42149533940729994 0.14772710300705524
P 2.2296004954619923 8.267474361668423 10.096904194230314 0.14551492584708486 -0.1910414495239742 -0.462006669257785
