# total energy = -381165.5803185498 ev
CRYSTAL
PRIMVEC
9.29561839680061 0.00000000000000 0.00000000000000
0.00000000000000 9.29561839680061 0.00000000000000
0.00000000000000 0.00000000000000 13.60507713921990
PRIMCOORD
 96 1
Ni 3.7554391250149113 7.2876718612588585 3.024354541224499 -0.5208502217585546 0.6762538674742612 -0.5582690287266451
Ni 1.3067501463541458 2.759339249622653 3.2641433836406617 0.3900944564985153 -0.4923184328674489 -1.5956091383925295
Ni 3.308124672489193 9.206129471358716 8.526791736019504 1.5126293549651886 0.03880051780696544 -0.2559960000184882
Ni 0.3118986725116097 1.86831704450638 5.428670885502531 0.4046828958356514 -0.2428144683312076 -0.5941369462678477
Ni 1.3287435794639282 1.096734240078018 8.102258985043006 -0.7275903129647082 0.30989120737504694 0.5267367624463187
Ni 6.117083933075506 7.693193213504956 1.4281797389392688 -1.0657659691067454 -0.27246211599431136 -0.05944416219924602
Ni 0.3987560011821497 0.4750181840122289 3.349094180979496 -1.132227957384721 0.4951260775195731 0.8996171690593926
Ni 7.090465317123593 5.674956435611183 2.253490288097653 2.3397401293247384 -0.35046321526013835 1.1136275686747144
Ni 6.8895498212508794 4.22615994464563 11.381300456276671 0.4614006602426699 -1.2201108345406342 1.3558897640468777
Ni 1.5488173448375981 8.305569961774719 2.0408976364039293 0.2660901510296966 0.15873630963336532 -2.125884510119726
Ni 6.207177066507465 0.5544622570170666 2.417962312073958 0.08303300526277958 0.6577653217517705 -0.5869746241914536
Ni 8.179958270476117 8.830112411881196 1.4098943280050957 0.3138615048767046 0.18680118619038152 -0.7627131248097704
Ni 4.371032157247474 0.9569839132088414 6.336523737275006 -0.8578948496199419 -0.36819508532226264 1.8648620034209238
Ni 5.121774185246363 0.3487334899422202 10.915448681558424 0.9235986195756545 -1.4704398660813323 -3.187789453609168
Ni 6.7746745691922605 4.31529562938346 8.651223813344465 0.3068012555958135 -0.7400473077811384 0.6497087699958811
Ni 9.252282216663057 6.363120360611316 1.0963075711939354 -0.4707520195505828 -0.059126630958827205 0.7472399688748357
Ni 7.093142455219797 7.830879913091643 6.063728013081068 -0.9324498993186973 1.043491216868945 -1.4218298183831126
Ni 5.2100825599475185 5.114412055481804 10.415788742757217 -1.485987326897628 0.8939424872721186 1.2042219312245197
Ni 8.179335464044014 7.383993059011845 12.80990128672899 0.06877006758586221 -0.11934212410645899 0.5990204996123941
Ni 8.601337947694864 8.780557470246261 7.668841482009733 0.4189414626371946 1.0439308755095247 0.48929790087357034
Ni 1.440672120493046 8.487754786592399 9.986861023406117 -0.15835244393138534 -0.08431058642362255 -0.20225351618970974
Ni 6.004820749784363 8.860936682461093 12.841410644384203 -0.12251563673843417 0.17078398482651877 1.3386114365824042
Ni 2.0142768444598063 -0.06446139528448792 6.3081432847697325 1.8962682856463473 2.7556942271988345 -3.4724108306738324
Ni 3.987318325743367 5.816798276618018 4.790742341403449 0.9390938869977762 -1.1664285145258297 0.8807077337493993
P 6.042347161223159 6.708080759049199 4.286306313873668 -1.158076800127025 -0.5768195380353227 -0.48015865757646337
Ni 4.159343039661219 7.701559270055592 6.362087617408232 -2.827670974647453 0.3095721334727313 -0.9171675192383301
P 8.39218653392897 3.1844371741972375 10.363041685767296 0.8109287652830487 -0.7065967414321767 -1.7111084917141304
Ni 9.047453265448324 2.700693193202696 12.373069503061219 -0.8057497921852704 -0.8409721057226742 -1.0368037775464403
P 4.370809062406123 1.4619962690787776 1.089175043203599 -0.8677144068135251 -2.4938978184484855 -2.26453639029839
P 1.9099614148917672 8.455331669649489 4.238362302905652 0.6104336265453423 -1.167426359662725 0.7122007178825154
P 3.515779491694364 7.518100945518539 11.036751853733449 -0.45811787572634 0.23653557730103134 -1.449919120420161
Ni 3.664676707058902 8.586390593324396 0.6560215357325906 0.6239370603484158 0.2962471342290511 0.9614151762027958
Ni 6.849457819136554 1.815964121736179 0.20853418470482626 -0.6715299796360306 -2.0264406675990907 0.8957186053359348
Ni 2.2529697334678356 6.3940654742302785 0.9097751856554424 1.3994959307726025 -0.8407329931286747 -0.3258528729106259
Ni 3.2953246059667207 9.473350613204413 12.11190631572002 -0.9413443735948498 -1.4384915953095097 0.37089680052414187
Ni 7.479793702135016 0.9986282835942285 11.664353895363528 -1.4689342280700832 0.3452850134933086 -0.19369457087610512
Ni 4.9395707691919055 2.494228213151393 9.870116422489351 -0.5876544238672976 0.6053919503563768 -0.22488488043598043
Ni 0.8610308219440823 4.7055907587074 10.68982171375881 1.6662357995711563 -1.5197932197034794 -1.4978971909613363
Ni 7.467151661125166 2.992780114240561 2.9726551004270867 1.0219278888758723 0.013186416783286968 -0.4697937694023716
Ni 6.083638298109742 4.436278102724043 3.94106425819858 -2.8501246756652785 1.1556995581440999 0.5806602519376517
Ni 5.071698688981613 3.431217251204215 6.147223116580092 -0.7794101258494771 -0.09503954280535246 -0.07624349314477191
Ni 7.441384206949207 6.746071951407475 8.04947102733217 -0.5001757241283386 -1.396427576259924 0.3304746879533535
Ni -0.04232759833702243 5.266664989084986 12.480208941496016 -1.7179825931261448 0.007781700827947889 2.6108357039888266
Ni 7.8112940451447646 7.890576374389624 3.4624923592760086 -0.5342873211000669 1.2925755773692644 0.3184213563332452
Ni 6.594888013919097 7.1145874468445935 11.432400329687955 -2.1558933977769903 -0.6270642931234879 -1.1819559207374677
Ni 2.471007758414184 4.984431423540093 3.172853904121963 -0.19718484341755071 -0.21614698634235036 -0.5156720199917249
Ni 5.595283690393961 8.552917071503462 7.704555247862559 1.4509259644181207 1.9092145613943698 -0.03740492301101945
Ni 4.523694098059798 6.718547625355884 12.715890050145816 0.17783600657729373 -0.19597308249763667 1.235114249928002
Ni 5.316833441533633 8.685017104438 4.395555857682904 -0.33466635743719786 -1.8147506885868294 0.011744285020121708
Ni 3.1988174958459417 3.6319654259459164 1.1544683963339557 -0.6584281521467499 -0.3805345807242221 -0.29567454955503275
Ni 0.22989644532595532 4.187713266986264 4.705996047669187 0.1644251324880265 0.746265006556076 0.30972665677272465
Ni 2.25355535742638 6.193809967263226 9.480575167816808 0.7159961803692055 -0.10077644528912966 -0.24554060901311903
Ni 0.9515087939773696 3.5144595138830415 0.4128146944345737 0.2659821646969226 1.3086490858923592 1.8182594730710362
Ni 3.002540513549636 0.6930617863296111 3.220648255633906 1.2230010116042356 -0.2215190492875411 0.7159046490966638
Ni 1.4908312773233023 7.031001246285352 12.119701621301536 0.6778772620102971 0.5726168128078847 0.18132936444253286
Ni 0.36514304508537293 5.363274351008051 7.39686284267224 -0.385731037323497 1.2188718199272106 0.14456696011151876
P 3.1454327594344957 2.2921600605983694 8.048627914744236 0.581294800197857 0.2983690656680604 -0.014713909171406917
Ni 2.6237533597920146 2.1719677148209016 5.175330890598016 1.3754563733248957 -1.2716676235720032 -1.0576579952876302
P -0.18116974328953547 7.17232253266237 9.133034305713972 2.972476533132339 1.5337139435496296 -0.2590458425884055
Ni 2.1993061285047015 2.107363167013214 12.391000750934749 -0.6095591943601889 1.4889664641306097 0.8524718788321576
P 3.8414793688290056 3.3445913834315757 3.7473008111148207 -0.297336767748804 0.5527853799042545 1.1872379950720136
P 7.675178305065921 4.736749671549324 6.765818633552493 0.038411509898662884 0.5037585563835905 -0.3412321835801736
P 2.4008630220462974 4.323020288265214 12.335859142647669 -0.3839050398583517 0.13534287041008947 0.3571514259135914
Ni 0.3186584462045234 0.3387165315655923 11.730229154205075 1.460888217837155 0.01325532234800943 0.7851195175294285
Ni 0.7477348954498552 6.670619416939131 3.4923145621935086 -1.0479657077005307 -0.5260759889338682 -0.9760905188267834
Ni 7.3989125265271465 3.8878645045930864 0.06458502700906954 0.2022458028802259 2.0634398705312593 0.9947387300555901
Ni 8.573683482985818 0.9046337791241572 9.602694495286439 1.7094401028727721 1.1804166012748059 0.17546956322764617
Ni 5.16986971479413 2.899582244266478 2.175656216197893 2.5452928850910097 0.9430659842716468 0.9775449918851229
Ni 5.263058289149823 1.4860254426158817 4.344114835076723 0.39488673568083604 4.03172835526965 -0.39805587743743703
Ni 5.120035904607509 2.1268467831578057 12.190502628327728 -0.1850618349017716 -0.43409014535317497 1.174804654404667
Ni 2.2314689681327016 3.912200433537047 6.350686541453393 -0.07571050345943735 1.2541766658760916 1.9084856536481454
Ni 7.309748954934148 3.2283310842329067 5.3286193560898 0.9518069636890706 -1.093774281394213 0.9658513575972785
Ni 2.1589910315490264 1.3855305122059662 1.2492344371303634 -0.775995186630657 -0.11252458696399331 -1.2424015276180345
Ni 4.5491547968289 4.1671513591084794 12.826308982748465 0.007473425558909709 1.4837597231186899 0.21047950364392784
Ni 2.516137985695669 1.450544067222796 10.240868443711006 -0.08095709657035735 -1.1375678815403958 -0.6608282769478103
Ni 6.801603975666918 1.1743247667759702 6.5594837921586455 -1.3425459957501202 -0.7477616457062606 -1.082647318243116
Ni 8.189002907169193 5.834590090215703 10.348470803941607 -0.6812510635785365 -0.23193021731853602 0.09167859675291952
Ni 2.9114155664764327 3.649171615585057 9.99752774550818 -0.3816455544002137 1.3592923619705237 0.6450561017152181
Ni 4.360639655887907 4.65873154640545 8.466140614712911 -1.2341382591679777 -0.3699210668744339 -2.0574165471553147
Ni 8.777294708191514 1.78263003419109 1.650908332925007 0.81944940115955 0.42582379157932465 -1.3214477803189242
Ni 7.953126590533211 6.004532585614285 4.790878057431938 0.8940381323097183 -1.7145835947469248 1.2885201763529681
Ni 5.573662082019762 6.078321204390893 6.97522753594778 -0.18173585585233215 -1.5217362023624632 -0.5425770719126849
Ni 4.861552644048031 5.238006597589863 1.754537745855894 -1.146283921257155 0.9889838298496838 -0.21141307120179073
Ni 1.647230056728244 7.686965149183928 7.559538953175676 -1.1012574771451356 -2.960636088853985 2.5953538063031427
Ni 6.948614180498369 8.563960266150302 9.577171515874126 1.2463872517386598 0.9000128618359144 1.0606497309261023
Ni 6.656815423630581 1.747548370388757 8.685209523738665 0.21746673359503835 -0.24976955949280208 0.6595383544917932
Ni 1.6083185981493981 6.170226983408822 5.492383053944818 0.9519499170248381 0.0409594731314972 0.4310251332746061
Ni 5.165128949415436 7.264776753165285 9.423230497971394 -2.1364717987172686 -1.279790252679138 0.8828170667829183
P 6.4063356905045445 5.8461166570188015 0.28306180514340695 -0.35145771796292374 0.1963201814244103 -1.9618769247850922
Ni 8.721911413826305 2.1804639100289918 7.389679188780762 -1.3933553650925037 0.5258070515431977 0.431378917069599
P 2.9332881565471505 5.891730256456546 7.22938461570874 0.7295320100721113 0.016391296873829838 0.29574936865702617
Ni 0.6991941057812272 3.4828822982135863 8.618136059686702 0.7968818002716792 -0.4327331171046483 1.3408135864400454
P 0.17875288250824067 4.570153598770996 2.4423837607071035 -0.2566557450896741 -0.0855575714568462 0.13935070601790195
P 7.917933379310203 0.6742706937550442 4.8740050544427325 0.09301222796267852 -1.1596752549623965 -1.3506423996050094
P 0.4288022285028387 8.543175263431166 -0.01894075203063949 2.003081681158176 0.08784328216722936 0.539126394359923
Ni 0.08238706578698358 8.084343539720738 5.61359048125043 -0.08712568727491446 0.10193549859423735 -1.6315562459111
