# total energy = -340862.2038252765 ev
CRYSTAL
PRIMVEC
9.34016294711587 0.00000000000000 0.00000000000000

0.00000000000000 9.34016294711587 0.00000000000000

0.00000000000000 0.00000000000000 13.67027259124319

PRIMCOORD
 96 1
Ni 8.827845662070446 0.2826174522711511 12.981427329445138 1.4838651383483026 0.5963303543747407 2.2911514217827573
Ni 0.23669747519557557 0.5555939883561886 8.632845476285516 0.5268997703867442 0.06889296631697167 -0.029396707994562277
Ni 7.587238519636284 9.170171973964703 10.25508327027949 -0.15953232317209942 0.3564412872204442 -2.8164445098040143
Ni 6.055498498379062 3.8611673181963377 4.656231876124829 1.50651398609607 -0.6895683251949802 -1.017412260393706
Ni 8.502957434384168 7.148465685229134 4.899822391569728 -1.0964083765829504 1.2299324486167462 0.6570243298206878
Ni 9.010174982811703 8.5678155258358 2.384642604172044 0.9496732051755193 0.3556429596888649 0.07569044885477932
Ni 4.374418611882765 7.185602173076438 12.722143472229355 -0.5928555084522629 -0.006053148172615382 -0.2622414667075677
Ni 3.9487687064055605 4.592707559940953 4.597531754099186 -1.2672892919986496 0.3955053431014415 1.6907885492098558
Ni 9.427026454799934 6.47080884348228 1.3349866868885545 2.1523247065891256 -1.1631506151055064 -2.0630264371429248
Ni 3.6314273303743683 3.990827460121962 2.3686344989100983 -1.171797749257543 -0.7272915507773667 -1.3121169898363014
Ni 2.295270321069499 7.948254497572404 1.4587681302600808 0.8770184578232704 -3.485302084814204 0.021664372347311077
Ni 1.5549690064876671 2.58028539316721 2.407622207052005 0.04185267436972792 -1.2414946995330491 -0.6186665559780957
Ni 5.721232747101562 5.880370443264131 3.8262276366723946 0.4418211954488455 1.6039456832826828 2.033929519776968
Ni 4.92457288934301 0.07672757051510005 8.726664610963539 1.237341339486308 -0.5560717639650101 0.21129994266269414
Ni 6.5069085732433045 2.812939511826292 6.579228520867272 1.4536911858680837 -0.9560217731013664 0.10245768964629451
Ni 1.089399244607198 3.5955611046868303 11.828189939179298 -0.4311765712508058 0.5369476415410495 -0.7174694224806224
Ni 1.7521305059767902 1.9320033638649672 13.470331620397268 -1.331696968850758 -1.3306723842409858 1.0021738461773966
Ni 1.4994417378125602 0.48925828312753494 3.82070479832629 0.3609875118302299 -1.0877411878262557 -0.17463344047959603
Ni 3.833585817036104 5.771370741760599 8.952128672191822 1.764142893732291 0.3016472221986998 -0.6635940126184056
Ni 6.962904668110824 1.8382935090933357 13.03208930724508 0.9039618191813334 3.3153472807571998 1.2156592265271837
Ni 6.812836270162473 4.1274086627857285 8.43190588088738 1.2519130666528955 1.3828963745427085 0.6717528942801141
Ni 8.597610645612686 4.103329722727794 2.028231326565078 -0.8392556372521998 0.5391310223456135 1.1912129205593613
Ni 8.756925804871104 1.837555636221118 1.4758288718853039 0.7950439757319921 -1.297993663061042 -0.8802521342692196
Ni 3.689709947116617 7.5424430981786195 7.590008811964129 -1.2827825025382424 0.4018451692765402 -1.5297768132787524
P 2.9897487962703253 2.7538536410712497 4.091225805574543 -0.03964409675418334 -1.9073325138803088 0.36972643436512453
P 4.625472851532589 4.27035051641127 10.99137765496029 -0.384427488020725 0.14169195255656886 -0.11874485684209227
P 2.2652977381967623 8.008143622340242 9.050486192042131 -0.2205363736592976 0.14860024964062796 0.6120914738637394
P 8.075187311919706 7.8252445516596785 0.45418410325726377 -0.5047252911722339 1.6577493593666999 -0.6792276053906043
P 1.6015016982520716 1.6330154080098194 10.887934416389445 -1.3695032410652543 0.3991691651062738 2.3936458782042584
P 5.5101637449955785 6.340083922981557 0.598943552590824 -1.3766149124093712 -1.16376536587137 1.290671418368016
P 5.01692842048842 0.9162681163287254 13.047250259728415 -2.3612795460584106 0.35691899818781114 0.34424885891931034
P 8.632234629629275 4.989384279979944 7.76645102800464 2.368658612131301 0.749738052706341 0.7898742586055946
Ni 5.859037511110398 6.901595838576189 7.712931894361518 -0.16752896822433083 -1.2124404624795702 0.3986343756487264
Ni 3.1348015267201848 2.811968134880588 6.7476325926820815 1.5114857282790486 0.7661728012235965 -0.34579460613987545
Ni 8.543764606266683 7.840917345072097 11.719456432319543 -1.281122084116684 -3.1538686324920073 1.6231155713429142
Ni 6.6545672091532735 9.18777818110559 12.332882841564297 -0.8596565695060548 -3.633948357201419 0.2537300868024469
Ni 5.919776590705725 6.374035415266504 11.143199201492378 -0.3263164428106058 -0.6794842014861008 -0.05092866852906713
Ni 2.9690042943817785 9.172946002357723 13.116093798706315 -0.15678304256173642 0.35152456664511716 0.15266079286324674
Ni 2.1481814350988366 8.395330736832738 5.758315062003818 -2.3184279981105234 0.5262341117782872 0.9767731467161047
Ni 5.138565362449046 2.75193890766866 8.753239242558898 -1.2849828526236708 -0.9905308626218295 -0.2760860859001439
Ni 3.986502964680991 7.742864314533615 4.642069387059721 2.0149509217919364 -1.1297136756032995 -0.682264078224083
Ni 3.1046328004257195 6.059682891375941 11.037023031245447 -0.7381799155550964 -0.47637425083336676 0.4392277236900564
Ni 1.1769259115129054 5.471682273684991 8.87061240013766 -0.07058732330025909 0.7108812277401435 0.5875760052208784
Ni 1.4365357404152772 4.430067302676085 3.8468834070130167 -0.27950488177370575 1.522102070342314 0.1014197353000834
Ni 1.1472055130395342 8.801665185351133 11.170635930127052 2.7744247137288025 1.8884601024558383 0.9420529696261001
Ni 0.679932105438907 6.662198122274814 6.675371488084633 1.3848375574294796 -0.526381435989429 -0.25033957306365917
Ni 8.024021899337328 6.153467467451088 9.647453366154965 -1.8999963852302117 -1.9777306039878972 0.522972153197564
Ni 8.521805883196006 1.2790792735818113 4.106221437173851 0.7335231335093755 -1.2144878319269021 -0.7830158409228644
Ni 3.116223942633593 0.5054858822185578 7.364859514226905 -1.1117149250330336 0.255735804378566 0.5707640758698622
Ni 0.9930087630719406 3.972931707929951 0.5596308067786245 -0.4151501139155625 0.5621490805073415 -0.7951373067767467
Ni 3.8228446296557217 0.58610736666312 5.14557235268623 0.5266961390163704 2.4164937293367097 -0.05961488344915539
Ni 3.960817516597468 6.318013117955606 2.467579515009299 -0.45726246970458023 1.039672871564119 -0.6420062591453007
Ni 3.4833950879468203 2.4865568580697 12.10866289003955 1.4820249998157702 -0.6085816609382679 -1.3202581308861971
Ni 3.1445433166660446 1.5966821741753086 9.54278002812499 0.9414302484404367 -1.0826439758090063 -0.05182829752520106
Ni 4.782742515107266 8.433205097552259 1.0216055399436943 0.8594292839865973 -0.07385545252856958 -0.49058988021211636
Ni -0.09642410612183949 3.221963927271253 9.421332691472038 0.9806393145397306 1.574643591884456 1.2319170831469428
P 2.672323358772678 6.1915473117552775 5.309137286082106 -1.7311929211688315 -0.38730532378915233 1.404071723068743
P 9.07751755760523 6.033661197426596 3.298841874409678 0.19223701249397218 -1.993913898615979 0.39566809393155083
P 6.1422592719237326 7.782008937412904 9.636106936216105 -0.4450546147844787 -0.18606070847993117 -0.5503502881002005
P 6.905191801307883 2.429665925605431 2.2732975877544126 0.22029494707245287 0.5048967837530918 -0.0876602196221458
P 6.358530744786996 7.368790788808124 5.641926357598876 -0.18936997535882225 0.3776444036606206 -0.0592209904448464
P 5.450601525930623 1.088287765217402 6.868724069127043 -2.050226971385411 -1.1500143348338645 -0.9050054299544995
P 7.714105952843008 1.7973742552555485 9.127654618247973 -1.7630789712441508 0.31840670104522584 -0.49578685103202363
P 5.741052572859101 7.9484039401794355 3.2261436501866623 -0.6346919848720747 1.0252196722532667 -1.3733421551953702
Ni 3.886880786768679 1.636816854326181 1.3039661377340102 -0.19582447273491435 1.7740897205323576 -3.1504472655152838
Ni 0.14384504738178672 7.684983324797763 9.573824861703178 1.6242537987124155 0.8332888781458035 -2.3172982553814543
Ni 1.2536553500605931 2.290525518296252 5.277025805896232 -0.8290768969469849 -0.09809427047127621 -0.07519371172401888
Ni 5.768456610923486 4.047494228675683 13.188381989776289 -0.21197588568379622 0.18929181382271917 -0.5400854158390828
Ni 4.01398172404889 9.129635666807435 10.960523360706068 -0.7016285987936238 -1.1988879206061158 0.31415152531329765
Ni 7.259240017691164 5.991256857681435 13.241996393081394 1.805411670574091 -0.2702450537383346 -0.5336825976365325
Ni 8.976821260954882 2.729690639546859 7.229195515563794 -0.5003199630156868 0.07191092720768906 -1.68874143687284
Ni 3.7566135342519895 9.45177788658951 2.738934598808046 -0.4722797690490189 -1.5451124151945583 2.712268809025348
Ni 2.8709699441691754 3.8759341158036285 9.298423619319056 -0.7414747842562843 -1.365815507801022 0.6311654597760549
Ni 6.382133336535019 0.3923512905817253 4.367037081111707 -1.040024598476583 -0.7540171396976693 2.2057314043450402
Ni 5.671982067921774 1.3556312490336493 10.702360323043019 0.8453553223920344 1.3062602739452083 0.1567105374525882
Ni 1.8761398493240393 6.819981494811162 12.956438657516898 -0.36953925805498294 -0.26798839649367395 0.03734630185894213
Ni 5.0272025997218295 2.1538228935142723 3.2906393433162417 -0.008809370761513861 -0.2499171408142599 0.6987268517657966
Ni 8.542456983455157 1.6744763912980953 11.136610650554882 1.1261084747505445 1.6914495798326223 1.0321703925394867
Ni 1.4730837979973956 7.185845017312864 3.790466020809779 0.4237296280544573 0.1338889115723823 -0.7363379772503512
Ni 6.9394421788068925 0.22190359111576027 2.1628286786205027 -0.8960705893587149 -0.24065114213130168 -1.384552422088893
Ni 7.5609926617763925 0.5571239070456726 7.241662765055389 -0.4478139226971707 0.32655658384586983 0.21980540903054405
Ni 1.3446191969280226 4.364387276885782 6.354366900148584 0.08905607152840792 0.9420876795187776 0.5941148347806606
Ni 7.326068883523021 5.432378868035731 6.184718718630236 -0.8456435430564145 -0.9385493273482161 -0.9609888872986547
Ni 6.90226833030783 4.13590821106064 10.844162676789946 -0.05050546494871947 -0.7993482595343008 0.6346333637199973
Ni 5.843047152158037 4.312820237297007 2.0268097537656917 0.3825917203635669 -0.5532841739175439 -0.7301007380913878
Ni 7.202713351581535 6.14453827168096 2.210196380951695 0.921818130636464 1.642823848405119 -1.0967480193105563
Ni 8.104590144853136 7.490212907021142 7.521575306139271 -0.40878689070169594 0.9284621183155429 -0.0893337506698268
Ni 3.3450766149763136 4.484212227236152 13.41176786475054 -0.2186638392269331 0.5379007494829382 -0.1790984182294851
P 2.23455926196299 5.459549402026629 1.4106083821116222 -0.05145934422155654 1.1110032436779897 -0.30436230713701773
P 5.025997718702638 4.334433374338924 6.741563354804019 -0.4309037772053933 1.0168982968717648 0.460641156368826
P 8.125381347556381 3.1015692269815753 4.964004255224541 0.4321829010281331 0.9354951139029244 1.3438899113725242
P 0.547638971580648 6.275468675766352 11.227135509764157 1.2929782121243216 -1.2735751250073615 -0.4999762065230228
P 1.5240624073209845 0.3672869633336765 1.5852460786722302 -1.3369579601393813 4.1748794088702486 -0.22507899872465753
P 1.6126351724759114 2.251931965030391 8.115083817915622 0.10019409042309842 0.4063826521355775 -0.6791383881109078
P 8.21841871059637 3.9361781667631646 12.742593758985308 0.0070059990041879345 -0.8540551641588775 -0.06343477141587785
P 9.075911049579643 9.03422590238082 5.909221272567837 1.5797454318873954 0.09805544681354081 -0.25017116580659493
