# total energy = -381171.2047295507 ev
CRYSTAL
PRIMVEC
9.21602298697298 0.00000000000000 0.00000000000000

0.00000000000000 9.21602298697298 0.00000000000000

0.00000000000000 0.00000000000000 13.48858121131209

PRIMCOORD
 96 1
Ni 0.7212219771107279 2.8053112385872776 10.568114639569163 -2.3651529129708884 0.06154526770264885 1.1361764005095076
Ni 0.8392349913598377 9.042844445877837 2.098135401717785 0.07919383402234748 -0.48702607412025795 0.552786408345519
Ni 5.727831854241697 4.091361130302521 7.4725392355190845 0.7559760631962529 0.20491795039575028 -1.0381505213823217
Ni 7.327797912151392 3.3857087019901284 0.12671846931890257 2.240726689473302 -1.863007209600372 1.3398540507402537
Ni 7.902988322712371 5.102054694921358 4.687254414321877 1.876221908518433 -2.3920368818459257 -0.5534034731042276
Ni 0.4363528713534701 8.735987753093783 8.277321969111183 0.6195476730314685 -0.1414456408737177 0.2034562782485593
Ni 4.421949081613693 3.9114459345874115 12.446305050848522 0.4983857221074514 0.5000122019672808 -0.8263831521649058
Ni 2.5976650304806728 3.0768152681829712 7.284710241086601 -0.7999429556955062 0.43662088219482864 0.7891101267460604
Ni 7.116133518134952 9.049397038038139 12.267230356406294 1.0360041644632803 -0.9787580383566176 0.6272758949136615
Ni 1.6639252556488024 1.4010842874183478 0.46436958044956345 -0.44231664702802537 0.9255356886973672 0.9752384552391332
Ni 6.955544322082511 6.51176517961403 0.5390682094747493 -0.9700399417573294 -1.6929549607335552 -0.6255972216596581
Ni 3.833008365141079 4.745827768378169 6.248463410247127 1.1216841204306038 1.0309866566440309 -0.8350840223730134
Ni 6.747852033862261 8.813135079358057 6.532654216731531 -1.629297017563278 -0.9422676567400676 -2.544913390264404
Ni 1.7813926813523566 5.410542623728442 7.266056089480877 0.09680769044936877 -0.7941340623232129 0.41515808433536244
Ni 4.265018646584655 7.778498287689335 5.68350831452895 1.008822718952482 0.12874773369107503 -0.7200448965172825
Ni 6.082123416011801 1.74393876498179 12.681438046744304 -0.5759319932240469 0.8937902779649703 0.26855866717484717
Ni 7.8826116964586 0.7707986497789924 1.1244893268671667 -1.509417790006426 1.0967364493463305 -0.41879568108794973
Ni 1.7152032061128362 4.325236139095797 3.368800065089273 -0.16082918760665205 1.4565101433741172 1.1399836900707399
Ni 4.184341583615181 1.1633661971470879 6.105768043925267 -0.9253819367283224 -0.8133746557203799 0.02399430603206835
Ni 6.500199071089162 5.677807282868804 2.7659274870572625 0.046303253941913806 1.2255541170433928 1.4548065304194493
Ni 0.0801563576852867 4.663454957226564 13.286575923163097 0.13325153509869955 -0.3183802186826646 -1.3500921835284942
Ni 0.08139591274233425 6.588313464400921 9.414449227946598 1.2997556400574712 1.1627749769336426 0.24431676390834697
Ni 7.494838324114119 2.837806934729654 10.89850352478939 0.9811589344886263 -0.009428492402751506 1.0181347403820273
Ni 5.552506237845619 3.7021961385259643 9.80646842196232 -0.42944930414705396 -0.24749027654032216 1.7384835412929738
P 5.688092364234344 7.162499328484441 12.331760025952327 -0.013194387203086955 -0.07212458588039192 -0.7203850534655207
Ni 1.692568654290466 1.6433274448495363 5.87099908092728 -0.5678983242862928 -1.2183174900856373 -0.8626395633937789
P 0.7803999022580418 8.176934598331245 4.752755452663543 -0.8778458388205721 0.6402810489240779 -0.9466963819353825
Ni 1.7700661894184426 8.343320672680214 13.174553323687823 0.47164624923007803 -0.37094847969768374 0.6671012544407157
P 5.919350022572591 4.021236413357728 4.369990067069988 0.4344251600950906 -1.0426926322270493 -0.3038378020921154
P 3.625915118398213 5.297259272343842 1.6949076808590808 0.3122995597062234 0.6457073621459718 -0.6054467148537122
P 2.300144168721074 0.837671953905003 7.909636761509056 0.011481518277038291 1.9037234563728114 -0.17656511028467012
Ni 3.1992224820692576 7.873487833956912 11.312319534161416 0.6880714289344795 -1.843267822189916 0.021649974169607875
Ni 2.0122171866223413 3.950521870958278 1.1943218958914523 0.024965411696086036 0.14142764315158868 -1.8882130194420383
Ni 6.794540405007264 2.4607610128417035 2.5565173322003316 -0.7626516754442155 0.7680106257632837 0.150179935422922
Ni 2.179349758812358 1.138022134642398 11.810223456514912 0.5525177280651646 -0.5331781471962883 -0.9275956565501896
Ni 0.4188931162934212 4.088107874279192 8.746696771504855 0.5868306424144216 1.859131785805366 0.01167486523476699
Ni 3.850739992871633 4.657234141884503 8.704707650349357 -1.440739767913738 0.8300102073945318 -0.49604833222352634
Ni 2.6959631289079526 7.239121341453165 2.5366217823330133 -0.9126922570757959 -0.9219137756740637 0.6497884741938809
Ni 7.983324392840873 5.054435505480729 7.107079697406005 0.15991798864629234 0.7876790507264887 0.41230338849538667
Ni 4.708447580189434 6.762413349774046 9.713666759490602 0.5194690251403118 0.22783804952703343 1.0605998515247734
Ni 7.726814832225227 2.8748645621228746 6.211532042365293 0.7658750674775198 3.3960087004640087 -0.9087942075729704
Ni 7.519205488209538 3.118112266031522 8.652088768578258 0.04141712949420609 -0.7138300259558222 -0.19891622428636063
Ni 6.1991945527380095 1.496073833685925 5.020908536394979 0.33377649863307673 0.1935935265218666 -1.3634791463583615
Ni 0.27738200889223597 1.9586075824078757 8.009842576641235 0.6091578451567122 -1.0205790881574617 -0.09472072601335299
Ni 8.559915638856657 0.7267654147822081 10.435656431294653 1.1599639898474088 -0.6068860184034 -0.40063906478358097
Ni 7.4385192092173344 5.6095902826289095 9.417713543197202 -3.2516170895880903 -2.0936287354098133 0.5193998624652733
Ni 3.9509734560719982 3.2341419921893557 2.471471874457322 1.5861014560124103 -0.06747268893067734 -1.0071556156627042
Ni 3.887567219696629 2.1103309645950414 0.12899943494432464 -0.283398303290841 -0.9101226965764068 1.1072219222586865
Ni 2.31478842883742 6.850371070699413 9.076533616963616 1.01390141902697 -0.07315559824806755 0.6086186848237906
Ni 6.05020832930135 0.9421079234697824 10.327424381967807 -0.6484054778034253 0.44964171993452884 -0.6045005488903589
Ni 2.390700808056012 6.308708550826456 4.8202388574942105 -1.018590596972523 0.543860823721115 0.8026611259576177
Ni 6.1268487743155315 6.091809455899957 5.226798170569441 -2.5177131757005284 1.635575394372822 1.06742330220451
Ni 6.498060953816039 4.561728498344103 12.040109770671087 0.3253149981292849 2.622180696688 -1.1681606667255882
Ni 2.0969400835698364 2.0328057813988782 2.8365812037066997 -0.6838892725323319 -1.6648402047752102 -0.10966089226295307
Ni 3.221322504573347 2.996147421236226 4.722932403112569 0.5325266296552184 -0.0025384501511375637 0.5835630274067434
Ni 7.806902069740046 7.702032947107004 2.078603884748262 0.9746987806855795 1.0680524511480767 0.7800572725151727
P 6.367801688564664 1.7733839576008747 7.199975363309558 -1.8102201477063276 -1.1247761290923661 0.841423591437796
Ni 1.195161475562062 6.460800573922781 11.70843893668926 -0.39566937948313147 -0.18474430366135278 -0.36784438685106324
P 1.3955731058264191 8.260339604028497 10.370628174918982 -1.8917932805941287 1.5515404302080893 0.37350981266695676
Ni 4.1750610487271 5.18770841016448 3.7517138286487635 0.14112630986108599 0.7303853592113422 0.737990939472742
P 5.439656039529282 0.6739529965337994 1.2256508435563402 -0.014280421178414118 0.8591534046173913 -0.04103454934380675
P 9.023177453374197 4.912259922840784 11.05607723820491 -0.6686901961943903 -0.6679486900426754 -0.6879834972063635
P 7.889449985323502 7.342672572835963 7.694007634514611 -0.3260451914270901 -0.33038804177681813 1.2781426897733859
Ni 0.771840060347367 6.404674995503304 1.2126451922812065 -0.1111711582598924 0.8609925147086591 -0.5112844324469904
Ni 4.7635501800859945 7.377675027160621 1.4959641630154499 1.197790573776879 -0.19070823455427158 -0.17244620302029012
Ni 4.2202379921445505 1.0718603074710646 3.529570816789476 3.047397450810945 0.39753265794411535 -0.6613322131674224
Ni 4.4667205200310685 2.159710414376906 8.236167819614932 0.719905799836257 -0.7412801517469749 0.9973432575579727
Ni 0.17894106211265676 6.386113925727143 3.5523933754755173 1.0190238278552 0.6548412061264399 -0.11930047223524616
Ni 3.2701213449232855 0.03225423634687742 1.508535739620049 0.4649266711180574 0.7812710903176159 0.12370091529578696
Ni 4.5137038039033985 8.946813489041885 12.734514964845033 0.5852990362612436 0.7803359800978561 1.0347011293811408
Ni 9.360806446050306 2.6482702112854914 1.7057116243042616 -0.7882899448376102 -1.7613172513580375 -0.03994645848595056
Ni 7.866548168841992 6.785693023187444 12.045882687308518 1.7944394878333032 -0.9297250441883665 -1.2099464924131227
Ni 6.928744127986642 7.921318991920308 10.171927960075397 -0.48828308645581076 -0.5410542075102553 -0.797641047035207
Ni 2.5616119495649103 9.187416194427314 4.220374389280939 -1.2006609533461388 -1.0767193827944552 0.11409733076775189
Ni 5.751065447541451 6.82360774069446 7.659948900917399 1.292895165492212 -1.7211838736722616 -0.8955753948898512
Ni 2.2248308309798652 3.6270947693075226 12.291995652683605 -1.4867499160952653 -0.26968352480790975 0.2510774796709483
Ni 2.16779286631022 8.463912330088892 6.5561108377813255 0.25639272123627455 -1.196884774133158 -0.1732833542096048
Ni 8.205808397541132 0.7705664060062222 3.468628944891836 0.28552846225996636 0.17547521965460103 0.040018706484782694
Ni 8.651762521373652 1.0356966342825547 5.786304753650245 0.8674925206107059 -2.7907679309735163 -0.24752395799173496
Ni 7.456665557970692 0.2741186152439048 8.450232065949997 0.13279927805262937 1.5388340383850143 1.2598071246889915
Ni 3.23906334832663 0.43870480035390536 9.769347204012268 0.5461365071291691 -0.8664057153044306 -0.14428773830820313
Ni 0.17449433114592486 2.744181359825966 4.1652063556230035 -0.5716801599262282 0.6750413352233987 0.9073605604502374
Ni 7.632138630730435 7.910010932031852 4.392718622324193 0.2584884274230387 -0.41115410538229197 0.9469349803087499
Ni 2.875353011327511 6.024108552932884 13.26338933157926 0.6683976046546359 -0.16055870755408477 0.4073139057005953
Ni 5.727739694014407 4.531306407315746 1.0518412628991785 -2.2004863538960167 -0.21167455239329352 -0.20357969120030098
Ni 2.7598762465334152 2.679945681404989 9.970273088344902 1.7317642202912693 1.8059618866506058 -0.9531984447199583
Ni 9.082335103271507 1.6609669123528004 12.484112862491882 -0.7731073235599009 0.259934672951262 0.9999534414873102
Ni 3.2914840856090573 5.324557131667076 10.898867557687185 -0.34102289578284495 -0.3767638008278802 0.25533676916793446
P 4.338516427848255 1.8948603531915347 11.243636203171434 -0.1747861640073764 0.5352226884301428 0.8712589296316737
Ni 0.23087980140635844 6.832538066718841 6.366610056825807 -0.15739085134906441 0.9136353377153555 -0.9475163067335166
P 8.965300830636213 8.47664887350034 0.19003899668289215 -0.7842016337008495 -1.3033204745905942 -0.5641265159486865
Ni 4.973058024783852 8.833649945952763 8.343671803146188 -0.11127323105539548 1.1301993569904663 -0.24039583158738595
P 0.7145117909617589 4.7582233189486445 5.535551520831119 -0.2508026287430068 -0.7678607304489808 -1.2721157668530156
P 3.6328732155585914 6.674197580212268 7.484247270793978 0.3906107340133015 -0.018613501336129237 -1.1712380200993313
P 5.5898864260343535 7.900693533052856 3.5813934341967926 -0.10622769821168802 -0.7062103046270354 0.5898943689414099
Ni 8.520959510781266 4.593984577895527 2.028196848432116 -0.8593845467915909 1.6987335150885454 0.7180774883782666
