# total energy = -340891.2567931516 ev
CRYSTAL
PRIMVEC
9.08821431683018 0.00000000000000 0.00000000000000

0.00000000000000 9.08821431683018 0.00000000000000

0.00000000000000 0.00000000000000 13.30152030345922

PRIMCOORD
 96 1
Ni 6.208940748856727 2.201347258562202 11.4067722199852 1.452784614893414 -0.5329079242540371 0.6662633319204525
Ni 4.7214454559385075 0.32818359639672123 5.974377574038021 -1.1796383283478844 -0.839501948935051 0.5936990873994807
Ni 2.9690287172805125 1.6826192531251827 4.9694882701507375 -0.226501590103797 -1.2252550977457348 -1.3170198264545576
Ni 3.270157608640433 4.238815837550489 5.254699154230616 0.20942560845811675 0.8387997806617038 -0.3909082106490622
Ni 5.097370350675386 4.5512777320952305 2.4491156087037176 0.7323339982972806 1.0445520540332913 -0.7618782876133007
Ni 7.356973062657553 5.930686892794474 2.3174310193318126 -0.9485313782615922 1.3457501045097147 -0.5901591925670223
Ni 5.202384666473778 4.580350929519639 11.257781853015432 -0.8891651204881332 0.3159440984373462 0.9736029765182395
Ni 5.630394117146666 7.8035315586393565 12.3768918337486 -0.6667574979480517 0.9953696787713697 0.5911441821881109
Ni 2.027480631514256 6.452759361079941 0.36343314423364365 0.45923244894675747 0.6363709152363944 0.9482837810271604
Ni 2.8738569375279597 1.8502513651893384 0.522253323749282 0.5241851996690584 -1.6436522578436854 0.12123831268790732
Ni 0.46340622758085614 -0.1426658786647824 4.820630591109197 0.16964447190543688 1.0219137478084854 -1.115376175934705
Ni 8.61559985581369 2.380066992026101 1.4849415047105743 -0.15285671092413675 0.22973475232911403 0.7096473553330424
Ni 6.753679223511834 0.7768405610516398 4.844467159475793 -0.38765422248813886 -0.9904125918764104 0.06072637134577929
Ni 0.7048337306317151 7.167056649222765 2.3976654101232024 0.7450918121835813 0.13359194915725378 0.4567577621540198
Ni 7.69387316535304 3.739436640277449 3.4733864383263233 0.7058531783979328 -0.4047610573717545 0.8703225338603333
Ni 7.711304360307718 3.9096679816205606 12.46755495040573 0.8156387691642082 -0.22392688739808528 0.2594572190942112
Ni 7.929894089739384 8.771126466480748 7.2447263459493945 -0.39506157069580344 0.46340509226720833 -0.004691491938398372
Ni 6.849459913619946 0.8340808609385291 0.41666917691665833 -0.5762567235533173 -0.20056841517780294 -0.35475027267126646
Ni 1.8479066059097207 6.358450961682285 9.41948512486644 -0.043769431776466555 0.717084785447694 0.0011636812907979959
Ni 0.2643825146340329 4.8094284582097515 1.663807558424093 0.42754051716011526 -0.40519840201948926 -0.578345744871862
Ni 6.346336372070927 1.896537640426137 7.044777452790691 0.23898352462089162 0.25614615244310723 -0.5491117877074091
Ni 3.21888190377375 4.240724362545527 0.3580665537118826 0.013645101587260372 0.0968017769120978 0.6695728559096598
Ni 6.185275038918259 5.404842815590243 4.474126063581539 0.46947392416910755 0.18550637863835795 1.3068644831881107
Ni 5.269673804870254 2.909773560291719 9.325469365968026 0.006891842023826839 1.0979001306371285 -0.4483672240974794
P 0.19710791738037572 5.591096678677411 12.69917445262495 0.22956248841730786 -0.572241431746337 -0.18212769197411213
P 4.02936885166648 5.923416321384807 12.614017884989213 0.6773237034996722 1.533676662553791 -0.1258876385344606
P 2.5445727583841 8.258087683171794 1.6882421312891347 -1.5402394033729732 0.9830960036103391 -1.5438787998977734
P 6.359696047036191 7.869212083111444 5.915199666870455 0.7915824995459528 -0.16607655204852043 -0.45592678161229216
P 4.753354176212688 1.1694441466022976 12.768288504445254 0.4051086705191604 -1.1993525189473602 0.44268354344914085
P 4.102356300405284 6.261770538362227 8.300454211597355 -0.5368854208445464 -0.90156323704217 0.38581048441118077
P 4.720881986654258 0.9205361343923164 3.7413188094511267 0.4481818475595507 0.5487762587448612 0.09563398185624175
P -0.12006258097355106 5.705689972308039 3.8482225649946047 1.5674735564985778 -1.728924951070261 0.19167239823975377
Ni 1.4606759726308076 1.107308025692423 2.6603975050472406 -0.23235907732583852 -0.047007736208106145 0.43055127896198103
Ni 1.8570402612431158 6.426221775434653 4.745157515769713 0.6618497762337892 -0.1670358306379962 -0.7260175691609496
Ni 5.925824698164259 5.831207299481694 9.43225406590467 0.7307237163873673 0.5974559833387516 -1.187605405713761
Ni 8.649989658581418 2.5093650163327834 10.246719834001341 -0.31764334051664006 -1.0005319396985994 0.23814123122525438
Ni 2.345486336758868 5.734690464018351 7.108904801445388 0.5790065183843125 -0.2328290749837216 0.03270726042503399
Ni 0.5237065292097893 0.21649944015138622 9.235485138916271 -0.6656876619226406 -0.564407537524215 0.5752089990150933
Ni 1.4747172636657286 1.2168391839790702 11.624344978240938 0.026143748274903362 -0.5823330116543842 -1.1152195957521824
Ni 4.150405689208927 6.900808324200726 1.8927660315073718 0.8294067694825781 -1.162308321709869 -1.2939675726207844
Ni 5.582190228700567 7.961112105729646 8.016772873977784 0.411244093992937 0.47074122091730536 0.9104880503356255
Ni 5.262103322389938 2.904447866734137 4.820058942432111 -0.3114971184095861 -0.24069125134061775 0.06121950893211393
Ni 0.4979332623839428 7.382356445091556 6.479050656118726 0.2365774862825603 -1.1071851554834802 1.2911974660748151
Ni 5.3965634523974835 4.581686897016166 7.133898299487548 -1.27631540675666 -0.7559045865283691 -0.00825195559614708
Ni 8.372953623230284 7.0827998147989755 9.372743530095113 0.14324849841041137 0.5279672924193101 -1.5473410474147609
Ni 4.595537335551583 0.6192918227112671 10.42714178999653 -0.6099050077353818 -1.3742818934008203 0.5408284646526944
Ni 7.762825446959478 7.331816885580102 4.178366489207658 -0.38290976582461794 0.786282170378962 2.5482630234629275
Ni 7.249650340436593 6.113678086961554 6.92499751528069 0.870359557745856 0.17786377449143562 -0.004900008404778658
Ni 2.619641408188921 5.111093554211134 2.59169514933301 -0.545496302442009 0.054370861441396676 0.7762998623552695
Ni 2.2046281039108147 5.247462209213719 11.582897268277273 0.007386265161742118 -0.8347718904492332 -0.8281803532746446
Ni 1.2142853957714244 3.320433609938287 4.118243407756835 -0.6742291237347485 0.07958772702665648 -1.2367440722219412
Ni 3.8604098603200607 2.8005332248614585 2.8118353281177875 -2.155803409166345 -1.4048062872419227 -0.061155488463397904
Ni 0.9135654740532972 3.1928532581271396 8.128718770793867 0.20922917617659448 1.028232233827345 1.0713064393090002
Ni 3.6431015690993487 2.6064816739374224 7.077513200562721 1.1023085441174691 1.3847827929321441 0.07905396601037352
Ni 4.469483803736465 6.630679331688777 6.109641102186335 -0.24703699105298746 0.5510951366860251 -0.8992523295208061
Ni 0.8977129019159426 7.457543241681784 11.692209400600206 -0.7010922666741797 0.38881610400672395 -0.6615700402098413
P 0.32733657482749495 5.561550894111373 7.941992320565072 -1.140106074581217 0.8696954417992957 1.4921875421710689
P 8.431336311649918 1.644757752509337 8.059032161475054 -0.5173265248760123 -0.06627455485751813 0.38576266189238073
P 1.688653827395207 3.184419395291924 10.594514887954215 1.0088851967593013 0.4821638609319502 -1.0136440516005252
P 4.215495479753979 5.916445661045787 3.929454841711972 -1.7963593305638352 -0.17237498346272248 0.12717936076269062
P 6.996598102523101 4.071447283699934 10.243899761115816 0.7615095914199724 -0.1477949801305132 0.08897533888914354
P 6.346363636713713 7.928594475099906 10.31910655177742 0.29635717744435414 0.5288995744255923 -0.776220929488218
P 2.4615337446714305 8.384550184628704 5.8025485246276345 -0.7887368025670417 -0.09521026405526184 0.7468573887244363
P 6.899754091346324 4.05198941696481 1.3500242375256455 1.5642578777747576 -0.6094612353297439 0.5025635076342247
Ni 5.371325481391674 3.3035567960535954 0.16281899379095566 -0.3328097638444332 -1.1162814613577936 0.15783848040944432
Ni 1.5482136524032093 0.9008646946220337 7.110168063227818 -1.079910121817611 -0.7347014700881928 -1.4419569281502909
Ni 6.710010353982516 0.9723298674719382 9.324139760221481 0.9876900507389249 -1.3414285943162252 -0.023640779347391543
Ni 2.6584662595165476 1.5813220169599846 8.996403303966456 -5.399316638700379e-06 0.06500880077121707 2.4650451558828514
Ni 6.153975228999638 2.0220095265284805 2.5413482599639123 1.1530590351974594 -0.03577432938613194 -0.3945563489246108
Ni 4.071420019057148 7.164411978872498 10.524628337921635 0.03315823191952354 -0.5786434786179389 -0.5517345700422368
Ni 8.32515870442598 7.396061472198779 0.34456510260412926 0.44916015231242 -0.48750609908047005 -0.35719770577049453
Ni 7.477773606629184 3.7966469490572727 8.033732390612261 1.4176849429768035 0.3367548645351104 0.5054565129113037
Ni 3.00389110718987 8.558044194891904 12.35894806350954 0.8784891288315259 0.2315358100935948 1.0016920214449716
Ni 0.006496255554538279 4.869974141623761 10.340628351971466 0.45182278674624765 -0.08794844028652596 -0.33707111022394853
Ni 8.737518250139559 2.2361914720430356 5.931027700829302 -0.9261735793916823 -0.019927592161862455 -0.5355924130647356
Ni 3.8138418504411375 2.6534677416724013 11.627630367696684 -2.117370559111444 0.9134458474123688 -1.1122916234721103
Ni 1.164500158043723 3.1963249559752556 12.840941506899211 -1.0998318004422027 1.5084127457806797 0.32432435208124144
Ni 3.1206292193863505 8.288596818449614 7.885407280926478 -0.014717508715832718 -0.0813720726205889 0.8198029278442268
Ni 5.395800042399467 7.754055320196566 3.7560835223413096 0.783325144633167 0.7369797245994082 0.476816737687424
Ni 3.0501319413553585 8.55784425417814 3.761271075042108 0.2436379926737675 -0.285377795614715 -0.1071628084314477
Ni 3.374272191226878 4.2909367463435455 9.312061523467172 -0.6491606108018949 0.3645171222500432 -0.03262215691039543
Ni 7.586268708489954 6.416770032602084 11.407610153340164 -0.7538577313016694 -0.5959961109637736 0.9429788238744792
Ni 0.7179925560617878 9.28324734014923 0.500771511697992 0.6292759560628259 -0.7086880767435666 0.1562953042920405
Ni 4.64787636148693 0.15900103497945375 1.5469931052278112 -0.2846527445232323 0.2600894533615714 -0.18528346399427445
Ni 6.180012962860512 5.712469780147553 0.06776172553810493 -0.5825104177725129 0.3719411826282562 0.6138544793014331
Ni 8.02206675878545 9.09893835491415 11.453233897757256 -0.0023795559757700956 -0.32807841980703495 -0.29186288911842634
Ni 0.43729942329159105 4.676976823554125 6.015532643502446 -1.1269299422105752 -0.0324501501089054 -1.0495171113480504
Ni 8.108895557845408 8.801644689972829 2.5445009614914293 -0.5711512840059518 1.3323130051682022 -1.3533063195904176
P 8.297030681284827 1.4997098528864623 3.701121637769925 2.017096250269713 1.2777241141787286 -0.9348978466385576
P 1.8017293892440673 3.150665767522541 1.9085549861448918 -0.0355940950545258 0.2827203033872099 -0.3851016312696142
P 4.662862826805108 1.182467557639865 8.255548436106967 0.37015889391685286 -2.118804720454809 -0.2846524874129162
P 8.61438203510257 1.6755031813579702 12.730060748794644 -0.24656647917447216 0.3714850689274441 -1.3275027282637526
P 6.477270274944783 7.864831563837119 1.2199955207922921 -1.2404261490592186 -0.6084739317158101 0.9924345074024457
P 1.7394024158346892 2.8481554675947836 6.206981329861821 -0.1775632125318813 1.370146016855576 -0.7801320916171661
P 6.969715164735853 3.77296306269028 5.714878156927007 0.619016740228663 0.29844748431447954 1.3144075856426911
P 2.242480516312398 8.44629551232531 10.22880241958364 0.5854059941527532 0.6671105104120962 0.2503002351852915
