# total energy = -340870.7452137691 ev
CRYSTAL
PRIMVEC
9.25638705404831 0.00000000000000 0.00000000000000
0.00000000000000 9.25638705404831 0.00000000000000
0.00000000000000 0.00000000000000 13.54765810353833
PRIMCOORD
 96 1
Ni 6.15149844887978 6.342328118713574 8.95137124740002 -0.06922181041130014 -0.32331082321506255 -0.005319612440700516
Ni 2.055399197028224 0.7532643920159395 3.0221575219060943 1.080374205938223 -0.12885006359689422 0.9146110713650635
Ni 7.901973752637491 0.8756764046121758 13.19835886013442 0.02806873321175811 -1.706262476475739 -1.9703541090181678
Ni 8.130393609180397 7.82652494400268 6.222886480634687 0.5189522334048934 1.2285167992161425 -0.06499003171813968
Ni 0.7320487535187015 3.2098002177719143 6.927079989419646 -0.8298939935316417 -0.5689591614506395 0.776342799778063
Ni 4.082547901607246 4.537323440441364 9.640161202946212 -0.006293032097563356 -0.5968211779682302 -0.4616418297191985
Ni 7.233273858956222 2.6545836259999556 11.382986103031163 0.9270652379680163 1.5945670702812602 -0.6647376393045454
Ni 1.7485129497605851 5.2555727725500825 7.13392598529697 0.7436180558515322 0.699621338555608 -1.291979081435846
Ni 1.438609120403025 8.705002331254152 9.967703077310967 1.5282207816455422 0.5959513737687672 -0.07265911822762325
Ni 6.6322474090154895 1.5705218883891237 1.879995295761465 0.31536200068163106 -0.1140281680927133 1.3572987285792626
Ni 1.5761867970978103 7.34029620289386 -0.002506629539726024 -0.47363088376027457 0.11064433922214492 0.8734767632185989
Ni 1.6596608930699273 1.7886764119942304 0.9799468247604466 -0.20072191003653173 0.23761312663592626 -0.1347342902918131
Ni 0.7704933047275053 1.966297217894536 12.346806450745412 -0.8032231691086748 -0.51656624967122 -0.537962455958809
Ni 5.124854078458462 1.8556926522734638 8.565953814700197 -1.7054852319900822 3.2544841267232405 0.6732245937296342
Ni 8.081260708157998 2.747110468241836 0.6870358702515904 1.7252629288376415 3.4085274017563103 0.036273380509737524
Ni 1.5450020300396974 5.366741977764667 9.30267519226489 0.3045829077882561 1.5020623780826197 1.3673283449011226
Ni 2.9171688061437804 2.499048558954105 5.265676118719251 -0.452915248479478 -0.9224886743409273 -0.7905921106082255
Ni 6.375262342872898 0.3193434925946819 9.289411715649402 1.213514412270039 -1.5228500042519322 2.8216299106596954
Ni 5.902973720253103 0.48644534055944566 11.83852621941322 -0.3710222703584126 -1.1525196177542214 -2.1707402329818355
Ni 4.192384187125669 5.952606466161562 7.451699594693951 -0.12724260990045827 -0.32012445506728093 3.066050032915126
Ni 6.6584059580526604 4.836175143984918 3.699811118518592 -0.538596489998382 0.5409017410927911 1.6252657849166976
Ni 8.679371396263377 8.58000408419189 8.839318057248052 -1.1312535092865936 0.6418957017093655 -0.3284879965406278
Ni 1.813168811411199 0.9979773405670651 8.014888712398577 1.6312916793958032 0.15428058785485688 -0.19308136277213844
Ni 8.307514570194641 4.863546279690124 10.559057528706425 0.11664992198627651 0.03736429958107113 0.34045339643262007
P 4.816172092155716 1.7849090625752184 6.554926033335308 -0.43813011975050353 -1.1861969554020086 -1.9214848941212908
P 6.285864159362286 4.346901051625841 9.9986860551373 -0.7694422160034877 -1.3149099792004064 -0.4028131896167644
P 1.8716136375331713 3.3268749977514367 8.922622761342115 1.591593846585549 -0.07125863833567082 -0.50707656501323
P 0.9073536114469261 6.853623155219654 5.998320057907836 0.19897561676938635 0.2327923082085152 -1.2374341563104303
P 3.5292658946720774 6.617242806046893 9.44865118868417 -0.8130725510989286 0.43812266355133583 -0.2089772080667885
P 0.293450601858066 -0.18543597325773026 0.5549435283619809 0.7631052180418664 0.4128281506506052 0.29518629706470456
P 7.802689748047014 4.401615553875916 6.615700692009528 1.086192355281897 0.0667905752619882 0.5953967868168778
P 4.450970608181009 5.242956317370442 5.561936959603391 -0.27044380001270196 -1.1061140339064888 -1.9539417290984158
Ni 5.377451617267854 6.898127862852603 1.584561050216681 0.6387347874828806 -0.2373364759357719 -0.4162811421962121
Ni 5.530903997288452 8.967522716690523 3.0775810633834335 0.3424724837451779 0.5760482070869369 -1.0160464903944308
Ni 1.4098495266809838 3.987734731830977 11.243322962395093 -0.8940648717825956 0.8157079318392468 0.018594218062419593
Ni 2.282948953213914 6.630544233848172 3.985301227746804 -0.9415978843665526 -0.5751238955004547 0.028437172294770382
Ni 7.283175040081271 7.771690108724478 10.913965910582997 0.47308529566944973 -0.0368513645003946 0.18343818325541958
Ni 2.9979770627235744 9.059901456743942 11.819775556715202 -0.3324199846051824 1.719840729380806 -0.05496375783038921
Ni 8.739500884779108 6.081788600047886 8.148360255918242 -0.6811268792958463 -0.09707765628130378 -0.7762625813594308
Ni 4.410353582995198 4.810488670673472 12.157167152251382 -0.39540378452657066 0.9923123800022845 -0.780487675184372
Ni 0.327814012136053 3.089735624862807 2.8780642745576412 0.6132394714252535 1.2867975372349065 0.09835343766993385
Ni 4.203130852175971 4.5884834901683424 3.4617109326823123 -1.053081431660541 0.5760556632861047 -0.9966292622100836
Ni 8.270609356107169 5.864568971507447 4.954445849136275 2.3388674969117975 -0.5196726565106856 -0.47787937462398344
Ni 3.1994052954192096 8.959164199429177 0.840923300450797 -0.9936426687779341 0.031594486976829456 1.408256193463736
Ni 3.845834322510445 7.273409552029531 12.895717591843585 0.4845596148576365 -1.385168715516653 0.9245440142080593
Ni 3.1725247482132852 5.942609568440351 1.7071813315154425 -0.6889250351840264 0.1814419787609972 -0.676377794646635
Ni 4.85391038105329 7.810076344696575 10.639083620603405 -0.034124195377218655 -0.18515927971158433 0.1477949801305132
Ni 6.896193278015813 1.167045245083667 7.184174280926228 1.138264393386788 -0.14973076370064536 -1.6657907416139375
Ni 5.1624164960072365 3.038918061446648 4.807250786578213 1.301578809309139 -0.23507004849909838 1.0457085362352379
Ni 4.326777666768513 3.659910537669467 0.8756504867291949 0.5367051865129401 0.7455201579702515 1.5537731761933498
Ni 0.3593014630418359 2.152748616781911 9.851192936924956 -0.32173319431529757 -1.0536779275939594 0.32316144212139186
Ni 0.39698699053477005 7.469145106856144 2.209609675126014 2.171712367087118 1.159040449591875 -0.9918446963372466
Ni 5.0565326876434025 7.030984782290149 4.211167247177412 -0.682283875718425 -1.5965794727255989 0.3488207945607089
Ni 2.6318962220048725 1.9301973094568272 10.570044859812981 -0.18455352780678538 -0.15877821861489427 -0.40945074953794003
Ni 7.868141658960612 6.30568208345591 2.0098087152261095 -1.8642351684702023 -1.9110945520259022 0.7408512917396725
Ni 0.8139492637384056 5.265106850932349 0.9947052078407241 -0.8545801834244121 -0.980074443175196 -0.47796190703546076
P 6.683129767139102 8.156848362594493 7.8019881139291725 0.08909412385519494 -1.4135490664315593 -0.09541312409468729
P 8.757449018743396 4.386740540322225 12.770563837483438 0.3129477348131836 -0.293303735330011 0.07711689688866073
P 3.9628535641692944 1.3788128618113333 13.3711996679021 -0.6269380519582687 0.6793595029827784 -0.44850117857218247
P 2.636181929083503 3.0676961679422465 2.8354302826927076 -0.5669979239592106 -0.25560030724196625 0.04237897918684314
P 2.500214863688246 5.382903629080626 13.086034457849829 0.3227174126054378 -0.7853604298956409 0.5065389473422051
P 7.239475638098085 2.8729603028877557 4.070623824158667 1.1190266282030985 -2.097907822401142 -0.529522809831888
P 8.068903431808167 0.8448804057987767 10.798715564437597 0.3168082462098544 -1.9936624447268052 0.23308644241016632
P 5.830773903377685 6.950741165303869 12.731153845133594 1.9392507027451442 -0.1758302890011746 -0.47008044740485494
Ni 4.593611528443853 1.966463832856556 2.754414683049066 -1.386024121538413 -0.288397042057013 0.18757148869750276
Ni 7.975774924425657 6.664496660553176 13.033063858868896 0.3669319023391229 -0.402874381872003 0.4729608542764435
Ni 5.872779386580332 4.01285656554891 7.439993967973354 0.2127073645331821 -0.42136627002860333 0.5719197867408602
Ni 6.528085288592532 4.567082723935527 13.012024091720457 0.9486236808650823 0.49218396417211363 0.9702446015689679
Ni 7.398222671356214 0.6266286901324913 4.375541237958434 -2.008168094542148 -1.7030000036743833 -0.7859839224122528
Ni 7.487981853951204 8.571099440110588 1.366525008362344 0.9133882547015559 -1.0807488156688225 1.0632288045071883
Ni 0.3422299089055113 8.365690961100025 11.906670813240801 -1.5072842886031912 0.9273105212096029 0.395104508118597
Ni 3.7793549526643884 0.19194413880197458 4.690646231047058 -0.4884067565178685 -0.002960882400536836 0.28619000710336523
Ni 2.166031531809632 6.658368932505545 11.325055932014099 -0.04816678951321382 -0.028594266697924947 -1.2586730110845483
Ni 5.5410675099716835 -0.06898507374710537 0.5279454250439644 -0.6425991555342933 -0.3220026459266002 -0.0706045496914397
Ni 6.299415509606596 6.111964420947099 6.282997456376862 0.47566951145685815 0.5894318274826946 0.35952635390367116
Ni 3.3716111150538586 7.280379611274043 5.930663275663503 -1.3265344508132122 1.2624445623118385 -0.5580180890581035
Ni 2.832565430984638 3.158834552167293 12.76897914406689 -0.11300769724799893 -1.0695056386548354 0.0004653696721927469
Ni -0.23368766625877832 1.7767819549833446 5.073367278278188 1.9905218422152944 1.5908158307689442 0.9789488142111851
Ni 8.986007721087987 0.956758650240625 2.4359903496615285 -0.42369543238241225 -0.7222714718549561 -0.4396496417188235
Ni 1.4611576785964244 7.797654273639292 7.817526810414911 1.1180861186667002 -0.6048710448559002 -0.4362529573324486
Ni 3.5501945851791694 3.4645544947007902 7.297202168606015 -1.1056453218001863 0.26539801005867836 0.7021878137312035
Ni 1.4100716799636772 4.193541235473031 4.917583214427984 -0.5421474405744341 1.1203815995690964 -1.491611357952625
Ni 7.721409415741495 2.838813492060395 8.774776974793495 -1.0273369757065856 0.8572299623424333 -0.3378905208014503
Ni 5.626476190780592 8.653731204885824 6.00452553960441 0.22130204818072854 0.40663821978980935 -0.6592516764893097
Ni 4.800084491933989 2.6401158934645355 11.082282196493153 0.5021138216913159 0.09348068295866481 -0.5897071926312683
Ni 0.4675715679172693 8.586215119720531 4.140258696257652 -0.37825709754395503 0.2091448439929043 2.214160766059316
Ni 5.896577556988883 2.257040326619774 -0.3660660304998558 -0.516816160898497 1.1220898405094546 2.3197598295480693
Ni 3.9125821275730908 8.711176341235676 7.7860958234684805 0.2400531035359866 0.2043633634438609 1.1090332644358125
P 0.0249866904709617 6.775193790042037 10.262526401328342 0.40729179421340816 0.9912641412434281 -0.03679865688558824
P 1.6605402498139228 0.7089670274468374 5.541574759967167 0.6661545742567302 -0.3986621435628683 -0.1571154862004907
P 4.158200350751192 0.5120799781049303 9.869346562675736 -0.8981860930398209 -0.5075167378744421 1.1166691837145155
P 6.150332144145637 4.70922379931231 1.7640812666840162 -0.9552738391917482 0.021219057279776358 -2.4278194387621737
P 9.122928194321469 1.266310736900587 7.515183597778356 -2.3646101530935404 0.3025915883898401 -0.14094813241200888
P 3.503283216983706 7.9253183600938755 2.8062485977335485 0.31548849895716635 0.8516982338909268 -0.16639948260557794
P 7.128991405505139 7.587117756353219 4.14794057164546 0.09777005436263807 0.7943230384055675 -0.3195158749490045
P 0.5541113791905579 5.458009951404617 3.2080988938819526 -0.5395387993069933 -0.7820501345754853 -0.09262270583374371
