# total energy = -340863.47947590414 ev
CRYSTAL
PRIMVEC
9.33183149668025 0.00000000000000 0.00000000000000

0.00000000000000 9.33183149668025 0.00000000000000

0.00000000000000 0.00000000000000 13.65807867137763

PRIMCOORD
 96 1
Ni 6.791427064242173 6.9853798516656855 12.329311992766288 0.3785394046710642 1.3114415610358316 -1.4433329825622112
Ni 6.134344807657697 2.770695448823138 8.961912170822341 0.26168713686599443 0.12281928402178202 -0.16988949803670741
Ni 8.639232365941414 6.991100264420238 13.521457209012853 0.8409687632885645 1.8134078014056896 1.2398445655241357
Ni 4.651647416271432 3.5855229863259668 5.892300426220181 0.09528585448820363 -0.6756141770077332 1.9474458369614267
Ni 2.7524330544338094 6.394982863505401 8.879690336011437 -0.4140424826736805 -0.12721047111094222 0.4405181603667059
Ni 7.829583994961875 4.629866921378896 8.712324869923968 -0.72883344134319 -0.8585646219934568 0.8909756913343106
Ni 7.337189901986432 3.0454059066836727 5.114540790093587 -0.36696326979769056 0.49671193394945423 0.8476549170594886
Ni 3.153412525315299 2.00222845057743 8.5010204748727 -1.820376262303723 1.4700999662434102 -0.8486458202178481
Ni 3.0733640740778623 2.3676349795007585 12.807303336891199 -1.4941325817125815 0.3054442273472869 -1.8117553534039315
Ni 2.161989407115658 8.99429922548131 8.423346974770718 0.23595450798658074 -0.5120405938867246 0.20653157473977332
Ni 5.733934578502191 6.1926874186551855 7.848245791742549 -1.4800766178401477 -0.5993773687311807 -0.46749006096985934
Ni 6.315149044394155 0.6656470116026294 0.29086012558162416 -0.15383604411827054 2.823405257392563 0.09863085970103659
Ni 4.956779645061559 0.9486553340983152 9.771740646151247 -0.5959588299679349 -1.5720655467446345 0.2263324115157844
Ni 5.654128754885664 4.132918894595587 3.9391536769867024 -0.8104914206353138 1.04470554889202 0.4704098057198157
Ni 2.882873396168117 7.636480404211551 4.000765228584386 0.5233215661171826 -0.3592867270890393 1.4122817696833614
Ni 2.1357576285625646 7.206880205894153 6.429486377565241 1.2270520417451576 -0.6508986765389242 0.30215167263894416
Ni 4.307816081946023 4.324184114525933 9.421329437383367 0.5915131354917554 -0.1044549225819814 -0.7176386010686351
Ni 8.65198897970238 9.399207397455243 4.293225763280865 0.647909254893297 -0.6815110021081423 1.980085734483635
Ni 8.06712576766518 6.537143985696018 7.416582325464252 0.1741917249564871 0.6340962602696048 0.34724316566094393
Ni 6.983690790150882 6.657673922299275 9.758041517401358 1.4898038724302407 0.7889666591896605 0.39149365083888704
Ni 6.909540056467894 0.7426252902523865 5.93958388361992 -0.534559343814531 -0.6777181107246134 0.38779537605169345
Ni 1.5513236807777442 7.757430273235615 10.571803359738494 0.2525988014114811 0.06598402020029281 0.5667271867963273
Ni 4.8534389422166795 9.121044161912515 4.830644077232104 0.32150847989900116 -0.22165840307888274 -0.6414385595672889
Ni 5.20969094436641 5.9100169084624605 10.877279933113684 -0.8169556882034189 -0.8687603315795359 -1.3165685978497519
P 6.002084758766558 1.6545617334753149 4.133153123568082 0.9373085129625793 -1.3285321979695313 0.38139795716578184
P 6.9411469700073205 4.128336965293001 10.887031697107986 0.1826455121507951 -0.07025822209561448 -0.7566489208935614
P 6.523762139219627 4.171235395036356 6.967764153204399 0.5064422738633407 0.007856519929941309 0.21597677931307319
P -0.43910840150763153 2.1854309680282764 4.044048129788568 2.1448705643039254 0.4438297412384421 -1.1941900009098143
P 3.477320399231297 3.8966462509862776 2.566271413191008 0.4514543476632354 0.09182103586805476 0.9424759160961316
P 0.8696996403381346 5.7419412899922495 7.525150720356604 -0.7891944589297505 0.7195291332231285 0.22252897860929416
P 4.878625555633541 1.403124863559076 7.4856518768554725 1.7959934625839842 -0.678251100409948 -0.6714394768047532
P 2.8355330145957787 0.3448718335458536 3.9228463013120205 -1.6052942268907773 -0.6958700990432919 -0.6931748115993158
Ni 3.945190438831596 2.01475176854906 3.808008781968596 -1.2320708351159877 1.9410533031715218 1.517393609123051
Ni 8.0065621807532 2.348635370417124 12.52221868187041 -0.21318276150770385 0.2731977086087553 -2.038704572568108
Ni 7.796493320202264 7.27365879263408 3.5118612406174297 -1.9238824478191898 0.2962353071545092 -0.5926202525130052
Ni 7.919552183161937 0.02709777252311365 12.357229100101554 -0.20502670805947273 -1.7875975252108054 -0.40610831542826836
Ni 7.929798534229634 2.388276990941329 7.389444426065372 -0.11064613899435785 0.9781957380952443 -0.02380378728781707
Ni 2.819398277805206 4.646458917916569 4.855228787512477 -0.28759742897385304 1.5161299119192793 -1.522067874670269
Ni 8.799441250395171 8.647864310146897 9.60344572963906 -0.35829608104099586 1.263391242495824 -1.6403866997185361
Ni 0.4416886529377029 5.589272525449877 9.822931341430811 -0.9841799807031373 1.4314233756088188 -0.2675477094118296
Ni 6.165662434418345 4.686697775661478 12.870635678231034 1.5936193616560101 -0.8604117025045246 0.30090982981204306
Ni 2.5211156133900245 5.977542041728267 2.547217679484246 0.6439618402097749 -0.6845801279517694 -1.0902811806392902
Ni 0.5560623802519249 0.9927669019462242 11.457639603233515 1.4225790378443113 -0.9523026723785663 -2.640393620151601
Ni 0.5609522599964359 5.335316061008795 1.3098560065314697 -1.2348831077538023 0.6646833890278423 -0.610439025861981
Ni 0.5969600653059223 1.1224233698283583 -0.00017450525042434924 0.5704475730707078 -1.4895832717790023 0.9090603167501634
Ni 5.339459394227426 2.6475619312108765 11.368629794136051 -0.0057037352529966286 0.38636224314959267 1.0387177067397015
Ni 5.008067391389485 0.14827813778704263 2.393796769317051 -0.4638036132572077 -0.3767977393896092 -0.5683629226275372
Ni 3.9674001979765134 0.4685503301220071 13.395789165945232 -0.03372824549038062 -2.837766668320558 0.6879667850358152
Ni 8.099273927435869 4.310298349144573 2.7145299541317462 -0.1634591690303314 -0.7735685794670355 0.45402930747926323
Ni 6.286826935568599 7.4395134351898005 5.777503966935679 -0.201660105580085 -0.5445807326062749 -0.5015250390673814
Ni 0.42980643179517214 4.3604849393468275 5.76323093054402 -0.3961026103658081 0.675563783385772 0.2503789109420269
Ni 1.6140802481094956 6.671298396396577 13.245413232420466 1.50202715396931 -0.9496917171182805 -1.3278881366276292
Ni 2.1746900298871843 4.215300303726398 10.140386253813737 1.1075715922886216 -1.4531180869734328 1.213686419071529
Ni 1.795481722066657 8.580059221933885 0.8484249307168816 0.6501864809632479 0.012258505652378888 1.0016323718516298
Ni 9.219504316844457 7.278184730947226 5.613401842349462 0.2152095621297455 0.1663128364290426 -1.0916346093433908
Ni 2.4963769278886905 1.6517061930138255 1.7649927619497354 0.42165577624456413 -0.4813166824403065 0.5817216033226305
P 2.7283102698163257 6.045524434741176 11.34504172346773 0.4315678931519535 -0.7749885997430137 -0.11114236190448601
P 4.248316323833421 5.950591712144014 5.664619599940587 0.923555425042545 1.2270957504988995 0.5036186883716165
P 8.726317018185267 7.286564715700224 11.128152227219726 -0.5484988367137585 -1.4452569390578014 1.4482224494440283
P 4.387845869520313 7.693376581315148 9.059294499207544 1.4942102290280526 0.043382994971325285 -0.8928605670618494
P 5.670170173360502 0.04997289125922099 12.005464775755517 1.678699993476438 0.9478235535612904 -0.26165448385584616
P 7.988253127206003 1.41934358683381 9.715688066621896 -0.9000462861770112 0.11984991698081296 0.5616006642030393
P 7.639625231451819 5.396896817562285 0.8813868262007793 0.25194728387041126 -0.40053313533333595 -0.534083432619377
P 8.496287369898624 9.05731708409712 7.197793801491041 0.5628556196560629 -0.47209490673172244 -0.5391569904875424
Ni 3.1485879683918023 1.004198395623755 6.001933583095067 1.101795866147109 1.5841109079449427 0.9216355823120128
Ni 2.693203919436839 4.574697133116396 7.342242155600323 1.008834546027024 -0.5324052735860056 -0.5901599638979707
Ni 2.4116998881908005 3.862193128816935 0.7144627557467371 -0.938271391096481 0.8967269919957911 0.02579176425212332
Ni 4.347560352617537 8.178155899726619 11.03854144816893 -1.899347695902619 -0.4617863257168628 1.3268082732998892
Ni 1.195864884311761 3.888798180632968 3.020320077047804 0.49586861211255245 0.8380119946530857 0.7212599998713062
Ni 4.7920354904630855 6.5461492031644415 13.012898517385803 -2.0773688219075255 1.01438555775224 1.2668198085613989
Ni 7.288440413846496 3.1352154537469845 0.7145971341213954 -0.9100386215030327 0.1825771208067049 1.8758359859339242
Ni 7.664905163184415 0.8928668454024924 2.511228537837907 -1.1788569700971698 0.2847478753401999 -1.3342073939774377
Ni 3.930959395682017 4.523875978367144 12.39917288347494 -1.6390615531492092 -0.6238244460299515 -0.4067716600438801
Ni 1.7839849055681118 2.6722166302280494 4.843728238281302 -0.8019155060408447 -2.770289094293874 -0.2093299634205169
Ni 1.1274812225411923 0.08269309230536515 6.130319055516892 -1.7266423256836716 -0.8117718300096342 -0.13793119996255598
Ni 4.259094589300808 8.593487727568144 7.182018340216049 0.5281809510920129 -0.4568189544092584 -0.5958924955063737
Ni 0.3551331155440683 1.3462006909607591 8.385254438287713 0.5618965981769033 -2.5831657488773834 1.5544262363963164
Ni 0.15771355269100304 2.3255484191042983 1.771630493747962 -1.0357565672288485 0.6848727194915237 0.7557518630005887
Ni 5.810558247552154 5.058011353970828 1.923153309373109 -0.596664854896024 0.3311647720418426 -1.4207561257029597
Ni 6.678231947255684 8.10624480562127 1.3184198283664657 0.5456140589667958 -2.1758353881165564 0.38953241334745814
Ni 7.630190749731017 5.3356613387770135 4.73767383881485 -0.06526154021197147 0.9339015441635593 1.5772985130087998
Ni 6.561248106650354 8.716639908843552 8.106029240311923 -0.3771445812060666 -0.2971539623140366 0.19132967018835437
Ni 5.17206499946208 7.080872484157255 2.965237074818938 -0.3789340690063216 0.008835596013758976 0.8208941040258767
Ni 5.4021506387381635 2.5219181509053454 2.297261771238721 1.7336742928297881 1.022556780709123 -2.9107026943586516
Ni 0.5917678342184298 7.745448201495248 3.069092894766674 1.3139712694362211 1.4171889771769917 -1.0371516478041622
Ni 0.7307393363772264 3.6343564609500647 8.319586339505031 -0.20136699981969838 0.8031113261211588 -0.6408243230220577
Ni -0.16402840311678682 5.144302800530933 12.43923163687048 0.030551133313979642 -2.292936538707638 -0.9965996945237288
Ni 9.35180169306189 3.0125765232081183 10.456324743565972 -0.8655505663929869 1.2991948824579949 0.5195343311606084
P 4.931639690802565 2.6607664728873712 0.26157497173768335 0.5066340781591726 0.241569540180513 -1.8984753205999951
P 4.114945786985037 7.512348380620925 1.0450559538019866 -0.5682112275410214 1.162987864275397 2.056725177515245
P 0.739457133433185 2.988397747601194 12.745213995516952 0.614368185713058 1.9955126105616665 -0.7001576706750523
P 1.415256244604619 2.1788240312742424 6.850264262313057 1.2235586838799184 1.1792326082690336 -0.5713744557603514
P 0.5588871256692217 5.878923245659577 3.9018674107516476 -0.5197161081541114 -1.671955732774069 0.23859143138879554
P 2.114658357374893 8.908511697826174 12.321431261002472 0.007777844173205958 0.35590212688752254 1.0278949050925847
P 2.693325233247294 1.6351795192971668 10.533889061238543 0.28602802760420415 0.6731888553956922 0.590686525825402
P 8.74259173244944 8.854349747373613 0.9533240494345345 0.16569525744970173 0.6513455342683556 0.9949505889560801
