# total energy = -340887.1421910904 ev
CRYSTAL
PRIMVEC
9.09653179964292 0.00000000000000 0.00000000000000

0.00000000000000 9.09653179964292 0.00000000000000

0.00000000000000 0.00000000000000 13.31369378030627

PRIMCOORD
 96 1
Ni 6.600516296724821 2.7640448842541896 11.68966292605815 0.019027963165728523 -1.515353695874887 -0.45156696198169977
Ni 4.9575098069973915 0.45129168118782287 5.7269918054061195 0.2168447837403233 -0.4583392477085268 -0.2050755590195371
Ni 3.00695867129587 1.8572571048484858 5.194936566015422 -0.14205062144756828 0.8975854833413445 -2.943450321103318
Ni 3.447549192392477 4.824764117426569 4.9269454599160545 -0.02819034639128693 -0.7396976377512035 -1.007353590606123
Ni 3.5404156862476492 3.215787753422737 3.0240856214996628 -0.7162581757813405 -0.7434594187864808 -0.36027377359265694
Ni 5.4723644142761545 4.195802614377479 3.159672157973313 0.6494740282772558 2.1890865966995072 -1.6826124411569667
Ni 5.638685402977101 3.3614778078437806 0.36571696727919856 -0.46032645334188466 -0.10663187562864217 1.0626734462243506
Ni 5.919831913466062 8.302795788113558 12.652642711780981 -0.933665002672721 -0.08141938091875656 0.1319839812401856
Ni 2.5306005868886023 5.504129503564259 11.1299151146973 -0.3759904129969654 0.5869707675367117 1.9513855383354652
Ni 0.867076869529638 0.540398578421353 0.16152529709937502 0.48161004531100926 -0.3657535657603056 1.2767262690418335
Ni 7.961575781158778 0.0871675166389643 7.034610074760271 -0.16318791764681573 -0.5171982268282642 -0.5628368506029855
Ni 9.021812956670162 2.900911302761871 1.2467806642112964 -2.1729151291459674 -0.8594804489395069 0.8135425487568118
Ni 0.8607029296487174 9.319851726840685 4.390975982861934 -0.007796870336599476 0.07148103875912207 1.5131096370357167
Ni 1.7902884372256263 6.99314080527384 13.754642974758177 2.788265476266637 1.5731852621713744 -1.7590567374586352
Ni 7.713586129333947 4.097842062675418 4.030334880365886 0.6761710779524677 -0.3159865216395074 -0.6854507034821807
Ni 8.1821484859291 4.22993280195164 12.653614221384638 -0.8273915388247621 0.8999987207685275 0.3112217532610124
Ni 8.183185490562217 7.80134037227849 9.17288179038561 -0.05665220127640566 -0.65870043197153 0.24699533918177463
Ni 7.511834149001509 0.8679392207508615 0.4558899780478277 -1.0718972788154637 1.407994198051601 -0.8832955490812335
Ni 1.8994013369996283 6.881198884088441 9.10403741789127 0.0559996552940713 -1.3006768663201598 0.3284653708328085
Ni 0.43158495454585555 5.464577782995909 1.2296791842967383 -1.4435142453350818 -1.6486723367660963 0.27494708719969424
Ni 5.992840678250234 2.1627459346200837 7.099314615600825 1.0538165100543528 0.6407456472653222 -0.004666038017101641
Ni 3.4951513436652863 4.477895164180863 0.30259795194348815 0.42323340514432917 1.4800434506093672 -0.7524742206905815
Ni 6.161062842111894 5.7993847349827305 4.7616296379866805 -0.13292526210753236 1.2520061405873342 0.6957207179496212
Ni 5.258104702623228 2.9951786625249377 9.461362834520907 -0.04957215450117269 0.627318575226139 -0.22259839839464893
P 0.4793353792881373 6.065894925693753 12.275239430009107 -0.3455593502006178 -0.7366192559361959 0.5129168258440908
P 3.95450801000856 6.677527535531549 12.574970155107344 0.08144560617100167 -0.7620081283229457 1.7147378609366015
P 2.4606300637488254 0.2242185947435954 1.6686186848590407 0.820173423809768 -1.8228139252109383 -0.24725836303517418
P 6.354982708504741 7.792525832896997 5.889339428986493 0.3628610747038589 0.546076343315195 -0.010773693576736283
P 5.150147062396645 1.4591564841140603 12.581693401812052 -0.5854412182660627 -0.13362948726340856 2.8678220929450418
P 4.004256942802559 6.708492130015142 8.153266087590422 -0.1786289347922343 -1.7264368945410848 0.8807054197565541
P 4.906178077658109 1.5124166782096655 3.649083765613235 -0.5100104508305733 -0.48181393379169923 0.7562912804438265
P 0.3330076579830454 5.729532466757256 3.5540104531265353 -1.1084647935268523 2.1202697350361093 0.4638316382816657
Ni 1.1166538661656875 7.634664618834635 2.63719010872202 -0.016730682491119572 0.12057136852786979 -0.22791543973218814
Ni 1.8892859935608044 6.628551807946453 4.749487587247344 -0.21075435457186928 1.0659325765915963 -0.8162193242580266
Ni 6.18871629899501 6.07512790554124 9.30575301209623 -0.6410063571258767 -0.17832451617793807 0.6601597901258759
Ni 8.4099620300675 2.705854369885345 10.265364352067808 1.8104559178662176 -0.5229407857389962 -0.5942778427210862
Ni 2.205590599725174 5.566167850913879 6.732003026284913 0.5467034353762326 0.2115421405804873 2.589040976711238
Ni 0.898197014708199 0.21244404389178478 8.934740043962641 -1.3090717752520744 0.545194454930874 0.7201590534976435
Ni 1.4704634732277815 1.4446839019097724 11.443213317078817 1.210642747149199 -0.4412375550312336 -1.9367125097043225
Ni 4.120565199285293 7.384764695317221 1.6850079063282213 0.007668315178535182 0.6398110512661949 -0.7714865001270261
Ni 5.693446524831165 8.168976707782143 8.167019134123837 -0.8964770807685142 0.04756386582189228 -0.7359505120039455
Ni 7.398927995437948 0.6873257611766415 4.765423801429427 -0.6083248077324556 0.753548941811999 -0.14645440694221876
Ni 0.8977612908316526 7.7735686604810725 6.826356803100739 0.1843154436540503 0.0717926564622699 -0.020144593268674984
Ni 4.788650885904869 4.972064257988505 6.859295345000002 0.015507865827612004 0.06939278877152565 1.6575282444948294
Ni 1.0901101861706446 7.8496065703777695 11.174157007097536 -2.2915800246797438 -0.7655187125793654 1.7037589933275947
Ni 4.734399169835495 0.7768420023442966 10.679526719124112 0.32430378325595116 -1.498845928027851 -1.3530504948258697
Ni 8.399892169288025 7.611504848695027 5.128328121054593 -0.3207415198259896 -1.30413628562367 -1.1768882764065731
Ni 7.201842535954535 6.189616855650085 7.280793155355829 0.001621337653506885 0.3245722064259894 -1.7655899105914625
Ni 2.695120462279399 5.513417062602963 2.3897016758031957 -0.5778397517697209 0.3475758664100143 0.692585514754749
Ni 3.313329864658804 4.6370389892368165 9.12173108203053 1.291647152017724 0.1849348224056041 -1.160434244615608
Ni 1.1740529822618904 3.8756319821685956 3.6866815511360285 0.05271789921900598 -0.4263781214208979 1.4224011175055502
Ni 1.6233761739531654 1.8061709818696785 2.8451495624021685 -0.7364552195545058 -0.9920205597934786 -0.7592061400977764
Ni 1.1549593618679237 3.869901167090845 8.253212412199584 -0.027116910821450072 -0.522872394394906 0.30525602259588075
Ni 5.097587301254988 3.132099660223836 5.178507319806016 -0.38676976300065646 -0.9326460744899034 -0.6705146509976389
Ni 4.073972763049992 7.1354287567757115 5.993225461548312 0.2223456589538945 1.0476800581393118 -0.7222640156557885
Ni 8.549639276922841 7.773186606142556 0.07788632517256876 -0.27852580568988805 -0.7547668733795002 0.3171581733501054
P 0.11901811332664179 6.106674678064478 8.107919876221235 0.26648970046096043 -1.0924797309525056 -0.32850265182864713
P 8.643724706048518 1.7428318304627275 8.20514997641418 0.43267835260731297 1.730977976944548 -0.4235005427627868
P 1.9930865187230504 3.480696954524737 10.466640583783471 -0.4367149845705317 0.019720361247062813 -0.60705802520489
P 4.249162870323648 6.3703831369597115 3.645036718584519 0.3489274953419023 0.45650450849263313 -0.04554015052364415
P 6.9096801253716755 4.326974603934888 10.22682052723059 0.461912823992398 0.5576216249506333 0.7523220113834334
P 6.5127893433758866 8.221772978752405 10.535392171652743 -0.20179997359205892 -0.6919846479459566 -0.8834475012780655
P 2.6312446154921507 9.01151568259395 5.903291689567848 -0.5204401308043295 -1.201341781463247 -0.21979949549327307
P 7.228586339650707 4.541034191886686 1.4810818548789855 0.352563806542909 -1.4593941497901317 0.8115077777149702
Ni 3.0848522736939343 2.085079745518756 0.7452324637511594 0.31492054226883825 0.003789034728787022 -0.8405776984977331
Ni 1.2723682987068605 1.5075045510001648 6.6821431158021065 -1.0826007812758969 -0.6030643306644646 1.8767078470159162
Ni 6.8413742675640075 0.9295109160155792 8.997687134846018 -0.10777575942509825 0.1877136707023219 2.394043370752993
Ni 2.8944527651345644 1.7823562614354693 9.384170574729975 -0.5319998106174709 0.3217149394828524 -0.1749370877629439
Ni 6.538077701972946 2.281546640835046 2.454779174450398 2.092992130267079 0.08560050887963967 -0.018153273870259057
Ni 4.446957859292877 7.140841193238032 10.540265183775206 -0.3262146271254188 1.0682774226746892 -0.5086788765033433
Ni 7.412900268389416 6.28473019287701 11.730482703169102 -0.615643967101688 0.9339781630377657 -1.2088231774419569
Ni 7.832459607803864 3.9668883898828757 8.297000387659535 -0.7975564577412007 0.3501950492004162 -0.8353982111793226
Ni 3.2960828402343347 0.03815995119232509 12.64946074493305 0.2024345218522643 -0.9634913420055343 0.3477285899377947
Ni 0.1167940112845623 5.214914369307099 10.264724865877383 0.05536767813702722 -0.2722042343472344 -0.4143332744412219
Ni 8.148300290842892 2.676900108944899 6.1625091906791365 1.4001497623065176 -0.6671583329308961 -0.35230078268950943
Ni 3.9289376589235485 3.0374320530585135 11.553237689346137 -1.317618379270505 -0.7819156658801502 0.3071290712488775
Ni 1.2974019544115754 3.48360784472296 12.605152447850166 1.7939656335206782 1.4717246463310267 -0.20993494399436746
Ni 2.8657623036183324 8.66207241082919 8.079455008695366 2.7386197882150514 0.7887018355640482 -1.22474139133411
Ni 5.884546466344482 8.097687187521295 3.642533353014047 -0.5244448810883484 0.2124775079105631 -0.4777359070675837
Ni 3.3061163148863337 8.787822867392409 3.81551846096255 0.38685023852960476 -0.30808989250025004 -0.8685335602807105
Ni 3.551495262064634 2.8198157211457615 7.185653438186482 0.0838686137901975 0.7069045024805827 1.1490028628502147
Ni 5.2742237570958865 4.838099633147176 11.624505377930497 -0.020100627404616996 1.5887193532512318 -0.27083615035511427
Ni 8.320279322366634 9.137193366902213 2.5855463683396156 0.4262549655794723 0.19755533938309203 -0.07230224910883677
Ni 5.0262341052710555 0.7465096168256296 1.5575554886522294 -0.4900021260294465 -1.1664112881346491 -0.6879513584168475
Ni 5.998498721073029 5.885292381957776 0.4783147484123855 -1.1311990018995743 1.4205236979771791 -0.4181043114478799
Ni 8.27093973350676 0.19101352446055744 11.343027753681488 -0.44149826489178806 0.37273333951224835 -0.17889735796227255
Ni -0.011626277382338663 5.108366691520281 5.9047162064586045 -0.2526113998169714 0.005284388327390898 -0.10583251965579839
Ni 7.6558231519629665 6.5288538186573275 2.374843400647643 0.06850472973961749 -0.7515424529049314 1.3306160770817534
P 8.532956237474277 2.062120099080275 3.467605225858231 0.8076650069301122 0.08063699422677725 0.8145465645412939
P 1.806753159909323 3.716406288325817 1.4667293468953742 2.2345802102559325 0.08542156009961417 0.7549499359245837
P 4.682749061880782 1.150620316166198 8.345170162520999 -0.4349792328263476 -0.3551840177745754 -0.36346888349118694
P 8.788550589941964 2.1045645167831086 12.38012426177019 -1.8262342637463966 -0.714579502527337 0.603293158845819
P 6.7583593177234444 8.178582645436277 1.4381316700042104 -1.5217428872306824 -0.2425488733746468 -0.19323999983718979
P 1.6487282082733106 3.53449384400064 6.061045564554152 0.29562801258781346 0.17267888785638646 -0.7877153032810628
P 6.649537506969264 4.165565742443441 6.164586838558118 1.6438224648729625 0.8594771065053972 0.7980963894050707
P 2.57348163812117 8.855864925775863 10.346204321138384 2.487961398359393 1.1839618954239028 -0.45487031532331984
