# total energy = -381173.16137839353 ev
CRYSTAL
PRIMVEC
9.14461025459674 0.00000000000000 0.00000000000000
0.00000000000000 9.14461025459674 0.00000000000000
0.00000000000000 0.00000000000000 13.38406145897397
PRIMCOORD
 96 1
Ni 4.562867894562195 2.8620526868183775 13.05119965778853 0.5912256861583237 1.7102849673715705 -0.575280475682977
Ni 6.15170734961463 7.517107397459122 4.522193582565788 0.9171901449461495 -0.5788332260312418 0.5156396240918926
Ni 5.211559112909982 3.140167718799025 8.234356673422472 0.2787528340990296 -0.5609481182207048 -1.204788602361267
Ni 2.673920619842483 -0.038960612032800164 6.846536784591988 -0.7730533303935138 -0.47388645141450647 -0.13174769685966342
Ni 5.777628777516107 7.4411979876517576 2.25221600302432 0.8189218107908541 -0.8012495903220717 -1.2366715671127928
Ni 8.229079318838707 8.642790631824486 9.520846050370722 -0.40450574682783885 0.38408758818280303 -1.6485777201697607
Ni 1.0339627934103155 4.245485906104879 5.725527360532917 0.21321952828291021 0.38999624035775415 -0.8097653411025667
Ni 7.743372489238859 6.191769887184328 12.748934624559809 2.1084981963224783 0.9077423692696882 -1.5113368614060099
Ni 3.228934450638573 4.468843011820439 8.826386972109082 0.4426920280895731 -0.9834227908221387 2.1572334567446525
Ni 3.277748380231599 8.225348317850704 12.79874988897682 -1.553841310427124 -0.008156310558547243 -0.40015158362420117
Ni 1.991860718638767 5.8079065821025635 7.464879784854278 -2.654535715979938 1.273230340073433 1.7369876734737375
Ni 4.012783008698785 7.3087748864084805 8.115479483364311 -0.1594665029311705 -0.9954645524780211 -0.9460916584718481
Ni 2.4287627632558526 8.755113879705927 9.22922077118499 -0.27521113949435827 0.12519755444597147 -1.7504959923728176
Ni 0.9318723644150845 0.9272360470108763 12.790987029323107 -0.6237365143018355 -1.2128438685655758 0.942406239200461
Ni 6.177751199648526 6.862874545290921 10.595839795577769 -0.4490038292402138 -0.2972285243057139 -0.26004985837288763
Ni 2.5649625885384544 8.775497215985968 4.193774963979993 -0.6469263221547374 0.46980199693248764 -0.09901266852048754
Ni 8.554042189205468 6.412411043651269 10.258160430176899 -1.0385338728636693 0.9922740705651815 0.993264973723541
Ni 7.908231523091065 4.458354143846816 5.577808069699859 0.07865647346163873 -1.2019310783078139 1.3484497628290648
Ni 3.217275072551067 4.6349548572789105 4.514203022116484 -0.4641918498345619 0.050779801656028675 -1.94378895693513
Ni 7.099729095757193 3.095880371287031 3.4362372785734068 0.31429962085538776 0.25198610752814665 2.18531684524443
Ni 8.100917605978784 5.470186980416531 3.612518845107262 -0.5317429574116583 1.1502400776914254 -0.24782580550287
Ni 5.724571748760256 5.317462844385596 8.030102658549891 -0.1533267085820198 1.019576100814244 0.9424131811789963
Ni 6.240327767689942 3.006921602631925 10.936103427839443 1.4088195221663737 -0.8119893453370791 1.1682141456713429
Ni 6.047413069545604 2.0339167812461714 6.2331044400418465 2.79855785933158 -1.6512616947598269 1.3055645334297643
P 0.4698683646213679 7.8032056742008615 7.7782811244633665 -0.04272247856919094 -0.06207800027766727 -0.29885397572427885
Ni 3.779385120912572 3.6875458000240817 1.8563421668208857 -2.47085302081388 0.5500386703970528 0.5547931543629026
P 6.866870739976599 4.8858189506707195 9.99808131302134 0.09902423848471333 0.068065842429986 -0.3905798807753661
Ni 0.36374516249939964 0.927556108370141 7.379971164085413 -0.592616138747947 -0.6747937379889668 0.344680032919458
P 8.047686829627905 2.844037804596897 7.2712527215703195 0.3529494720171018 1.0810984856987575 -1.1630423716624163
P 5.574088042244175 4.626331489799288 1.421400726644554 1.122858086134047 -0.12515307436128123 -0.3969459322027099
P 8.732407812418652 2.578130827319638 0.09284339909555533 0.25082988243651644 -0.05949558426247172 -0.2363579140725865
Ni 4.571738166518965 8.978681311457576 5.472755701439889 0.6419890327541201 -0.2176037733935349 1.600461067168192
Ni 2.431606737048177 6.316959601708217 9.933770926873734 1.0247895266943834 2.4138262098068752 0.498464912084819
Ni 5.389888157682106 5.055158843552634 3.5532809742734925 1.0071828693562137 0.0900963398674642 -0.781199613649732
Ni 1.5364591274561714 6.589313529222098 0.8698993406511398 1.6671117744182062 1.7461852808126055 0.3491583804057858
Ni 1.6552018917434403 1.8052009339154909 5.626338516374679 1.868564649083492 0.49322217562864085 -0.518421557712404
Ni 3.161721565192949 1.8896879881511535 3.3899152552775145 -1.2211631870645485 0.3101547454490788 -0.18084239750378533
Ni 2.4825239270020867 1.9854686360637341 8.345002799781366 3.0141939674757827 -0.8973556267187255 -1.9223408143636826
Ni 5.586168072403858 7.792332732596121 12.832357246160658 0.4927598912802418 -0.5851018326487729 -0.1682815301196392
Ni 0.6953954863527438 4.582400782087617 0.6866715281602098 -0.5696795845564319 -1.996028888076453 -0.05039670728499708
Ni 0.8227561313534765 9.007925775084122 1.7713942242278817 0.51185161780437 -0.9531156551981651 -0.6894991625199416
Ni 8.270440391065994 1.6432590307377282 11.478974130665023 -0.8139798934045465 -0.28881947430641225 -0.10379543462111156
Ni 0.03017538495149254 6.512315910793234 5.762159754792322 2.65740326733572 -0.6193589540594301 -0.9998919921217553
Ni 0.966667606472309 8.378602841276992 10.822030816014362 -0.5089544987622331 -1.0114035923057807 2.4586168837590043
Ni 6.26980999118337 8.05445384122379 8.132102555903503 0.4000443686223755 -0.09437594107942457 0.5626347618945086
Ni 4.2563588477096195 8.420366276355926 10.519484128789484 -0.058869777753014746 -0.34301267251936407 -1.5826626055341904
Ni 7.627894350816092 3.96771836931429 1.4827135095473867 0.06804141694995379 0.5404160597056241 -1.2344953853970804
Ni 0.42636013790392707 8.642882077927133 5.218258454389908 2.6277360792885904 0.8769359254117929 -1.141999434949188
Ni 5.70763593055001 4.299210491410054 5.754731587874297 -1.1240554488762577 1.9318934910491248 1.373886971955247
Ni 8.09760725706296 8.180804921251298 3.2964939168132292 -0.3308989199749656 0.43518157864514084 -0.08803277247021614
Ni 3.9469418147928668 6.885123382064962 3.6129870491528155 -0.9417804326910038 -0.1559371496216734 0.32718701834101716
Ni 8.309853661306896 6.299273925456267 1.481789903910651 0.14254787279896095 1.3288746689106146 1.0913834125645334
Ni 3.0822731912131416 1.3449984223439222 0.5830713240102753 1.5042071923397642 -1.5905924019042283 0.0367858013697818
Ni 7.081778225807566 1.381467128079589 8.344105713514397 -0.5116598135085382 -1.4273859723146514 0.45758180071721194
Ni 4.637908566394412 0.5047102441909423 8.26381512092921 -0.5831693915127504 1.2288975795943287 -0.32330439545715933
Ni 5.804459064032768 5.4365531038629245 12.784508987411586 -1.7395389791406817 -1.8414366825184478 0.1149347390673827
P 6.014190700453909 0.5298149427506528 10.039812741964347 1.3017127637838422 -0.29278180138827 -0.2812776574034124
Ni 7.639791488770481 8.485311298455903 11.76981022998491 0.5450982956726419 0.061010221134785256 0.8067118989882235
P 5.221965679391222 6.471476081351035 6.140861841840683 -1.2385860105266864 0.17097013269539588 0.6002453731584309
Ni 8.544220877781168 2.0089794290543055 5.178748251280199 -0.7821360094210724 -0.12619925623760847 -0.5033482083190493
P 2.1017057771384726 2.7646808767197375 10.255750825372148 0.7290041625930994 2.625344953348595 1.5320203578972904
P 3.914524171404467 6.649430197102306 11.498033327378733 0.8523721200294998 -1.3741805919362655 0.051170352226228004
P 1.970380029126961 5.1317632437401155 2.4008735308705376 0.7229494717585871 -0.9660285066050912 1.5043342048359318
Ni 4.149933873448917 6.162827195696518 0.9423273973307283 -0.11259246408745126 0.5703051339555727 1.7717284193890324
Ni 4.272992893781129 2.360928044312228 10.06917699998536 -1.4321283720956433 -0.4770679344662816 0.5381732864180344
Ni 8.290768859684446 1.6001970610012053 2.009121170513408 -0.4303355634067492 -0.4913673818080893 0.5956279289910774
Ni 1.0223308491536034 5.862170699413357 12.005583887517895 -0.4250658303673776 2.1631950736447263 -0.52384838515493
Ni 7.726198911161732 8.889759121243529 6.167656464377311 -3.0786234987047623 0.8069741515106746 0.7946819644068829
Ni 2.7767974853204787 1.014274447510393 11.4540797581414 -0.8163939021626777 0.4110944557889501 -0.7814376978024672
Ni 5.024341506960559 0.8846377090147741 11.868196177361906 1.0047171814245406 0.6489664925132178 1.3334535465305486
Ni 0.8712317103667082 3.3824633123728014 7.862332895250429 -0.4026974899745065 0.9072584876547343 -0.0963340932470599
Ni 2.081834539033256 3.0649624439820444 12.707336706926665 -0.1890825260253905 0.242463255639376 -1.2965674721374767
Ni 5.48128853727789 2.1178825926967457 2.0510674977976366 -0.18335410818204553 -0.7327286626325381 -0.4052724497905343
Ni 2.7380243377981057 6.82383620407087 5.689952997681139 0.8089564720480261 0.4011861955363026 -0.8067782334497847
Ni 0.8611250871021499 4.861558299638442 9.812818824746513 1.3793171418318824 -3.1303474094416153 0.1623888187842881
Ni 4.656746463539715 0.053816945868849254 3.2476562112335152 1.3940760453086118 0.9511870707168845 -1.1042011331544919
Ni 6.636161367608211 1.498774188555298 0.06319382923428365 0.8493567302419436 0.5433237202707224 -0.5867169996546927
Ni 2.9907173532428573 5.232573427298287 12.75882543502212 0.5482450688317396 -1.3670627499445618 -0.3300764240736702
Ni 7.341933243228322 8.558669361999412 0.9594607391226905 1.402469925799262 -0.15528614630123577 -0.33099045124750737
Ni 5.051418697954367 2.691240511683845 4.417570096527232 -1.8359872293681028 -0.4278274522729148 -2.250230000978047
Ni 3.137524926432524 4.127547867520904 6.688042399484021 1.701995216558953 -2.508969625179944 -1.2648634561659764
Ni 0.8154413576027343 1.3009214008680163 9.69412909919878 -2.149115969843841 -0.6330264242441936 0.9483655421076894
Ni 8.215316680390316 3.1377443970788774 9.62107920902119 0.2879650967259169 0.5755910649448602 -0.8920889790031474
Ni 1.1838155218181303 7.047943167828136 3.260491586201063 -0.07358702935853133 -0.9026312732953682 0.8058729480266958
Ni 4.637213576014294 4.631406748496202 10.946516395547869 -0.7522826735050657 0.6724920864389838 -0.8983696698055368
Ni 8.951137745340267 4.004671739393986 11.81646694601649 -1.2807631581153684 -0.6392803755737054 0.05341312551381769
Ni 1.4545691425356866 2.3921385991456856 1.6035311859037187 -0.8167474288473545 0.43736598789096937 0.2380828671834932
Ni 3.2100599750522094 8.199459926191308 1.7044867687650989 -0.45474870214379104 0.4660314741464619 1.352800840708909
P 3.983264206764298 1.801049280855312 6.191092271563712 -2.278598267708095 0.46197813001269467 1.004159766259174
Ni 7.332541728486464 6.613985687716287 6.733093321953119 -2.1283111172833475 0.1944731009133425 -0.11054046665442896
P 0.9996339264765912 1.1536474525548497 3.479440989769033 -0.18648699738407237 0.6796636644867585 1.0186008813851686
Ni 0.4381621719115628 3.677605608666341 3.353484042443933 0.2929707774706245 -0.2248727962511224 0.3090448002143516
P 6.607081506966431 0.8581137669419806 4.067643354598837 0.5636588322836487 0.050482067909951765 0.33507773394300355
P 0.2525905958097875 7.843259067160295 13.220775481615274 -1.4178060419357001 1.0938892097055226 -1.395213758457481
P 4.962066711057878 0.11110975809931506 0.8320059046362314 0.36984624777244046 0.7189670900720715 0.9398950427428329
Ni 8.508410583984562 5.364685611792563 8.188329106577102 -0.476182960758167 -0.704374022749245 -0.8672240974406678
