# total energy = -340896.2070999413 ev
CRYSTAL
PRIMVEC
9.03721170621285 0.00000000000000 0.00000000000000

0.00000000000000 9.03721170621285 0.00000000000000

0.00000000000000 0.00000000000000 13.22687282740730

PRIMCOORD
 96 1
Ni 6.376737863549272 1.7919706203966475 11.472235892403603 -0.19878509802513505 0.3784213910359612 -0.6216683189188971
Ni 4.565653540547632 0.4375646165951894 6.090101911003951 0.25966804955343664 -1.042108220478489 -0.0560554482326712
Ni 2.781310326769714 1.624131525938049 4.880068074212209 -0.4503971100433147 -0.4907785991841548 -0.3542784752411705
Ni 3.422979464387841 4.177161886843872 4.775152373194644 -0.7917017987326366 0.3025478796360983 0.7014154543415533
Ni 4.9419811073926105 4.443506588108345 3.011163671179009 1.0877345029580363 0.22244541775655235 -1.5091640221244074
Ni 7.237776276360593 6.101618029788606 2.705094098736867 -0.7940651567584904 0.44208267664034834 -0.3759101945783332
Ni 4.936694338586975 4.529866182478707 11.27161069785959 1.3055431932735255 1.048767891886852 0.3267152209109212
Ni 5.68605089003068 7.761744769663149 12.474819632425664 -0.512721164893517 0.4703840946882028 0.4742289223555898
Ni 1.8206185812750535 6.609708142250985 0.3817589310367525 0.6759031690030618 0.058824012116743846 -0.6613083019080224
Ni 2.65187034454214 1.6706279797927492 0.3959292788781849 0.6102922158714715 -0.8560606246246805 -0.6101055537819621
Ni 0.5983067887579478 0.20078605691109191 4.610954371303211 0.3129708747416352 -0.30086509261703664 0.31676556589737703
Ni 8.607257252888004 2.435501423611289 1.335980033001779 0.39688062618241327 0.5532972865436664 1.541086838974933
Ni 6.908604879819565 0.580070599402574 4.84938131838927 -0.7237570552615471 0.6696592449758789 -0.18275915491052397
Ni 0.8843146550947358 7.630099707796986 2.510050286097743 0.1184214120644025 -1.347388668554402 -0.02004740556917838
Ni 7.674110928452455 3.9989028873717714 3.7704123544768176 0.13199657964567588 -0.6241856860241121 0.46455771781441285
Ni 7.506298945628757 3.703205322721473 12.710045599151112 0.8404727974887526 0.6003567019253143 -0.7949105354779213
Ni 8.175522541517628 8.61989127475173 6.922918919325971 -0.6531962143238492 0.9941504616522878 -0.4593059824971703
Ni 6.829222012830316 0.824011149306273 0.47716477425231474 -0.24420672069304397 -0.8240087383954583 0.1499855600239288
Ni 2.089764818145933 6.3770270543215455 9.112336166434078 -1.0000321172440454 -0.03464432954674679 0.5598723686580229
Ni -0.021807695392959483 5.044372715200919 1.4395464783224519 0.287241331186015 -0.9710994933700953 -0.39431620788934674
Ni 6.6792856346178135 1.8114277370437164 7.1085450537217545 -0.5308029620958922 0.16016147211566611 0.06119379790050106
Ni 3.4701085230568904 4.34137705943741 0.6035980761694011 -0.1925280613718297 0.4479393925314415 -0.11902305020414339
Ni 5.911122645764655 5.555192065576636 4.883560052787419 -0.17180419856091703 0.5338114099049128 0.1697779121595076
Ni 5.466826210223623 2.9245953172199117 9.14904080148381 -0.6514550632630265 -0.4570616665476838 -0.1271942731610261
P 0.1520628341098811 5.641678180909868 12.508587173694483 0.3802095932846355 -0.3956498390991057 -0.9380790725800167
P 4.0460952065222555 6.152127005608609 12.6447047515981 -0.5942678154187572 -0.36941275977944765 -0.6136523905929561
P 2.633832070121541 8.533486494323201 1.3698280054541394 -1.523159822182867 -0.29808932964411244 -1.2683251894623317
P 6.205175437897645 7.695836385219549 5.804414865680155 0.04303126805886138 -0.01603545619630787 0.8903977073436536
P 4.69852766319596 1.0416470873081498 12.683182487570337 0.10197046559723083 0.23614579806178038 -0.7500707534554113
P 4.0368049529629495 6.044023880047885 8.290193912493628 0.2595253533279853 0.5176342859244182 -0.7166150449001271
P 4.653594646953867 1.03997520315594 3.8224865753517547 0.8064504177967209 -0.2763257127147757 -0.1937058837300148
P 0.17885635916107928 5.7019834941406575 3.5664280283686063 0.19691333492371893 0.10650692001500366 0.3030024506750137
Ni 1.4523341327839487 1.0159633318455537 2.409168796353403 -0.41974904614015446 0.7011280050081216 0.6088683389407514
Ni 1.7196187040583135 6.610259412160632 4.771634186705698 1.2265280509208876 -0.30465155624266244 -1.0237739409456754
Ni 6.048678044039172 5.593320061458654 9.20716001322044 -0.2523987695855331 0.4997437787972425 0.2526983031038228
Ni 8.522650877574554 2.392692152103084 10.303760577029982 0.8324015904448437 -0.005079728515752542 0.2519835364249854
Ni 2.375955236157719 5.0739786205124835 7.03214627401391 0.3011152609546298 0.19590803358765616 -0.0818379565134139
Ni 0.6853495963278076 -0.30048367193143494 8.834241282603642 -0.03962918435584788 0.660027892533702 0.7454152569612711
Ni 1.310151682153046 0.8521268184194618 11.338048662904917 0.16458942598003268 0.9404866535802447 -0.4929537524586026
Ni 4.211982263268004 6.859478597379497 1.488116068525892 0.43057493311106493 0.4383044405448387 0.7490340846607809
Ni 5.6536886351708775 7.883159707960116 7.987668734454171 -0.4693245430754369 0.22591692124492058 0.05697693160567606
Ni 5.159651386798695 2.679876663394563 5.101380349906621 1.0954462697799974 0.5293361477423787 0.2136041653158386
Ni 1.028543130439478 7.156106994828053 6.850025674010786 -0.9918629511696918 0.19074602977074245 1.0746362750131815
Ni 5.162940931833313 4.638999550165657 7.1366652414407605 -0.08743062010984297 -0.9394304444015885 -0.5253064577576952
Ni 7.991479726600046 7.220515202140482 8.906737794328112 -0.1466652374014442 -0.7098782403969258 0.9079722258923072
Ni 4.516789337244937 0.3388231385656777 10.232123504131863 0.23242515467708358 -0.3059520202216408 0.7747957670059172
Ni 8.023769683766778 7.4250001897731925 4.704878111810868 1.1420225748776398 -1.0169602604579517 -0.3814637774067108
Ni 7.380311178245206 6.071307221969622 6.793414772895799 -0.11478381531181522 -0.18572569373801562 0.6969964993382513
Ni 2.3005758539221404 5.4040266265819685 2.542641182411874 -0.6783315759388963 -0.6307466270710815 0.39305251068557473
Ni 2.3330194436866445 5.116842115290489 11.377094839488905 -0.25668042768002247 1.3800190529949137 0.845947961670711
Ni 1.0851612613237727 3.129008007159554 3.699926622340815 0.09469218676826273 0.8153729170973312 0.1458237153367553
Ni 3.600370891543119 2.6626065519628166 2.6272005642248297 -0.5145044820461848 -0.5227469245606352 -0.0748368426052324
Ni 0.9993529368630581 3.3600804714182178 8.289149210828787 0.15340821255223255 0.0020519974330222724 -0.6492115186444883
Ni 3.6438760283471088 2.6338682189680753 7.1808029830591 -0.11219831397282612 0.2502750383743109 0.0024055241176990827
Ni 4.01258522578499 6.880670858660211 6.144345062670944 0.2652794822029431 0.02401873151210057 -0.4906009359557099
Ni 0.7309116024995969 7.386239589076825 11.057625793357674 -0.1550963988879329 -0.6973759941648571 0.46183569089755944
P 0.2122271668391872 5.5282340632737075 8.08280978736887 0.19935048361030183 0.25522415484947014 -0.6044717525349526
P 8.69157443742918 1.5846117994644626 8.068762345605654 -0.8528282337303119 -0.28878604996531554 0.26415668145240956
P 1.6702122680576053 3.294876989482035 10.376878848914842 0.31685478317707366 -1.2834422476094283 0.5729312587245101
P 3.8719933244015956 6.077244670012876 3.897113157858257 0.21037640240716024 1.7717201918589165 -0.004252604628766869
P 6.8587013971790105 3.857045776359677 10.4710935876371 0.5210119441473995 0.8395268886357155 0.8259751180932098
P 6.200801427466998 7.809777549495555 10.295929833149495 0.967671698635469 -0.23878297857431138 -0.5118251354418089
P 2.4074318442774314 8.522000198336936 5.809956483853858 -0.05970307228758749 0.6830001850591592 -0.7723244226472892
P 6.693853619771123 4.07985822918526 1.7382886795720986 0.8537659150532328 -0.1955650484259406 -0.4982435401026322
Ni 5.381117295090877 2.9952030517129673 0.2414300125118942 -0.7454430248754129 -0.544756596062507 0.5332282837079332
Ni 1.4834402152266848 1.1507533433601989 6.990825431261754 -0.037993705634953925 0.8098296186815989 -0.6392839751181313
Ni 7.13699329222306 0.5585412501279283 9.321638891588645 -0.7303339371481163 0.19589363540995294 -0.6190033704922243
Ni 2.5876338442507487 1.4943481296683998 9.236934010668389 0.017300181841344398 0.7456849656828899 0.3035251559477031
Ni 6.350023865960449 2.108869483539293 2.5910914814217514 -0.33020806455552804 -0.2916489733354074 0.5415972244979189
Ni 4.218561353337241 6.768690769308687 10.392208671008861 -0.25165366388939236 0.6538317910253191 0.6218038160554968
Ni 8.062521247251512 7.262493050178398 0.28063976262644946 0.27773184903368303 -0.443499611592533 0.07985460753479795
Ni 7.622065626654745 4.009205308634037 8.380440411587587 0.08546346908114313 -0.6788766498090889 -1.2566639510743196
Ni 3.1990102484731606 8.41499961259551 12.30601807492809 -0.04620940867652687 -0.11073278517089317 0.2688813406215885
Ni 0.06785771099296128 4.965504969274784 10.189664876435039 0.2266633124926419 -0.46192645083915285 0.5731739708629355
Ni 8.55007881488243 2.2053055688810814 5.667807470905999 0.8842771962682126 1.1119046724463366 0.3832483801109593
Ni 3.4829775124230897 2.9557013996626478 11.696682273092538 -0.7980794201242062 -2.1532215073717818 -0.3467939939386672
Ni 0.9678582543200787 3.3893610371109735 12.635816653956487 0.18641680626776927 0.2632639944348111 -0.34037600622746544
Ni 2.9709652501117416 8.469358440571412 7.955831541590279 1.5582556374447358 -0.40393110527129145 -0.14736097791688815
Ni 5.57600476396874 7.8942935526926705 3.689213007949222 -0.6649235300631064 -0.2761097400492277 -0.5781994491019848
Ni 3.0944587470844294 8.360405817117133 3.4449923044848823 0.503015764680295 -0.19243910120244923 1.574276438353024
Ni 3.3627554860617535 4.183487934987368 9.311149400045563 0.4726510363455085 -0.38889246577061415 -0.405029994762425
Ni 7.364252053172358 6.194836867788844 11.25670381727002 -0.40129546742065725 -0.6891831739414195 0.8183669667286487
Ni 0.6086977746942227 -0.08224675935592597 0.19202357651118576 0.8188053398176479 -0.15283717054011098 0.9822218285355021
Ni 4.553787681672759 0.5127632545980968 1.670250224346466 0.6346598460825585 -0.7254691528566474 -0.30507861647775203
Ni 6.04547887112089 5.50977103990633 0.3205914678161206 -0.35733397423804264 0.839142251602787 -0.147118779999095
Ni 7.848285108266183 8.755187370117856 11.52384650432174 0.32014142434814546 0.4533533644581612 0.046399927420778156
Ni 0.1461588237496721 4.801967587553763 5.695464953389367 -0.29604427418962564 -0.1090595112335283 0.19232083045703005
Ni 8.062629693791115 8.890935326065659 2.570404400271354 -0.760708949895548 0.8220120196804037 -0.044491140433839504
P 8.373310955329867 1.7968236030438727 3.512620470302351 -0.010713529762762193 -0.8070109182858812 0.21790536379435377
P 1.7577738115752317 3.270521704129573 1.5584029820059564 -0.30270985913525933 0.6286290665074463 0.11898551209798863
P 4.844234626363954 1.0452438975383092 8.215554677890838 -0.12378164793505135 0.1072139733843573 -0.26711884940452707
P 8.624183950277674 1.6160070726794729 12.605117246037263 -0.968081532479378 -0.235911056343155 -1.7251053202138549
P 6.489757232238655 7.805819250800054 1.5611674650446643 -1.9092001632166664 0.3835042048755073 -0.35989684986921244
P 1.7922688483805551 3.3489918127438316 5.932595964327173 -0.33290232355823957 -1.7553695184150349 0.12175176198921611
P 6.920823189948147 3.855238334032963 6.029337507422176 0.4457128171937678 0.05967916102818755 -0.14919777401531079
P 2.4613297744600224 8.321365062860126 10.108425766176257 -0.002150470684099522 0.8298263735185 1.0266666891124383
