# total energy = -340862.00273818383 ev
CRYSTAL
PRIMVEC
9.36931304221899 0.00000000000000 0.00000000000000

0.00000000000000 9.36931304221899 0.00000000000000

0.00000000000000 0.00000000000000 13.71293670196472

PRIMCOORD
 96 1
Ni 1.8884975062433014 7.024783107770855 8.980698444041266 -0.3422498262114106 -0.1456825617732007 -0.1788027413659372
Ni 3.8260246284368873 5.105910288148837 11.256017414860036 1.845554047120931 -0.5044643242013634 0.36484236679994586
Ni 1.4883435089911152 5.428420786952713 2.8210121315193306 0.09933585618786119 1.97959131134572 1.2814578701895478
Ni 3.559008571687957 7.999219788007317 12.934617945317397 -1.853153456734744 -0.8544518853766639 -0.722257330787569
Ni 6.35602027052656 1.947486702120043 12.378955835377184 0.10377358024424063 -0.38051838277430594 -0.5935473923129648
Ni 3.7476503235593546 6.874836619395477 1.6639553570020007 -0.6026928062576588 -0.0687168457504236 0.08225498944617447
Ni 0.9320574027921055 2.244091049939296 8.238979575740201 -0.0767533429016549 0.7129964743109334 0.7617350771672171
Ni 0.34862933319803024 3.5202758309391564 2.633871343621798 3.056122746499085 0.07192429694412775 0.36847842089063637
Ni 2.279432099311448 5.920459638709856 5.290355524640121 -0.4339327938397043 -1.3362820171182794 -0.4778778319620867
Ni 7.824182278895296 2.8225430772954208 2.1167424080593307 -2.2610417468815704 -0.9282440887674659 -0.5307705661960601
Ni 8.612178995861225 2.280987405301845 4.267685620074962 -0.33537598190971274 -1.5077033784184808 0.5374857734327066
Ni 6.396411379710905 8.1586480213362 9.097779255590652 1.0484148794228072 0.5135716858192704 -0.011972598980843897
Ni 4.641698296581326 4.499687616482251 0.6570090338409629 -0.16873327294507715 0.5327950528252566 -0.36704477376790334
Ni 5.747155452538939 4.323713176050713 3.4229277299101004 1.3543851544768932 -0.10063991971126539 -1.015499102531393
Ni 3.9528382825334085 0.7784362697815855 12.248833876791451 0.605028653479687 0.8497526801287818 0.043143625267009565
Ni 0.27075253885116085 4.229589055692112 13.296063562035089 1.1705327665021907 0.22139460789453483 0.5998396530795799
Ni 8.025744313662821 7.7064006427189105 2.1006028291493437 0.34902879680645693 1.536164204862335 1.2389799035309954
Ni 0.4276904087327682 9.41138141140857 8.821518497512056 0.5292132490112692 -2.08485587431319 -0.9700186016010908
Ni 8.837248637435414 1.294923407390185 6.492691379035713 0.10421632420861406 -0.6282585705419051 0.5956407845068838
Ni 0.1214047495889544 3.581925911763324 5.975233580580094 1.6988420156419517 -0.26828098803342826 2.1794652715596596
Ni 6.095403454689926 7.976442987629879 3.732894592208294 4.462372193945438 0.9715283533773976 0.7727841358925273
Ni 0.3519254575800883 7.127058530609246 6.476702646068167 -0.39992121278095 0.9803989163941501 3.4816423765744293
Ni 4.6707244288599385 6.505076674148397 4.210502827782247 -2.3071089735532784 -1.30302454061673 -0.296700933937018
Ni 4.5946362364020255 6.498405723153441 8.96804143884592 -0.562645817638102 2.085150008514841 1.0429867664287005
P 4.908601921571914 8.451710768767681 0.6451962037645023 1.8334822035580616 -0.022263182273574558 1.3228166356419928
P 0.5040371942348676 3.576351170412203 10.91578579707883 0.8596324011363389 -0.18712103142364547 -0.39143657234870655
P 6.038016411369557 4.441241840770829 12.40321392417078 -0.7608351910607671 -0.6101289508207298 -0.22205203897287568
P 4.812435290936769 4.709035550514957 5.312884975149209 -0.627836395402822 -0.9059567381241752 0.44409687885689964
P 2.068875523876566 8.570035825109384 7.380042166985781 -0.09893630675659734 0.011645554658728331 -0.8067759194569396
P 2.1915385722276306 4.293731373826193 1.0870792481253022 -0.47677457159557896 0.21270556476096916 -0.6817997369931549
P 2.9799475389741468 1.6215938812527133 8.791857125798812 0.8053983223831226 2.0014315471492625 -0.8330973309602877
P 8.894916760151638 6.262055428492278 12.938937198700367 -0.11625577187165138 1.5591457533591728 -2.144788289002764
Ni 8.503101451643147 4.556718625901204 4.254356835123525 -1.3197446815848883 2.5519785246413016 -0.9631864091706058
Ni 3.585430034898315 4.621179500683921 2.770122706899807 -0.06372993405879346 0.09467341771518534 0.9398927287499877
Ni 1.1674726399963922 7.728933840953276 0.3342446266494976 0.669725322327124 -1.6803984642247833 -1.2345660907340157
Ni 5.191620765258181 8.007061903151667 11.185875925487093 -0.3481420233261295 -0.2772705931265483 0.16940664486301793
Ni 2.1260002264274704 1.988355646277341 6.323460033310732 0.11300769724799893 -0.3035305552643418 -0.4708425223818601
Ni 0.6327987285446635 9.44379923506383 1.625092382799787 -0.9418596226683714 1.3520757896174265 0.9138924480314842
Ni 2.956861551261267 5.810032913391673 13.336969046513849 -0.36852444363722336 -0.7529259635160194 0.9680486223589134
Ni 8.66246409977966 3.888180652173594 8.872983197961764 0.12779436863887023 0.9541543808753247 0.1320621427762887
Ni -0.04732440094876472 6.087477015726819 1.221290911920724 -0.5388646560581043 -1.7196360695691675 1.3778613832219624
Ni 4.6670422887742395 4.267459819626958 8.976721170589919 -0.4700015145378034 -2.2591589280365607 2.414025470301875
Ni 8.594733334691833 6.6116057651773925 8.745754483290694 -0.5605462547965959 -0.4362149050056617 -0.48096649818973936
Ni 6.251308826257427 0.29857939904079284 1.9046033556257853 0.032995223979098015 0.4529620425570135 -0.9364273959092065
Ni 6.635816070473692 3.3790053265824995 5.524612714733486 -0.1900780571694404 -0.06529573588401658 1.8249757087489473
Ni 1.5123757973367065 5.740774950253033 11.623003106470028 -1.5887445500622122 0.4092257780113275 -1.1553856264481068
Ni 5.4028331926167255 5.305720261348868 7.237962153969062 1.4360598459395655 0.25979377649802354 -2.1712099735294026
Ni 7.718908675834452 8.513032923630018 13.578715128644106 0.27178617297320934 0.17092770949323466 -0.49913057069327593
Ni 5.917077316646402 2.6729713614478494 0.7555179927748992 1.5957801167527548 -0.5122018020549373 0.7933845857516981
Ni 5.530743056357081 1.2028980131873008 8.959936982932104 0.7050368531442245 0.33016075625736047 0.27566673897453814
Ni 8.481711309618591 1.4203129258810419 10.070712161059292 -0.9017419287118793 0.2698943552671352 0.1685124151835227
Ni 5.63230641139264 6.541429609345627 13.163610518326399 -1.0849667104049119 0.10022622921261448 1.0394437862724486
Ni 6.796630962155457 3.128095119216053 10.362098738360158 -0.821334791107721 0.6272553260883713 -0.8624341322511921
Ni 7.006512947040288 6.530757961616337 11.389636001130205 0.2613894031199176 1.5031604962428047 -1.3895259640440845
Ni 0.48654468649949967 7.155278901953074 4.430128898390047 0.6259096106937543 0.7670760297641565 -4.7421521837574
Ni 4.456092202185161 2.512428179848744 10.743976016362543 -0.9192416281585395 0.406935439315254 -0.234209500271016
P 3.939580704362254 2.3376623808193817 0.16670444195624454 -0.047393401682299025 -0.5908693312601695 -0.29641759836864434
P 7.406273433138278 2.617720521535978 7.623419446543316 -0.40709716170409893 -0.6325834231695041 -0.8359178311282184
P 1.8871764330827834 7.863580240880953 2.5142392680893684 -0.13465458609381323 -1.040462200234634 0.7633034500956016
P 2.0557116388373626 1.2672558255248705 3.003503866209424 0.24268462762156268 0.29140189032160785 0.6128514919582155
P 3.2642687171945415 7.124481969480576 10.73001667663307 -1.0389709604010882 -0.43151235732366966 0.35516936248655606
P 4.916200434573191 9.076063061466906 5.169283385669594 -0.352487958999651 0.5189658602516483 1.9730103156940926
P 6.240665286467722 0.38420930005665904 10.830793009360237 0.21731092474346445 1.4253031216436935 -0.2931985772107144
P 7.969678343502971 8.721397079777232 7.381674301344378 0.41645572010086346 -0.19079539495143916 0.7887779402176223
Ni 1.6891559987030287 1.604935242391715 10.602581837071709 -0.777056795125952 0.15043576018746996 0.79547180729803
Ni 8.850403153161421 2.1361003460518555 12.38386535549145 0.523538053003363 0.7704441749054409 -0.19416431142367205
Ni 4.1909406387620685 9.138584488418223 7.536465661572975 -0.4037729824268724 0.6267501043171786 -0.3338430902049541
Ni 4.299887012595415 2.416598844488624 2.495384462215424 -0.3688149782944487 -0.8129113429307161 -0.18739665368253533
Ni 2.3712232606844528 2.8887560136456325 12.557539629533574 0.24097612957088824 0.9241838026551632 -0.8191766071141375
Ni 3.2060571743129986 0.5889166132638014 1.274087928706783 -0.07684744527735797 -0.6817388018482324 -0.6279353828745315
Ni 9.262109513583244 7.692412258118534 10.694294296213874 0.036048666093441144 -0.07641472861531355 0.9346193961661904
Ni 3.181668852065991 9.217080594367292 9.85008451087093 0.4309585417027288 -1.6031645821422842 0.3968155772724327
Ni 3.0022371350654384 4.3973653470778835 7.1263530213256505 -1.0841097617212556 0.8895857529653196 -0.3991881912696673
Ni 6.098054970324157 7.682452678192076 6.750192898234955 0.9149545707474113 -0.25868434548392866 -0.8838575922322907
Ni 6.081799211930551 6.462914764770167 1.9171507398567469 -0.5029093210094178 -0.9318348914425177 -0.3400384203823886
Ni 6.271396633747855 2.0031497918125023 3.7901598344571252 -0.11163087150513033 -1.746246473067844 -0.5385394115082015
Ni 0.44657707027157634 0.2747982082888319 4.272333736351082 -0.6173416665190853 -0.14346421396564324 -0.570965650357707
Ni 4.049913736548485 8.776245039221712 3.276212717655735 -1.1006170153476593 0.46781607685071047 -2.1431003597773803
Ni 4.432106760405546 2.63169953682316 7.391849375474325 0.3179454451380911 -1.2694688161484717 -0.8438733385298692
Ni 1.7814999495545483 0.2396895178839198 13.090369660148497 -1.1247532462742307 1.8980328337459378 -1.8369526786051653
Ni 2.603432318913355 9.23678426001672 4.987998418519039 -0.003934302057399676 -0.5192623084461444 1.8978806244387891
Ni 7.876997097376425 5.1377565836991925 6.661278116012865 -0.055225753242524246 1.1091895875080189 0.33865259577845547
Ni 2.469647895799633 3.955105656326638 9.748883748256024 -1.2456380322774612 -0.6741298791527228 -0.23466921351625392
Ni 4.025562891554259 2.070093534591937 4.876512023878483 0.3891097239877428 0.20273765491497986 0.02886783207428577
Ni 1.119895267591358 2.355913802923558 0.7616370912226597 0.028228655828390094 -1.1145104855003 0.45851099739970064
Ni 8.119240690037346 4.713129940381243 11.556934457543024 0.9301047961252884 -1.5697564389954834 -0.4150354427145691
Ni 3.8835428421419884 7.025167249611855 6.465924188168453 -0.7749644313732975 0.4193209574638004 0.47105540972361454
Ni 6.293845508163463 0.7680653770058605 6.60907323982074 0.08052849367337099 0.8402871638405076 -0.41447134268098296
P 1.9719780868121974 3.651436846358233 4.7813582159997345 0.2815278257410055 0.43134163607376036 -0.02906992078276284
P 7.6338446813355745 4.959065042441058 2.1323338821474 0.08331274128672748 0.45730206469326395 0.25900701893067
P 8.01986038497626 1.388223028187611 0.5127009981464342 -0.518239780718901 -0.6842757093374731 0.051749878878781845
P 1.018856594094728 5.421318847550779 7.610775558386446 -0.5823209274695261 -1.1932764879566096 0.3780609223727489
P 9.158007074671794 0.1497684714246692 11.81309148029876 1.037532685292665 -1.0307470298293993 -0.18517342077897142
P 6.606265256656149 5.152353973657256 9.139988011534859 1.6602541280664247 1.0602625227900127 0.3703401566897235
P 7.861462776098846 6.643067918886747 4.8549007660625225 -0.9664884769606451 -0.265065309309608 0.6865063984402048
P 7.761979408592614 0.19059900139786695 3.5269533404533484 0.240747815610166 0.3303433045818117 0.11198825484454906
