# total energy = -340857.0558695524 ev
CRYSTAL
PRIMVEC
9.34260147826597 0.00000000000000 0.00000000000000
0.00000000000000 9.34260147826597 0.00000000000000
0.00000000000000 0.00000000000000 13.67384162807064
PRIMCOORD
 96 1
Ni 0.6921185960287067 8.056947325828196 0.4319953483619527 -0.46328579308052464 0.8119160688969823 -1.233485198965011
Ni 1.0478381438782927 1.2661747383167645 5.312260139107455 0.1829473596619301 1.8389172585307039 -1.446022356468916
Ni 5.504501913608995 0.2711026728179775 11.291762329527685 -0.9344252778775133 1.2284586922846972 -0.9002979971765012
Ni 9.077776009093668 5.295507920558562 2.1806220223570523 -0.6375775339499858 0.4900080395667174 -1.3297681272591615
Ni 2.1719773132927 1.108742562326919 2.5431429840171305 1.9250846956574073 -1.0715710058242964 -0.02620468341982584
Ni 5.728808430334423 4.35324117236511 4.716818782242176 1.509853334881948 0.770800272693279 -0.8878525723242968
Ni 8.402726345800907 8.287887089539131 2.083155333376335 0.050427560522932506 -0.9238708994004345 1.2351859837062018
Ni 2.899887415238984 8.330050249603351 0.43467106939948713 0.6114931781581082 -0.5801200631634654 -1.4455338468682717
Ni 2.100403644058933 3.996465910558676 12.693139458091595 -1.2569298031411964 -0.9337490777460951 -1.004427932318896
Ni 7.5821189528825 6.275920510219377 10.576046190913068 0.8728900374771934 0.9508551412987625 0.2801821103463884
Ni 5.848748746954068 5.454556366588538 9.065387719653128 -3.925872438575084 -1.638950738602958 2.2390392744685506
Ni 7.609969247620245 4.313217468018752 6.290733204720112 0.185816453679609 0.1606936904700523 -0.12655149737070462
Ni 8.807718773371011 7.764813523025604 6.429454018649994 0.19139446198801877 -0.5221501715169007 0.35394526027146783
Ni 8.503028514302896 2.236889707736795 8.611184073531668 0.24463532359003032 0.08916534341276257 -1.9230931191486753
Ni 3.566416626065852 1.5516098959241327 8.627414974923107 0.3314025990842615 0.5968772280171463 0.12196156400717705
Ni 5.431386715146202 0.4399113345180382 5.211251669940531 2.423247246010459 -0.3340675475109343 0.499940468189081
Ni 7.149192147162161 6.479122090409225 3.5635671326425 0.42002286862683147 -2.6016985175742486 -1.6757175138093463
Ni 1.276825303899129 1.5302246813469111 12.401313026874668 -1.2559376144312564 0.24471091402297213 0.14137133599235652
Ni 3.9017786454909005 5.588837576338824 6.947705868587155 -1.8134078014056896 -0.10083506644120699 0.3681048396013015
Ni 3.4476534772211 0.8712508322625505 6.337059427962843 0.3144916822615358 2.1853258441054946 -0.013676469045828058
Ni 6.316514113250406 8.12124310858068 7.3129614096735125 -0.9346242812621967 -0.6926572485329491 -0.48020185210957295
Ni 9.35624158606556 1.446860649161439 2.6237911219791 -1.438338100450781 0.5257684849957784 2.51499680521063
Ni 6.419749858588237 2.6816629320171685 13.157722734355165 -1.095921666754519 -0.5472829620287865 0.512983160305652
Ni 7.8947597657318385 1.2958935533321165 4.545403534754852 0.22614600653659117 1.9116828204292047 0.8370683997928938
P 4.41251063557083 3.062140373545058 5.67520525487055 -0.934436590731423 0.818499635651771 1.3374945493691417
P 7.405216795599982 8.762920999715364 11.051294046661086 1.4941588069648266 0.46398976112608475 -1.0436704227592866
P 3.881430459667752 8.21071720207393 5.971407760577633 0.6714708442633209 -1.98582675073247 1.614291288183065
P 0.8527272564904856 0.9352504545510343 8.628781797506177 -0.9254256454820642 -2.714200221720106 4.190639499917983
P 6.045784210227811 8.561550569397571 2.9996579897219915 -0.673882281918291 0.3294009952732005 0.024074010230068214
P -0.005847534208773623 4.743593743560157 13.339830589131102 5.30187002911543 0.4872147930922964 -0.03158265990228754
P 1.0777064405158532 8.878582404899287 4.41364295885906 0.17336562951076595 -2.637852856007618 -1.564644314579899
P 4.503049785622316 1.938627158423649 12.129695576720211 -0.01634193169313315 0.9261429832640631 -0.32461000164246034
Ni 7.690829462633723 1.8108951122463797 10.652222959850723 -0.6975549429448825 -1.6027748029030333 1.2307310332586416
Ni 5.761171201542591 3.0843757648485908 10.296115694043532 -2.0766157457915853 -1.6487512696331474 2.4556955963471516
Ni 9.336117622675722 4.600437062491235 4.274593285360321 -1.1285561649600886 -0.4016551647529211 1.9527903891027918
Ni 6.358761356727119 3.354507741382351 8.279757157811261 1.309182846908642 1.5622375049106192 -2.2765035899625956
Ni 6.069430334340939 1.0760060870632302 8.90048146255285 0.9076323260543852 -2.4171838134251984 2.2029080759636317
Ni 4.406942445143558 3.9114575805289094 13.414790951368031 -0.11278658237612835 0.320362539220016 0.4186439860014339
Ni 6.195882444128047 7.085232698059645 1.3854059514910573 -0.4232465177704518 0.2810717120401933 -1.0055985555882294
Ni 2.152694184027787 6.2306275786901635 10.73061579383762 0.5894863348697138 -0.0701314667097631 -1.2024167596949809
Ni 1.7824655762225767 5.526569138087543 0.8062039043584677 -0.583656101341182 0.6615170754847187 1.4545087966733723
Ni 7.237489072880518 0.8675193972681678 1.8024587431929804 -1.8638698147109838 0.995682582026098 0.1593628874737707
Ni 5.506426489494931 -0.06329705866410318 13.690113677232986 2.052818900482303 0.07879788413550945 -2.7947369429235933
Ni 0.4589665043090826 4.5986245978219555 9.59833921861423 -0.501334263212814 0.6681487218686234 -0.45862155483563594
Ni 0.18544783477215818 0.40244002887089125 10.682537832834631 0.1106962755060029 -0.7293360920112213 -0.17020008729859074
Ni 7.554913297640531 8.465872988582664 4.4922805690023235 0.7075593624557621 0.977830898556658 0.5197726724236598
Ni 1.7975071644573195 3.1619754119776426 4.036955810714298 0.7421417284163219 -0.8519610006340103 -0.5882501484697675
Ni 1.8626624665375038 6.314010296078412 8.287195737036416 2.0264807768084068 -1.679202387034153 0.7480236411183956
Ni 8.513099838599201 3.019659565033644 0.8299939045329702 -1.2275379802426407 -0.4248948520071521 0.7605425995210128
Ni 8.087413548954592 8.759800570851759 8.709019795267212 0.9943857175915455 -0.27437681651852097 1.854613071999406
Ni 3.4974308574165716 4.982194440409286 4.62062362131037 1.054610723820874 -1.486245722765337 -1.4373793360819376
Ni 3.277506020742133 3.922687387397332 2.254064211868427 0.6200942895635578 0.6011740556202871 0.015458500646915311
Ni 3.169655030318611 6.132091161850516 12.845821855535762 0.8459908990935043 1.1501855703044062 -2.3609080216516047
Ni 5.7082266794765735 4.694703910496548 2.053236586691279 0.4231902106112195 0.01805634328107858 0.1053686926455024
Ni 5.647994928327886 7.498138309005418 9.749462335886733 -0.4943215793404068 2.6451637878467347 -0.45732263351855434
Ni 8.459426593624917 3.3242190276823282 12.176925229517165 0.47785289226142225 -0.23650035318772175 -1.6440446081860975
P 5.476259229612953 1.850731964564978 7.221975683275678 -2.3287229522786284 -0.7561285296137171 -3.3838502107246047
P 4.8726711243373035 2.6978536602226404 1.6825660738404145 0.921755909939961 -1.9306652750689781 -0.9300888552856884
P 2.5525481808344694 3.9629446567783924 8.391964603262025 -1.385648226256233 -0.26079907783408635 -1.4269429712399617
P 2.227547106348756 8.256822939923902 11.723213004228716 -0.7342091038328065 -0.3557758857223034 1.0724552082014627
P 5.901459703985385 5.794085186232652 7.028491342789529 2.6304015419358957 0.29704751864315937 -2.0084354892709215
P 4.339890594981603 5.993101281000659 10.881410985801402 1.6866642426288372 0.7138626789659706 0.3426329205824421
P 7.849121157951267 9.748070288279916 6.82064929249024 -0.770902345488782 0.016997820109577177 -1.3778698678623948
P 7.89660960080667 7.839703815752124 0.03253093803315187 -1.0582089826950938 -0.7916352071607593 -0.6335360168907606
Ni 3.667886619741344 7.834154310527629 8.246378845832213 1.863107225513346 0.4353579563220051 -1.345856805290908
Ni 7.810610955029771 5.61028818912576 8.352255744582443 3.3861762877546195 0.6812220101128138 -2.116320777690691
Ni 5.744718880498254 7.201856391186537 5.075538239397461 -2.6390473905363514 -0.7411965908942332 1.4529172838165365
Ni 2.7949232886443656 0.7323581144671297 10.680021870280832 0.5027630252395406 0.060477231449450684 0.9995657191305883
Ni 1.5180139013327443 7.6455832441114495 2.5830704595691927 0.9166980358010793 0.14129060335309215 -0.24487572173561056
Ni 6.357743013175822 4.717004700009798 11.744339428747486 -0.7867498540439999 0.7379780839569354 0.6533018866637781
Ni 3.812519431829576 7.239096000319259 2.516151274346947 1.0100108257233122 -0.4417558894285489 0.4368124293803444
Ni 0.02368349451867892 6.987406318925489 4.131318887513909 -0.8195267913647049 0.08230666861971632 0.67332846629735
Ni 4.370057854863581 0.1256215525237115 1.6919740734381696 -0.4725155392089088 1.901532105148448 4.30336771825235
Ni 1.5521797946088032 2.2012103130358738 7.387717168940045 1.1294971887171192 2.455399662373287 -1.1282545745592698
Ni 1.9997931697111404 6.355211168199664 5.295359373196493 -0.35973435614941923 2.859928549129578 -0.06524765625490055
Ni 1.746561959088343 8.340831611605148 9.253526223625041 -1.5134757621258839 1.034437848417425 1.7028953597757188
Ni 1.523722230780836 9.192054709272162 6.958234980351476 -0.0737477233061117 -2.784709383484262 0.2923742815372061
Ni 3.501074471957907 9.08467084891804 4.118930598073369 -1.4988772954864187 -0.12884826382468131 -1.3532813798897532
Ni 7.974937970843989 0.9114548488156989 13.103833675288818 0.13876372316618035 -1.270980881917624 -0.8849852780788307
Ni 1.4109757172299813 2.9389955446493157 1.3264746904555849 0.541095602271152 1.2342287619992551 -0.6811394777013366
Ni 0.35650993192701386 6.609899824638997 12.050947723880569 -0.7406929117849372 0.23661425305776673 0.9012469913533318
Ni 3.6589364076116024 4.134241253228088 10.034302369785683 1.2141296772565349 0.02913188436894983 1.757895370160682
Ni 1.719543155874134 4.187409997727418 6.2866037749066 0.9174786227208457 0.7768050841264621 -0.1854143331451839
Ni 1.6507255540498387 2.961315019365341 10.42329559247877 0.4712970934207754 -1.74057976170037 0.14258566801543185
Ni 3.079461556518482 1.6873578940923395 0.018666517573301965 1.243420198690536 -0.19890002633644455 1.3841577577536355
Ni 4.402663533707837 2.1075040211138427 3.9182935619645374 -0.7283670432297327 -0.2775742404098962 -2.6524729199136385
Ni 5.9908403714647545 7.4889078188340354 12.003649870093483 -0.10165653390123784 -1.978638203403831 2.52290191899032
Ni 7.603401398844453 5.266714023080626 0.2636080379844926 -4.30279719046086 1.4981283331355362 0.3227845183979473
P 0.10876469683927269 6.738977205416143 9.567162957782342 0.20905048450688515 1.0854935294426595 0.6460480333148423
P 0.3907813965987574 1.0809109527919507 0.6668935722810014 0.9593634358800897 -0.9497117717229384 -0.8972836358302094
P 9.286779344745488 2.9442367440280055 5.799650573879507 -1.0901562250256516 0.9602337543001851 0.20911990429223987
P 9.95528918706662 5.904131687982364 6.828374689578011 -4.047594889988262 -0.05999566382734184 -1.881714041981256
P 7.760506583785718 3.916194279432645 9.997396291522513 0.08357293692664962 0.6045128901855331 0.5272566395055307
P 4.265738367764737 5.967773488637685 0.8590437892889389 1.0748558472231553 -0.36877358353355194 1.1641163214528853
P 7.606904874364968 3.630871233041933 2.7710725615608407 0.19102190913994843 0.5318715125697228 0.6637217964455214
P 1.7687880077904876 5.264817474998854 3.0612995394201343 -0.21544841761342892 0.9789999791640946 0.7297076164180272
