# total energy = -381171.8040831379 ev
CRYSTAL
PRIMVEC
9.26136318939874 0.00000000000000 0.00000000000000
0.00000000000000 9.26136318939874 0.00000000000000
0.00000000000000 0.00000000000000 13.55494118062126
PRIMCOORD
 96 1
Ni 7.282534001493521 1.1643941448260275 0.7784870339366066 -0.32431561033049305 -0.8035481565482612 0.27897806273595827
Ni 1.4998962867097085 8.430442919892315 3.8913932663273796 -0.5728155590822522 0.11723510506578519 -0.35894888413364634
Ni 3.768726511255074 6.66248573784 7.718874791614482 0.9161570756959447 0.09115640570086236 -2.4458171608911745
Ni 4.887693669774595 8.844555512289679 1.9465847978908648 -0.18660269702633023 0.36043035377517924 1.5765428657896976
Ni 8.01918282734865 0.3082357626003004 3.291369922101367 -0.19072751782798122 1.6911978688331326 -1.9262936283638437
Ni 1.2840787409603733 3.2006808017526285 7.489105002262547 -2.9689502651466353 -0.1383456617921553 -0.5887481711521086
Ni 3.0511560935123585 2.015059612560748 8.164777939199555 0.15522546826662942 -3.383407466760231 0.7676604415127166
Ni 8.099830777757836 7.381945473667634 9.518876290205126 -0.18928512895449984 -2.625421058002169 -1.3508797124267962
Ni 3.8559778135983125 6.526278869825775 1.1613564177090994 0.6053235590122865 0.05907392334402084 -0.21176196990077725
Ni 1.3435089083668654 8.231277305107117 6.283135672068827 -0.25539076233432145 -0.08683849505179883 0.20748108313723623
Ni 4.5285102222872995 3.845401336868031 0.29071418963531015 0.2432474421035682 2.2479710297405413 0.9880818868607049
Ni 1.9841359209649436 1.2597861853881078 5.908680236728436 0.6198693180369454 -0.10744768666171818 0.1428926577328894
Ni 8.435360703731 7.3044741708227985 6.9104309523961165 -1.5332285192727788 1.0619982745341967 -0.4310742413449866
Ni 1.0026907440285597 7.959808228121128 1.4264407109316424 0.4920230131142172 -0.8388938830374069 -0.03960732997897695
Ni 5.184779677264927 4.501874541835209 7.6091202290617534 -2.129570186501429 -1.923436104310391 1.8031375298279333
Ni 3.86768417663428 8.104887482043942 11.512305989102503 0.33492115376048126 0.0646753286911983 0.755702240709576
Ni 6.217755078831156 0.676492567576788 11.736668068504516 1.0109461930533878 -0.7045894811941606 0.34091748055323223
Ni 0.44118540919067206 4.033184736327908 3.8803055623505913 0.13862822602958058 2.3251560608629767 0.005705535025209528
Ni 0.6482491144798832 5.351687964159082 9.81835913848162 -0.05924233060108507 -0.021930738634820295 -0.29858606677487287
Ni 7.685356992197178 7.820137610284553 1.7612075005803107 -0.19211797041760462 -0.03298365401487223 -1.0424550622949467
Ni 0.3810245202307482 0.5962910148719821 0.49229516793299205 0.07194332310752126 2.520699769132678 0.32488202435692437
Ni 7.697044832506824 0.6368974616529958 7.472920770138058 3.1951106698609295 0.1092034930105603 1.3455205049974117
Ni 6.986133334877131 0.8202474465675266 5.41259624512613 -3.2260212433968567 0.10909782067063145 -1.337461382138361
Ni 2.1270109704553524 4.666671237928572 1.0763343254788016 -0.47117162358650466 -0.3738854508388206 0.13576427421822426
P 0.8130143219384991 3.8086985546595336 11.385893012631422 0.07526647394348329 -0.36164057203319655 0.7897395327999431
Ni 8.794229264870811 2.123547220633001 12.080421158828658 -0.10682625102763538 -0.8666653967237204 0.2721741524402474
P 6.36282507139081 5.947721513135179 7.186680745046004 3.050687948636759 3.389948096092226 -1.1648164328437038
Ni 3.4439119824596105 0.6882711692454146 3.7999243392004547 -1.350080356453952 0.2973645356629459 -0.6632222311012836
P 8.237315713888329 3.3216342046400817 8.153771735218585 0.2573615129074471 -0.7272357578387668 -0.08590004239792948
P 3.467546981247419 4.944743666848617 2.808881611619946 0.06821856595776637 -0.07106452004699375 0.1275287736823094
P 4.498994257892023 3.146863020421925 9.226103299539044 0.7180558911117118 -1.115806321493588 0.7301827562822327
Ni 3.5095102177315725 8.033223053901285 5.676565470224043 0.6221437158934188 0.31368358453794365 0.352555836123109
Ni 4.576021015305113 0.6353656321861055 9.714582785849553 0.4548577169178295 0.09364934732604517 0.026641256736612183
Ni 0.4199685523242964 8.732891256653078 8.444931396421957 0.15750783654290293 0.19069923569320704 -0.506282865467341
Ni 7.955066410182509 7.5915949515514995 4.202614892410905 1.1194650012920977 -1.029901393999652 0.6938926636019469
Ni 0.25975993554107324 3.038977400955161 1.6905312598869708 0.12621005487088585 -0.6205791996197764 -0.0987046503617655
Ni 8.751765914775943 2.7807798573794105 5.882275164219062 0.9755739842016812 -0.7006037570735353 1.4157100786386199
Ni 3.9422844568990913 2.963247234384663 4.34179651027256 -0.04342798927664778 0.7167258594463786 -1.2219571437207535
Ni 0.39381446275659604 1.838408371620834 9.686049452085697 -0.36004237430814123 0.49459771581992884 -0.7712059927721299
Ni 8.450215930241834 6.4385089311455 11.964187346608236 1.3372178986689873 -1.3754843983493539 -1.1673433130306154
Ni 3.7215583886742314 7.09106457949542 3.533474921047926 -0.679858554106384 -0.399233442685306 0.2388997066578337
Ni 6.468552793240975 3.1668397807609936 6.0196545208095165 -0.6134168775433823 0.5780346413893465 -1.5609540102125052
Ni 6.246196725099715 5.795825895925598 1.02057906697474 0.28643529034495185 -0.23664639184728276 -1.119873035363794
Ni 7.104771396974242 5.102307238312953 4.776137772086982 1.2599194818971398 0.3053287848153451 -0.42775623271534724
Ni 4.292576995751475 4.87735798848651 10.428236573111326 -0.8854640174874623 -0.39689836679422613 -0.11122875097070523
Ni 8.786866481157524 5.095009284141796 6.5884198382295995 -0.0023111646316798904 -1.1215643070232877 0.17612956540914826
Ni 8.523084335595469 9.128342202280287 10.772978777021104 1.1100784178708751 2.1501917194065228 1.0167324607178618
Ni 2.0547723377966896 6.611501933636674 13.093761544356472 -0.5263852926441709 -0.07854745868760021 -0.3135457734084987
Ni 2.6947881004261176 4.457614487287035 8.487466985149483 1.429250793437532 1.9936614162855406 0.9024376692273232
Ni 6.734724370498662 5.4507289818067415 9.339245668736199 0.4362984658584035 -0.47098907526205336 -0.38289871008102444
Ni 2.3994524905732852 5.339407396607109 5.463400378884124 -0.4793657293615228 1.1522830762633833 -0.08722030387124978
Ni 2.113322675702852 2.6333389558504474 13.076438164563136 -2.5934846143048884 -4.431626428122148 2.3494223896095088
Ni 6.0026969648610535 6.768074539242746 3.180775353909903 -0.00250811113383439 0.11023990469487466 -0.7359911354338938
Ni 8.667515294096988 4.235749271393328 13.403803272773239 0.5081908811233312 1.208347523357119 -0.16318663209523507
Ni 8.021961236297063 4.155369900515823 10.910507241558456 0.7543012465969913 -0.7696538177936616 -0.4607476000397032
Ni 3.1335081347432334 8.820864945322903 0.2711458554116578 -0.30807446588128234 -0.12979185868487322 0.5314336537013558
P 2.015920919334755 0.6801091298913019 2.0829880068041104 -0.6564682002069018 -0.9051062171984219 -0.3662240776388209
Ni 7.113458555619604 3.3952898258624336 1.549858562556335 0.1425332175109416 0.07449462877446525 0.9807408731146012
P 4.30833057448896 6.0298049748343745 12.526975380243973 0.1341974439517366 0.2609109208216023 0.15605027816076997
Ni 3.6704541867498084 3.305010057765428 6.500096070032275 -0.268726303100963 0.4181469917603573 -0.0950696247123395
P 0.3554483397243171 6.340579277077206 4.696814196609874 0.16641053834917147 -0.18160010160541626 0.5124851376233109
P 1.7857575220484623 3.315994034474809 5.313156988862532 -0.11336302370488863 -1.0259897176500719 0.17605011832146453
P 5.122293260015184 8.821615115738974 4.212103158969725 1.590559491783764 -0.11940203081011694 0.06450743565476633
Ni 0.7978905158959867 1.758038262106491 3.6939650832712543 1.5334779162794234 -0.9506646225545111 -0.03598027474935094
Ni 2.09169739272106 0.018634788816986544 9.93533849043653 1.2713673187227652 0.6391507919743766 -0.30477059831903
Ni 5.832269359965578 8.671442112077408 7.654258260837625 -1.9275185019098804 -1.059729533104678 -0.04504007095877404
Ni 6.2031036023098745 5.067234456020857 11.657438958931653 -0.8371961836200098 0.7495045965392964 1.9276809956296739
Ni 2.783002584538138 4.317601199013489 12.336338554794079 1.5133688042343743 5.004330144216885 -2.4762381963851934
Ni 1.5123065133459404 6.201482863756635 2.8265847073028993 0.16581712773954668 -0.8645866598178208 0.8606886103149951
Ni 5.587074770268386 4.370826253101865 2.9789961824405675 -0.5047941967369565 -0.19785950088707216 0.37807609188140046
Ni 6.472146202147585 7.469937685063782 11.534834254992528 -1.0098107938973642 0.32460228833297644 -1.03252880432017
Ni 9.059076467196423 0.35267919213906834 5.303452006405735 1.253485810456654 -0.5799526843476658 1.1630513705234808
Ni 4.502152382730049 1.0414495488588806 5.9273863380417655 0.6008999760232941 -0.054560608854699585 0.697923896248527
Ni 4.783808959193543 2.463142885034006 11.725891546329947 -1.6064026294636076 0.8063452596774243 -1.503574958072404
Ni 2.7388814504373857 6.840905899143736 9.63247987528772 -2.10563373029049 -0.38866852268526614 0.995036463801667
Ni 8.233370373181586 5.54102727263007 2.4966171560444512 0.2868847191775446 -0.2852716090541539 -0.3640862053602117
Ni 6.000353839981227 7.265511616002928 5.459862538156482 -0.4462306373704508 0.43656174682211907 1.1919184312668183
Ni 4.8380342405033465 5.056732070195867 5.305065335868445 -0.026369234022148132 0.8066298807973785 -0.37057541262898114
Ni 5.799178509390013 8.278778836761768 13.609296250870281 -0.09943021567388037 -0.18008957849816082 -0.72091572915801
Ni 1.2753267527728813 6.409483818997776 7.612549711840408 0.42151308001911275 -0.7686379749346375 0.9416073974482493
Ni 7.890190561237133 2.649129580040578 3.851026688852245 -2.3054313287405392 0.10804495392608489 -1.7118808511037809
Ni 2.894490874274674 2.5905699807712548 2.1733177862621873 -0.002841583213853171 0.8206200244288835 -0.22406521274816252
Ni 6.597072729831265 3.039912798634459 12.995705009612866 0.4568693480312196 -0.5632633966174428 -1.2487634652803203
Ni 4.228951430832884 1.6808911069723038 0.4540661130755013 1.2444298709019728 -1.8555463824469525 -0.21009460950068334
Ni 5.6506910738238165 1.8002422940328404 3.0352626681911365 0.40746457234584665 -0.4998342816285198 -0.30090777292951404
Ni 1.3157062961564416 8.768112220755757 12.151394689279478 -0.24900619896421636 0.4181462204294089 0.6884920614116659
Ni 5.973625545897523 2.0145409762237114 7.810682684633113 -1.881580087506553 0.27377954925415426 1.5127643378811562
Ni 8.13205106019623 8.462422406888516 12.967469891742807 -0.22344840509977001 0.6667793523249226 1.1193631856069108
P 6.7746778911767995 9.0831745341423 9.567850378602436 -1.3386790565955462 0.7996850740484291 0.15203755745695105
Ni 4.912217759425896 6.9202479973471664 9.711830308717996 2.3169285307468614 1.324138696887526 -0.15255203519952437
P 3.339027044657129 8.95010726823978 7.837141473048822 0.004675808209114528 0.13717966650851213 -0.13362228817455696
Ni 7.259389854953264 2.08072267737484 9.911983184816195 -0.3109936964106063 -0.1606774925201362 -0.29455611967987333
P 0.9196024244263556 7.433512743750126 10.547424760180222 -1.154531763088244 -0.08264348313384477 -0.1828393733291561
P 3.037310355586115 0.9874650629912723 12.023625849241574 0.8203158629249034 -0.48225924885923394 -0.6545635269850211
P 9.084165500000566 6.41004876215062 0.45031248258619927 -0.23652580710901847 -0.1284929373677916 1.0262049189846714
Ni 2.4422029429261554 2.8309579229876967 10.328214777104877 0.6940304747313918 -0.542205290395563 0.6618924565462665
