# total energy = -381174.296139224 ev
CRYSTAL
PRIMVEC
9.13691817530508 0.00000000000000 0.00000000000000
0.00000000000000 9.13691817530508 0.00000000000000
0.00000000000000 0.00000000000000 13.37280332340425
PRIMCOORD
 96 1
Ni 0.7825158217514171 2.579671784414967 11.913108592067298 -1.1751509820004922 0.7839285825451209 -1.476106063228174
Ni 8.964522773253849 3.2735110744955582 2.5853777897964005 0.6528491153970757 1.1996024301746373 0.9785214968657792
Ni 6.812102418208348 6.0868504035459 5.704690578912885 0.52856301702178 -0.8004813446974796 -0.41079826470476993
Ni 2.772259745071275 4.248740032681867 4.48448896727063 -0.6199253680858613 1.0767348094134228 -1.2814177609802317
Ni 2.875817575324553 8.642693105439202 6.2886940622829 3.726455363392905 -0.6369434999104128 0.3996062526436925
Ni 4.318162336746135 3.555759612906888 6.249512216202511 -0.30787212006248915 0.6913112760280159 1.3529517644644764
Ni 3.155590008918639 0.13740280244528363 9.609709801596956 0.7265137920710778 0.37149278223692794 -0.3890030232065494
Ni 7.538039701731657 7.950196942325897 1.47281364235908 -0.39545314970726736 -0.08797492264908718 0.37295573993569964
Ni 2.7874818507005283 4.441346267174465 8.69428836851113 0.24523130530281637 -0.6176777097022653 0.3866661475432567
Ni 6.7490485460910135 3.631130050683427 6.157159902362028 -3.0283689734245844 -0.28674819359968035 1.1350625986200387
Ni 1.9881111560473803 3.875021806722843 6.463089505221077 -1.953636539153171 -0.4338111806601755 1.3980828524751598
Ni 7.730993139113758 4.000389460587783 10.162782075971345 0.43242715582845526 -0.30284355649964617 0.17506795691385332
Ni 8.336980961232 1.0483517140992242 1.670410461542373 0.7136469634107386 0.22162549295841832 -1.6658969281744986
Ni 0.8209329077830857 3.316153071477387 0.48686525180527995 -0.6439914078961296 0.7255753394172085 2.0134144305427517
Ni 0.6335621273874644 5.150544716656482 8.10526963077143 0.00274336707309205 0.8658534423453862 -0.938541614038732
Ni 8.294421196513474 0.11983159516099928 7.903353790381084 -0.12313835792409761 0.1542286515709989 1.1917538806644958
Ni -0.10991072943936445 5.037210383988257 12.265990076197083 0.021690597599556192 0.366214307446808 -1.1893373008032033
Ni 6.043879477510858 8.086062915139223 3.5711936950371013 0.3543352966210349 0.3551719335897174 1.0085154721247083
Ni 6.629893996564545 7.520487681975477 7.896893989252703 -0.7581553302357589 0.41667220698704366 0.4052107433146634
Ni 5.253947219301298 8.985007743734513 12.772819494148774 -0.18556757089359655 -1.4614631165040186 -0.24619649742956312
Ni 8.572183508115701 1.780282815925529 9.872137623476748 1.4424729485547607 -0.24425351477057933 0.19582601539681113
Ni 7.788245068209138 6.420411874258483 9.78197816999102 2.3966178163483884 2.1723358596037294 1.6629550719373554
Ni 7.5799050606711775 8.204477374295964 5.621525436267009 0.5287267962931539 1.5408775511776043 0.40885605337673464
Ni 8.69526693244444 0.6701892911545648 3.844827947021504 0.4876881331842891 -1.4677628334698012 0.43995586010533266
P 0.4170299590408672 5.101808395272065 3.8740743083112266 0.5226052567764484 -0.10938835532785678 -0.8096303581865992
Ni 3.3763379512972516 7.2630184655728725 0.6311792191352981 -0.8059873621173732 -0.34960035303921083 -1.1572669026312197
P 8.627005016984564 6.900675702704138 7.482564903215443 -0.06762464112750935 1.1453953480046144 -0.14762708709408123
Ni 2.5874381648380558 6.922439841725075 4.844070553476002 0.44826078042660217 -0.6488513070915922 -0.4098898939578876
P 4.123436337243941 1.3147202887748737 11.338077562315489 0.30414453469925684 -1.2537822586511504 -0.4552955757861965
P 7.919378117423452 3.141208499758708 12.721200475089667 0.2664393068389992 1.1360979818630885 0.12101925469856575
P 6.430901056288725 7.132835655845619 11.386741702046562 -0.10577235584182429 -0.7658958934131261 1.4721018271647872
Ni 8.976419040678392 2.8353227541067545 7.75442019723705 -0.3084035670859269 0.43721197881160834 0.01679675984236462
Ni 4.4642890686360825 3.665064564673252 10.11827706137979 -0.1782836356376736 -0.2826531975947003 -0.0757819801273211
Ni 1.1399310446646562 6.6069420581847815 10.026299361183243 -0.8748224786132159 1.1849615403330107 0.4030818698971187
Ni 6.090898058284051 3.1207874877050568 8.475896837322063 -0.04353083340309922 -0.049033765499199425 -0.31341927513296347
Ni 8.067697709668156 7.690781562358448 12.589892910738786 0.5719557821851182 -0.7303015412482842 0.15331539572811015
Ni 1.875041794005355 7.925143512772828 8.11920434463408 -1.3730045693502935 -1.8642729636866733 1.409773915659843
Ni 2.235913513052776 4.961666344766967 0.130912849487025 1.7982418922985288 0.32223430232143213 -2.2730642252637434
Ni 3.4319360982084213 6.634553824818398 9.447577930192743 0.513572971370851 -0.7499401414148181 0.3930828497028779
Ni 0.7797820558424899 8.968561291073854 6.36189722307549 -2.8384140720965694 -0.8028076788378109 -0.9668453460794316
Ni 6.33608725670003 5.869236424090956 2.655785053636679 -0.9311805456879704 0.5425359342621043 0.04382625315633098
Ni 0.4231590037324059 2.0222192714819562 5.469262350151007 -2.6235912038822815 0.5738010629239731 2.7555517880836993
Ni 5.784043799308747 5.504773896212626 10.111069860347163 -1.1008250175934071 0.13734447422115056 -1.0428430417619847
Ni 2.36155527446206 5.317704634115783 2.319312560803159 -0.7378122478030326 -0.1786253352478085 1.3930460613822009
Ni 5.100172886924144 2.1323739566357873 13.227266960376268 0.19359172674965366 -0.0002522252201221463 0.4656283251707723
Ni 6.501958868700913 1.203642774888417 4.688558379267705 -0.17881636821269206 -0.49508648253088927 0.993398928198244
Ni 4.6855212676763704 2.700927825114742 4.005301467782433 0.3291623968998331 1.3164822087835328 -0.4499723638010702
Ni 7.292000769928211 5.185840631449883 8.065204244706438 0.5421754655988921 -1.4881347122579338 -1.671289817055296
Ni 2.234552112249199 2.169634308830323 10.394786701504362 0.7936082717267301 -0.10382500230746634 -2.1350476646762324
Ni 3.4889504674320366 3.2008451644898837 12.107014096320087 -1.4751125889666532 1.0040391815209095 1.0287269140755766
Ni 2.9419597257748333 5.88903612571076 6.908818524154793 -0.04287803031044874 1.1629223011447845 -0.3913388704285776
Ni 1.129304808862242 8.699954171452728 0.9143076427639728 -1.0303500515012964 -0.18276609688905943 -0.47754821653680984
Ni 7.186807431327011 1.2510816538962712 12.950142405660547 0.8734595368274184 -1.453482412291387 -0.0820277039267168
Ni 5.1624866686717485 7.87595034548117 6.013495569912106 -0.5847791592020316 0.20737541079730737 -0.6149811367067086
Ni 8.353637563009988 7.244205551112709 3.6413871549927905 0.3466993773423319 -1.0906259655732184 -0.6786516782824764
Ni 3.5210850085473338 2.8913594730888748 1.582871476180576 -0.6267794148932173 -0.2992429836325814 0.5982612528488664
P 4.3974159647342175 4.658759234430222 2.7529388179622596 0.5489685772613255 0.0378972892664057 0.280591172859349
Ni 7.330649933680757 9.030527869931957 10.34195064494837 1.3974393053538903 -1.1248961996099982 0.6566859726446627
P 7.142054806253731 2.2680571910862177 2.9867616902060954 0.3780753205504521 -0.7201901638458952 0.5496087819484857
Ni 4.2246642533702925 6.1763830644468944 11.865407483508688 0.27283209773922046 -1.0733489236603257 -0.23745037580581685
P 1.3601947303815938 6.76051537836275 12.414989455151758 0.8966480591287397 0.5726592360100461 -0.445069270072498
P 0.40365625195230864 8.656160922784652 9.931085364579804 -0.23056393309862871 1.3206869908934997 -0.02507236958759553
P 4.240991926095068 8.006279345898742 8.004238158385192 0.5248472587330897 0.10072502322590396 -0.41427850994388654
Ni 6.163125396218774 4.125263720872903 11.999830736946949 0.12645636655373707 0.2099889371607545 0.12552254188555803
Ni 3.290012348665085 0.1752415215583858 2.0130485467400105 -0.48251995871978826 0.36750525834408965 0.11625114388596107
Ni 2.1025327819748374 4.862722658176818 10.981572376449472 1.3479921064663558 -0.6158578828847071 1.3457017677702825
Ni 8.73498511561993 4.2268388398887575 5.727210341064398 1.9512495269782328 0.5217076846628435 -0.3044145005311919
Ni 3.116840339066499 8.146284342631668 11.61254144646744 -1.2836841884169052 0.4178135196803384 0.8306794655474147
Ni 5.899260337114803 0.7425856620749679 8.381658663576493 0.26927883317032336 -0.4540455054291793 0.544276828212611
Ni 6.0323121391395285 3.4595661386783267 1.6268419810606602 0.6816251590885035 0.34226036773437185 0.8269657641412532
Ni 0.559818061040702 6.252722015546783 0.9723508289706937 -0.2721420136507313 1.6517100951511554 0.9837920012360992
Ni 1.525289704340168 1.1196470863831776 8.147206257672478 -0.4937425669084851 0.9069710383213024 0.7821686624312206
Ni 6.991405299882103 4.103618361787848 3.9956866888186493 0.20272942738486377 0.7695990532963263 -0.5226271111533193
Ni 3.671707104164528 2.3006394411906106 8.276775980192218 0.030059538389541778 -0.37942900636486915 -0.07241049255192691
Ni 2.628234504354633 1.028972310714082 13.328258230322668 0.8431781122350576 0.6659769110282853 -2.327105471279863
Ni 5.936776523017393 6.39774318034121 0.24593111616933833 -0.09095097455827561 1.9132828179264727 -0.7720385159757542
Ni 0.30799546005159006 0.4157279482052318 12.203298026038283 0.22769278219842076 -0.6538325623562676 -1.1347136999210523
Ni 5.269516527820055 8.152926882122944 10.028572626417672 -1.4040820074813884 0.1595228100904027 -0.28146071994849586
Ni 4.65670342784764 4.522856713944315 0.25554863620856544 -1.7655564862503659 1.137020493677358 0.607366043363612
Ni 7.75614707476642 5.2007520818622135 0.9018055976664291 -0.3048875835128685 -1.6827325116745988 -0.036556973188427364
Ni 2.5901426926089193 1.721048175592725 6.077939167279267 0.9373583923639082 0.8018167756794513 0.031118832891991566
Ni 3.9159186523390135 7.043869483869602 2.8793517352629654 0.552706447037203 -0.7999172446638934 1.2418037461330353
Ni 6.2701187076945 1.9049286532570289 10.710318291641792 -1.1091394509963737 0.5087408400895304 0.1739248444483456
Ni 1.5533674537991695 7.648879655746349 2.8733204555955765 -0.5250169515417346 0.13122524869729013 0.674098254583839
Ni 0.4027855036531082 6.431896980366509 5.6080585326133745 0.38871583098343376 0.7509428716477197 0.26507199417782734
Ni 4.662295221752263 5.387592921005436 4.938937347189937 1.4766920176386311 1.3750665940856448 -0.6898233786285797
Ni 4.902696675060362 1.3950429361858998 6.445543881307598 0.4513628163906936 -0.9387107926267446 -0.782405203922059
Ni 1.71936698265408 2.370052608336733 3.855486162037425 1.5585472005432255 -0.8833444000412981 -3.048268797672305
P 1.729088663560158 0.14667860174589487 4.525690985952836 -0.5080078185782476 -0.3379167460536954 -1.7090318116907601
Ni 5.155496926290969 5.661161387179196 7.544494020709151 -1.0670659188650913 -0.5886340141717474 0.013273320070138431
P 0.762549828221378 3.816682584368231 9.77989221157856 -0.7990872925634303 -1.307097425134523 -0.2851196568573219
Ni 3.795302195909375 0.6213917524185774 4.240930708743498 0.9784063114441537 -1.0736494856198802 0.3040278066157345
P 7.290410946171014 1.748477203863445 6.812600380247241 -0.2880900523395555 -1.281006641584742 0.21184835896699644
P 5.152737577011236 8.21759798875191 1.5939984150973256 1.0814579259207053 -1.4298058946100538 -1.3515605405439044
P 1.5867994372910297 1.7720321788407656 1.6649273969636722 -0.8979752625805955 -0.8612779071595619 1.1235617970692908
Ni 5.637250072394228 1.031667701566801 2.125406142858555 -0.2464587499520143 0.6690745761170025 -0.27212735836271196
