# total energy = -340886.3242073674 ev
CRYSTAL
PRIMVEC
9.13626388737768 0.00000000000000 0.00000000000000
0.00000000000000 9.13626388737768 0.00000000000000
0.00000000000000 0.00000000000000 13.37184570688649
PRIMCOORD
 96 1
Ni 6.995737906324305 2.4034221744095317 11.384161459978797 -1.0121610392970957 -1.846961468991419 2.950474317829635
Ni 4.721959319235239 0.44960195084928056 6.22597202600437 -0.3880535148090865 0.8776144395360562 0.5229320439882478
Ni 2.6974819701457218 1.9478240934433784 5.011727811732218 0.3354338317308417 -0.20992080292698037 1.0896813422717622
Ni 3.5783822803828436 4.384255589980383 4.880964118435324 -0.06990058164587962 1.425729667658151 0.6318588862986538
Ni 3.7487918780362155 2.883487170586693 3.0877868262250217 1.37681288735279 -0.4907588016898129 -0.41634336289271523
Ni 5.156525720285133 4.786625796406082 2.700310557505441 0.33509830276829383 0.5381601737919118 0.0055057603095776154
Ni 5.503228669660544 3.1060374273547864 0.6832153097940022 -0.08415837711647442 -0.0756811928833987 -0.27019723121953465
Ni 5.940197908163946 8.257355477113306 12.678542587391469 -1.1829771629131305 0.8733620920176055 -0.1498336078270968
Ni 2.418935550820395 5.883744932402624 11.925466834296133 0.11643703464452206 -0.2999186695433673 1.176787746272967
Ni 0.5766499255441133 7.575771904084309 11.289809433553431 1.0047169243142244 1.1579042791049028 -0.0773027876472217
Ni 0.809175155436695 0.4632268614744399 4.6674560222289685 0.17801187003352567 -0.9825990093692626 0.7774265197605449
Ni 8.607329209029993 2.4784674475772777 1.6483739018989374 0.17525307634146595 1.2996335126573102 1.7334925158362855
Ni 1.8707871147058044 1.4976255445495577 2.707451461511761 -0.43342217275187295 1.026625808572174 0.25448881934534234
Ni 1.68107259104763 7.387117187059621 0.509929616207686 1.1814108468672753 -1.544451641682108 -1.0219011494029948
Ni 7.54427006553033 4.414971709823329 4.098698001598698 2.3648191837805532 -1.1974092791780604 -1.313605144346054
Ni 7.82232312659524 4.1065222981583345 12.89575452505658 0.7373617905291753 0.4313346940952249 -0.4335759247209178
Ni 8.406687713530008 0.31277177820208524 6.8010943681940095 0.2996474181598517 -1.21042883136618 0.5001140176524678
Ni 6.920674360628395 1.1630738264029157 0.4215956469329903 -0.3405205022251297 -0.9714548198269849 0.26448475421578965
Ni 2.1370361225770544 6.413958882124679 9.723524864429292 -0.3123468680043911 0.6491135596140434 -2.0455251950343674
Ni 0.21084670247933268 5.060905580405218 1.3498747954454098 -0.9169314919681241 -0.24372695284314796 1.6755956435195014
Ni 6.630278206788998 1.925760015685878 7.0605624408637615 0.11388315787441677 0.4068289956443768 2.026257605054007
Ni 3.8410133276777088 4.716742512444543 0.5110816991083985 -0.9648640539833448 0.5390448903897104 0.07512429193866416
Ni 5.872616962751016 5.5171157910648505 4.989102767360095 -1.9449672935139473 1.6316796588628417 0.5468566731246453
Ni 5.83498469099816 3.087362903571627 9.613086617835137 -1.622890856926618 0.881222725712605 -1.2964774835268318
P 0.22217018818229153 5.99501549265463 12.842722166567476 -0.06686539436398162 0.7081301473575676 -1.0560849943735553
P 4.356051942759927 6.641735081947552 12.827893096336338 -0.9251621074080325 -0.5093769310116325 -0.7079041473896904
P 2.747850194028578 9.076604277326572 1.3440440317084175 1.849804337756853 0.14849611996259587 0.7473343283608549
P 6.532958721789871 8.27015538309188 6.1831010204270225 0.7576292825289598 -0.93864934326119 1.4608421950905681
P 5.0749114732425875 1.4217580076144516 12.537937310425683 -0.19086198652331643 0.058476398969338005 0.279403580309151
P 4.045583416732858 6.581198196141673 8.509548342694737 0.89495318792482 -2.0831000679643483 -0.11648177183952843
P 5.086651572587675 0.9895030813772477 4.085045682181293 -1.0085964618742889 1.8725015222440526 -0.39622730886913055
P 0.10818524387158861 6.02426067398041 3.8177286450388825 0.48577086155691823 0.20074993506098973 -0.503101639525882
Ni 1.1794277391093029 8.136674564857065 2.653589530244031 -0.45057888703681753 -0.7558048277257112 1.5262400037700876
Ni 2.0815150457520737 7.012347634424981 4.845796810731735 -1.1198136428807681 -1.1134259941868694 -0.8206873873317092
Ni 6.23504342261117 5.860127689751222 9.53534340588404 -0.28953089855114006 1.3486035147981097 0.6164613207966608
Ni 9.012166206757772 2.7223417447122467 10.37124396101276 1.0953251708211007 1.3770296313492865 -0.3551264250637626
Ni 2.5389586520627465 5.623918718180866 7.205486429861006 -0.09491715829487524 -1.2338857768375395 0.5741180799437596
Ni 0.43202012425030195 0.6387390626174861 9.458749535954434 -0.682493934846702 -1.7553484353691124 0.613248213176002
Ni 1.566275432860057 1.5982158120899619 11.876512904093135 -0.08252778349158689 -0.6644316780283525 -0.7734181699321002
Ni 4.124292331797398 7.030309529609762 1.7439428786999953 0.5483245159194234 1.1305603398743111 -0.2880882525673426
Ni 5.6184095509395515 8.360915030480289 8.252327790989101 0.30424326506065025 -0.26601995991339344 -0.37993345680511337
Ni 7.013608438868267 0.7826215175094079 4.860973972624389 0.8008150738878144 0.8127694180362132 -0.17162910643563345
Ni 1.0490897957186207 7.465561150465789 6.933716377605137 -0.6644275642632944 2.4609707287031615 0.8659501158242505
Ni 5.441970018992205 5.047265138131119 7.607203393404859 -1.1181825350352486 -1.183675988752368 -1.4441529073603452
Ni 7.890772017095941 7.677093072751256 9.039889286487528 1.5558151463240433 1.1921804266789533 1.2346691919707833
Ni 4.5463785961115795 0.45958606023785037 10.468644758762215 0.15709800269899393 1.120096978449142 0.2907223477560799
Ni 8.2499368306789 7.7566699329035655 4.778456149064154 0.3714177060246184 -0.36586386608592475 0.5842549112674453
Ni 7.422849115883465 6.497336428135009 7.200498029672355 -0.28297535682080943 -0.8384909911720333 -1.385790151150736
Ni 2.166125987413444 5.815405677070904 2.5269709599610426 0.1817710799656418 0.5206221649081485 1.2304440981458422
Ni 3.9116549215580365 4.640829294189028 9.709337159936695 -0.8343060065564083 -0.10499356869427078 -0.2292742677529277
Ni 1.2353142664975547 3.8690890672010205 4.039072914948181 -1.0739261363200343 0.0017154400292099488 -0.5859032455041457
Ni 0.8191830191118775 0.4715417754152685 0.8605611591382619 -2.0429479212254944 0.4080713526919101 -1.4300506636310082
Ni 1.4087479675619958 3.4979740201990928 8.381232254545353 -0.9927574379595032 1.0751864910896967 -0.002577016698556852
Ni 5.423432539170272 2.7977341959151008 5.4050604257282195 -0.9355930729333695 1.0793694188227925 -1.4650318076918833
Ni 4.081315345556702 7.114481930595206 6.230089740226028 1.563837245297571 0.277797926384928 0.19976083167484307
Ni 8.49924720494253 7.505888620122769 0.9169912942393796 -1.0667761555388144 0.22044201417327838 -0.7005101689184646
P 0.2246287568466987 6.077634728746172 8.408791795148044 0.49872510772474105 -0.16314600866528678 -0.14986651794756126
P 8.791781244577061 2.0084340693619107 8.163659434449013 -1.0674526127805486 1.0407010557183172 -0.6595242134244061
P 1.8402719926726572 3.940415880887482 11.098672393577724 0.3572025908665009 -1.0972961785045425 -1.9042788146556497
P 4.017973626677717 6.592198258096137 3.94589763933655 -0.31842212766419353 -2.240426384624064 -0.2553506531250054
P 7.3261052155214905 4.333019421009758 10.583388012991707 0.35550412011815546 1.0198635501476758 0.961059078414958
P 6.280788696868645 8.223560436274798 10.385712148812669 1.1106119217768422 -0.2363401734607736 0.5725648765240269
P 2.672101428526535 8.799729794328211 5.920986172052777 -1.5103526431158698 1.365893669337125 1.0635116258549298
P 7.070317230023878 4.404985773181943 1.5178779011396406 -0.10190953045230837 -0.2563454129381069 1.874073494716863
Ni 3.1613300975777228 2.098234409021732 0.5133301336989248 0.24633045190426608 -0.654159349568067 0.5128906005918458
Ni 1.592432556926195 1.2496216560496232 7.284754484287351 0.5712577276768291 -0.37832471755709685 -0.595743114412703
Ni 7.030921659303241 0.9910471100070687 9.353178177236641 0.22393511492820145 -0.18079946008099185 0.3043106279634759
Ni 2.884729702501815 2.1366432632215377 9.657802235130594 -0.8951802163339616 -0.3533014560398819 -0.05884252405950511
Ni 6.449023863670553 2.4780014981091063 2.998636074941415 0.29203618147149707 -0.06209934043390596 -0.27725336673536766
Ni 4.194531930058127 7.284635712854289 10.629601063970167 0.5056691431427421 -0.7155881462975096 0.5931115903271269
Ni 7.446457222270786 6.739776331809138 11.542791672351527 0.12410946358811528 -1.2428908085496273 0.5278099409058394
Ni 7.796604543205028 4.138965171912737 8.410101935417371 1.0015272137323332 -0.1543932021733212 -0.7432239057369071
Ni 3.2096700708344237 8.980317190168686 12.492540127829724 0.3645708583061141 -0.4929393542808995 -0.093655003753
Ni 0.16208828832768596 5.349346573731113 10.529044600606866 -0.5443580750725077 -1.2338659793431976 0.10947268751154694
Ni 8.722829859551863 2.7331864901773204 5.9876050688578975 0.8052016329912842 1.0134147091985386 0.23488261507864064
Ni 3.7184137999642948 3.088495800317768 11.74549522265477 0.4822759610297823 -0.04790633676297556 0.1786487322865762
Ni 1.327754986477011 3.539343023961395 13.200606075926169 -0.42369208994830254 0.6162103811281193 0.37795499292250395
Ni 3.256785784704167 8.487296971523559 8.357416754963374 -1.651945608200729 1.7310057448586897 -0.050210045195487725
Ni 5.59751491498452 7.969526613480889 4.267598288425759 0.5563337593771451 0.1562410540153374 -0.4791119614795039
Ni 3.333841035969904 -0.320364927280453 3.730811710323271 -0.09279059887017568 0.1647256944475808 -0.3058702591411119
Ni 3.606960514430653 2.973397145415496 7.260163315884831 0.6022811726415369 0.2596770484145012 -0.07300621715439685
Ni 5.397796182156795 4.768398949562931 11.64309323394695 0.3479260506605814 0.5675537964626807 0.83570520089678
Ni 8.190615067995898 9.23776797572918 2.6290522657995936 -0.8843088208370963 0.4819018655198152 0.40423552388558764
Ni 4.798027853980145 0.7956361256939043 1.9794748531018909 -0.10705327943677692 -0.6293464042894452 -1.0486750750627294
Ni 6.217574885686805 6.122429831539143 0.43779789765562 0.37049802242382646 0.00958995768128026 0.5636683453653453
Ni 8.068198265564119 0.08789999673081114 11.721211946351804 0.30954333711732496 0.796669427150557 -0.21240346013951808
Ni 0.3380015714639223 5.443687636639579 6.125696045948378 -1.007735142315258 -1.3741587375593947 -0.8748255639370095
Ni 7.143791065769559 6.677768507486094 2.9039770700429024 0.4749105218036467 -1.0310403927001017 -0.8689840175545679
P 8.626012869077234 1.974657301051568 3.951045924146633 -0.09627907163940837 0.6882118111670857 -1.682248887169961
P 2.2415001660881337 3.803399328453018 1.9134580360997606 -0.3036305711773158 -0.9423177932517127 -1.0330833912720596
P 4.697885263379748 1.608338792692575 8.60726982331346 0.6481843629315547 -1.0533372564250891 -1.874653792700365
P 8.856986761328729 1.89662446952908 13.044716742777972 -0.6078468396547725 0.017387856459144247 -2.563349485482405
P 6.327356234893481 8.260726758559482 1.5527391439964908 0.9295674355645798 -0.09911345576440996 0.07609256938920445
P 1.8052070111267833 3.76923883705124 6.170572461491677 0.8617993268806706 -0.8618294087876577 0.11348309422252069
P 7.117661350495666 4.360629211064898 6.2619816972563 -0.16695355533683504 -0.4916345194265468 0.3878082315674999
P 2.108019347853319 8.994889531379126 10.276370253908327 2.150652461093025 -0.8020926550486573 1.4950802903378315
