# total energy = -340869.6116635731 ev
CRYSTAL
PRIMVEC
9.24808823340364 0.00000000000000 0.00000000000000
0.00000000000000 9.24808823340364 0.00000000000000
0.00000000000000 0.00000000000000 13.53551194067314
PRIMCOORD
 96 1
Ni 1.1950842004773852 0.9388104277598086 2.633672413455522 -0.22897267735210888 -0.5621719633254769 -0.6338509770280181
Ni 0.5988146371780286 2.5481072516086902 7.345573362522868 1.788592799244539 0.6490122581494887 -0.813375169941012
Ni 5.701464884989042 3.3831356333421323 1.0735541483443354 1.0162200398578176 -0.2931476693681209 0.8340735788306279
Ni 5.981829927524715 5.67942669075621 2.54741087056558 0.11285780193369598 -0.07384131146118252 -0.7827998682573163
Ni 8.249211461157078 8.752779112928748 4.23222943245229 -0.675949448859965 -0.1630426503182031 -0.02133552825298261
Ni 1.2263889791085785 0.5946150803164555 11.16762326287724 -0.054605346049705954 -0.15075534831041779 1.2323703686342777
Ni 3.0077834766791365 9.176674484668592 1.0092078001138727 -0.3492892495566952 -0.9511474757282006 -0.3792181759056437
Ni 1.1480761680453748 0.1989208288005283 8.808071582789951 0.6777957580400843 1.2245151342559168 -1.0114231326898064
Ni 9.40909743786184 4.660407593847705 8.248175675276222 0.3817496840782458 0.794442080481935 1.0189124990883163
Ni 7.7471327515891355 5.962353453729355 9.639125136205614 0.1432796087586629 0.09154387094726814 -0.13606123663335276
Ni 0.27419379326518745 3.91798031948033 1.388905633432348 -0.31771610273610446 -0.7172002279796358 -0.002818957506033855
Ni 8.139455150139352 1.1853367154914833 7.7916225295983175 -0.941332803630624 -0.5566885716134026 1.9843360251195565
Ni 3.4039623280178923 3.1087541038860396 0.7964407336274882 -3.84847220611805 1.8868621618410988 1.621489348593401
Ni 6.24412420567476 7.560977983770143 11.129818003034861 1.278592889936927 1.3770689692276543 -0.9336724588718888
Ni 8.787403955231609 8.36556165907703 10.194027076079509 -0.98427742551295 -0.8911507834595942 0.02975203445145198
Ni 0.6565310309621981 5.587491445742121 3.2896300629479613 1.4437207049189331 0.5074743146722809 -0.7378968370970388
Ni 4.508211805979596 3.460338673818706 5.6521864468985505 -0.4482929192161183 -0.26743535220368136 -3.1998990923885082
Ni 8.633145843690013 1.4688183637579433 5.547001465888918 2.368434154825321 -0.6818313615620387 -1.4383926078378002
Ni 1.3991155228293455 8.546195318227538 4.558977336656173 0.9363518054762648 -0.31021928013842703 -0.07085214692587154
Ni 8.345447067194359 4.2847410021851635 6.11619725091861 -0.6120004568118298 0.27788714366462464 -1.3737653587757181
Ni 7.517983621626445 1.398384923859814 0.9663706554699473 0.2250391466256576 0.4593347788525767 1.9549537153026975
Ni 5.244396620797176 3.6336478470974534 12.464798958854024 0.13294660226377103 0.892047841352567 -2.20068072929501
Ni 5.24393421638608 6.248794490226829 9.371825792709867 0.330109848414767 -0.08788827647255186 0.85990262407859
Ni 4.973307410748086 1.9628604846610378 10.603110709723127 0.901011735414074 -2.3045263004277667 0.5198022401100144
P 1.318860613239539 0.6752371390086721 6.324657482720046 1.5215693377672956 -0.07575344088223082 1.0911512419490692
P 4.733069823007317 1.8227704442754202 1.9982205499775423 -1.5446565586040624 -1.6565733367807278 1.5057555106634906
P 8.554370628215713 1.7235754500071252 3.3626816366217156 -0.13503459514105132 -0.6139578376485169 -0.5671210798006362
P 6.518718441159957 4.701552338347019 4.6559860828688056 1.495179277809541 -1.0220831835068138 -0.13152478221557995
P 4.772263220891806 7.3362031995364205 1.4139328097785029 0.30447826388959176 0.35360973130892004 -0.07435527498312355
P 0.9366278789394361 7.694353912106648 2.4004014105723233 0.49373639626089816 -0.05346223358419825 -0.009647293281776935
P 7.344535727024368 4.509663755830438 0.7443749217469107 2.034763328532173 0.5124170033895368 1.695738179905647
P 1.2569631587702403 2.322870062963871 13.57679556031923 0.8757272498156724 -0.37752793268741436 -0.3295298075415809
Ni 8.36368429716798 8.585129769641814 1.7640968733602822 -1.2192772828957454 0.6294500197468449 1.0872760752643793
Ni 1.9050876775387144 5.574312920025887 0.9203891608305698 0.2277801997059045 0.7074027822732398 0.6937821061660117
Ni 5.0962145032173805 3.911451169195656 9.712433806731937 0.25343723815237645 0.8317163914523612 -0.8821380384380227
Ni 4.858668109149188 8.065183753629126 6.614723769800512 -1.8591320429156821 -0.25056223059742655 0.0233813550384178
Ni 3.4287749487172987 0.7851099759379941 7.503194078941954 -1.308881513618139 0.432838532334261 -0.02830450337164803
Ni 4.583065832047803 3.62389111402333 3.255114348086118 0.3750833278016637 0.19059279202232984 -0.12882795210970716
Ni 2.648439760728281 2.304355390343591 4.059300355599463 0.5308636401304986 -0.40279082101926117 -0.030215347241115707
Ni 0.5320351169363791 8.50928619813386 13.433792372143708 0.6324882923525366 0.6408083821824577 0.06458534008055329
Ni 4.4107647003852435 8.515963317830087 9.359170708786994 -0.041338967958103 1.4600664932668082 -0.03537760816834552
Ni 3.792881430102442 9.460516808375706 3.285001394792891 -1.322966530956296 -0.4339178814413689 -0.19384060953566618
Ni 8.38459422463774 0.6195543998245024 12.090527903704173 -1.395314031480771 -0.6090827689444026 -0.42257725961756903
Ni 0.4859241490618947 3.3835610454003406 4.187873751722325 0.1819176328458351 -0.07402257423405316 0.1929121841841258
Ni 4.368140261770423 1.5351179082208752 13.358400107340985 2.5985877398594086 -2.842527065823679 -0.8351891804923101
Ni 6.93036009600576 7.136046826149443 5.804230566119819 0.2932325157724434 0.16938916136152118 -1.76894391466536
Ni 5.776485376645242 1.2207014048520988 7.963956954378475 -1.3644124568059082 1.1477826172898684 -0.7322635500706615
Ni 6.809496831033511 8.055454764819668 8.016041262435497 0.0736245674646861 0.108393081294123 2.335419133351881
Ni 7.456113911421812 3.5904592751010957 2.8221410529476385 0.048315142165620016 0.6271666230293069 0.5521611160566942
Ni 2.9369893613403524 2.804214558738272 11.924163119871261 0.5168927797727034 -0.713987377469293 0.13304533262516444
Ni 6.092659016776183 6.019007242176827 -0.32064231635977186 0.9456383729845135 0.9211509293661104 1.4152513938346465
Ni 0.13905055526947396 6.5234164699766914 5.667725084729017 -0.9756004665642424 -0.6539390060271447 -0.24359042726528374
Ni 0.9472539323064201 3.692530424806407 11.540877953131504 -1.3343686021456505 1.0456429731046248 -1.0725850489111075
Ni 7.0942084750334855 3.585770494372583 7.985924863140819 -0.43749197194587236 0.1475088163486621 0.9824216032511338
Ni 1.2814151040289918 6.116324874536072 12.330729423900875 -0.7685932377396312 0.2628204791394893 -1.6981817563501334
Ni 2.780798399360375 4.769100374719909 4.497796609024072 -1.3665847818668788 -1.0744889508020397 2.3839996133637458
P 6.163110952850757 5.30303874821236 11.215836321204566 0.09681360398663971 -0.7432753278001328 -1.365033892439991
P 8.994172711697257 2.305012004607347 9.393605040472483 0.8478228100959205 0.8590418187401916 0.7438499693566802
P 7.588333828730577 6.117943289974908 7.440308928650554 1.0565673333266126 -2.3505451903600423 0.9813072871410324
P 0.6984757350927083 5.896396088530635 10.045055171765561 0.39728480359936735 -0.31998201595214565 0.8467234063841547
P 6.822619868220412 0.16173149163372846 6.33360408326593 -0.22738939202538902 -0.21278449762802065 -2.2439295126813157
P 1.3209691773541363 4.478451458081463 6.289613702020732 0.06790412004114112 -0.1850924310293909 -0.5337052233443519
P 6.428096424673381 0.2998082232134344 9.711364727733484 0.6342975776471333 -0.7667510423245698 1.539023528688001
P 3.58160885467272 6.889113622536005 8.244940694016195 -0.741770204009516 2.015560530351477 -1.0846779755198996
Ni 6.756745735815689 2.3876714171348525 5.792224697990125 -2.910635845676458 1.4227410173434722 0.39167825604586737
Ni 6.32839278555288 1.444301681881638 3.460055682319115 0.9170914145847562 0.5663698034569085 1.1226986777380472
Ni 2.328687110455458 6.444650502590614 6.238585525638654 1.8761416900998011 1.2014402547143244 -0.4154846144368457
Ni 8.192455943739166 5.146191171968626 12.537849607718957 1.2827382795638682 0.5199649909401238 -2.220415488719776
Ni 3.1262237425372437 6.327736171289123 2.921964917215024 0.44086217396968586 2.146877053210993 -1.157654882098258
Ni 4.863264408995481 5.94825011919093 4.6710780380381545 -0.6937923905786568 -0.8888499032405596 0.9492543724705459
Ni 5.761984374313275 9.191933830234758 1.9281746049759112 -0.2988858574034788 -1.1871942863182716 -1.4271923682466066
Ni 4.105004407592182 9.183388596717705 11.71761169347883 -0.16210728298812727 -1.005359700104546 -0.015084919357580473
Ni 5.207237802321509 5.535720647875823 7.111219408508882 0.5760826598692982 0.2400790716779156 -0.21750067215676736
Ni 4.764504074873616 0.7700957047097098 5.2237872561946315 0.623779451724629 0.7783348905074273 1.289403607399186
Ni 2.9844043096541273 4.752546296802676 10.48939899137289 -0.4633022481407569 1.7076940667159426 0.8436753635864503
Ni 8.564173601730946 2.7517686504317735 12.872813513499192 -0.8513634762593273 0.8723974141114911 0.32718187613469457
Ni 6.499149486482379 8.679876433475366 13.301429109467504 -0.3223901111730061 -0.2717717747955061 -0.09364831888478066
Ni 9.019651194748642 8.513697536215718 6.864683872688985 0.052775234819502664 -0.4266308608616523 -0.6848328673925239
Ni 2.271395203920674 7.485421102997071 10.422330930778715 0.3196698840283656 0.2642232730242869 -0.11752795371585564
Ni 4.288532718356151 5.26528805209049 1.0220913118158268 -0.651036230558053 0.5427115406080202 -0.28100074959294186
Ni 4.289716473648556 6.765022774774305 12.056121316283345 -2.009275982894346 -0.02235445643580021 -0.32602667948432884
Ni 2.1536300485027673 2.932115618847402 9.260537073473769 -0.6407762433929416 -0.988882014164497 0.1558211928690994
Ni 7.773267848904276 3.7023426464098628 10.60271859078252 -0.25953538063031434 -0.6092689168132798 -0.1352901627952831
Ni 8.98054102965815 6.460436989185428 0.7985650194920629 -1.0573175812290758 -0.6485743992811217 0.9437177589230328
Ni 2.8630139036532283 5.003391441733987 8.117503887935806 -0.425662326300796 -2.2314318944349374 -0.49758919434808496
Ni 7.923096126187574 6.378878099156331 3.533147947581046 -0.8544331163235864 0.7023495361200485 0.7206259658317331
Ni 5.8878878473664695 7.88528069344815 3.8199108175486423 -0.4007545073155227 0.7514478363085961 -0.4445571063227699
Ni 1.124955947490579 7.04163309349188 8.233408328003463 0.13167159220608937 -0.006275034375434354 0.3692777768634802
P 6.509997493966688 1.617370404866616 12.683898191345957 -0.9452781614316171 0.5534009020010663 -1.2146351561380435
P 3.1162173110811278 4.993431250718981 12.756570593402612 0.10185193774149556 -1.086103652222833 -1.018719923461536
P 2.310412888128947 4.253343742671752 2.5161301369637634 0.14370255522869446 -1.8469560696747802 0.3859578086223224
P 8.144449117779187 7.495483022982518 12.328740160124342 0.09605847098817005 0.08799883390848716 0.21911866737616453
P 2.3914816294822825 7.992863703733725 12.625154334960333 1.3131464595420803 0.7726465818733983 -0.494350118585497
P 4.878181575297435 3.424243385488559 7.536071957379695 0.6533263121438103 -1.0141968387802016 3.9029759935928845
P 3.5717134002752675 7.618741542804245 4.657637791425241 -0.2691667330724912 1.798782338183031 0.853322142647595
P 2.9699865401161567 1.222680495731589 10.328773571090501 0.9498287569167772 -0.47500256729682067 -1.8889738088674628
