# total energy = -340867.75655999564 ev
CRYSTAL
PRIMVEC
9.22710936179786 0.00000000000000 0.00000000000000
0.00000000000000 9.22710936179786 0.00000000000000
0.00000000000000 0.00000000000000 13.50480724149804
PRIMCOORD
 96 1
Ni 4.520600859023907 8.702603707077298 8.697487274848086 1.3179431095997753 0.7366030579862798 1.3339063177972512
Ni 7.4976631561015274 3.7991793011503017 9.910949061466194 -0.6379503439083722 0.0007757018237599544 1.3172573963866605
Ni 7.842277242479522 7.580919365306536 8.317354353081225 0.09529819578337781 0.79712348396884 -0.18101800384970115
Ni 4.271791850799033 0.8555163724046507 5.372820385196822 0.1865859848557819 0.737645126097549 0.6127188230350932
Ni 3.5900745451928717 1.0209150786955217 12.582145595886926 -0.4410652911194275 -2.506069677924329 1.2662449098945356
Ni 5.071357799203195 2.7835790375386855 12.41595520359918 1.246545374583079 0.6873515200493194 0.2432718675836004
Ni 5.720272730463374 8.429564309251143 6.579204978812577 0.7143704718403247 -0.5356878009920193 0.4907667721096129
Ni 8.915362398404913 0.9299080974931506 11.050376212134253 0.23376727052727483 1.5296230613097077 0.34928385024005654
Ni 1.46126965345999 -0.0782255890943385 6.353822678949732 -0.8806488554870059 0.6043653088640752 -0.50139828368153
Ni 1.0375515571612903 2.447444664810188 9.78047865555487 1.3894143781668844 0.6176324582866266 -0.15880675785998458
Ni 8.025232370055372 8.308015595535354 5.985560433581213 2.2915805389003756 -1.990361148267714 -0.699503324920505
Ni 3.7046660183300757 2.601472804038737 10.165433664757233 0.6240051945821898 -0.2591363454196827 -0.8479421092826042
Ni 0.2645384618247607 0.6644017118796717 3.9604331898444873 -0.14843364215577662 0.06180623467351937 1.0934032712080395
Ni 2.5827048632736935 4.870400580952517 10.05331597968252 -0.4900324650467496 -0.15613281057224723 1.3301499360786124
Ni 7.62818984738093 1.0291548874974803 7.084918861155761 -0.39199990105134425 -0.28587299008357864 -2.343374383643216
Ni 6.685197708587468 5.706515110168055 0.8109134476926826 1.1857452125765708 0.21731503850852252 -1.268235972182635
Ni 6.682484938388391 7.947097206634336 1.101838674613704 1.4367818117072546 1.2055295942923496 -0.2555763959825663
Ni 7.68105195782485 4.2158847942132915 12.719934945070046 -1.4638956372049112 -1.9756500673097845 -1.4411544868536537
Ni 0.9979211217700114 5.498286929615088 11.805254346418858 0.007454656505832322 -0.013781112944492396 -0.26925569324187176
Ni 2.6554144862965754 8.785961414487033 4.1782114287513465 -0.2252114105374637 -0.6266038085473015 0.6960333640940336
Ni 1.0488547663241112 6.439876547761409 8.435940241929925 0.1740433723040809 0.1939164570789241 0.8916346650745482
Ni 0.6513997918540952 6.0442180915150665 2.9400505153683083 -0.1737752062443588 -1.723679900621238 1.3103827807540143
Ni 6.674918708581442 3.641903219370476 3.2773604218497394 0.605520248404125 -0.1945363500511101 1.5928899396891534
Ni -0.12656641587313008 3.2785581006655224 3.2309978873521796 1.7958224842237587 -1.169637765491747 4.467446266034235
P 0.33436092227862474 4.659145908476771 9.739248239372706 0.7225347528186717 -0.11877236764591804 -0.16738447222666658
P 2.345079111787872 8.344425769703918 8.118212107273262 0.22705052062873154 -0.41782534675488037 1.3222049701999228
P 5.249468694280694 1.1505282861323771 0.4995972314419319 0.8454188286401181 -0.04444537479756862 1.0752705661630706
P 2.4891973353912213 7.928596852045392 12.846866754480194 0.8113486264292865 1.023114710095122 -1.9209927849762205
P 4.506575652552488 4.416177660578482 9.185092032046002 0.17183093803379437 -0.07645020983893931 -0.8471828625190765
P 2.4800994054038403 5.7197191038921344 5.832807480888421 1.143001136740825 -0.4634498294622147 0.5584376930940252
P 1.5817849309094645 3.687503594621629 0.8025057054974478 -0.69429889790143 -0.08508397425453734 -1.8363710950700827
P 7.016552438584259 6.320883743382844 6.536232484352911 -1.1818276226897195 0.7042449533705484 -1.145190173972344
Ni 3.5290556699326787 7.790439341192396 6.251024374490897 -0.6053803803921508 -1.3268882346082052 0.08952066986965228
Ni 3.990162014009135 3.0680231427323883 7.190162349637575 2.4726432799450833 -0.49218884926812007 -0.16396876167689828
Ni 3.091367729819684 1.2237454001788957 8.065448726901213 -1.1084560517761037 -1.183146598611459 0.5009712234464405
Ni 0.8600948641488073 6.938122007658562 0.37443149079403953 0.35840329604282145 -0.06291206614318842 1.206738012778154
Ni 7.324562581493753 8.587310973616521 10.903201047146705 -1.447565789696636 -1.8304115350525378 -0.981390333773142
Ni 5.44545250049973 0.8553189122609083 11.176727636355553 -0.04585691043311457 -1.5224499406000362 -0.92060636971655
Ni 5.770329799613011 5.43112279941413 10.898150127395091 -1.1176086648096495 -1.1279527270481349 0.5306499814577957
Ni 5.690579892025857 2.9077021148107423 5.477495483732162 1.8757087163274406 -0.5128553764785361 -0.3405932644445941
Ni 1.253927275421008 0.4372588795202835 13.340399929545141 0.5644833850674731 -0.18283268846093673 -1.0312941605821206
Ni 0.48112732631440625 7.980527024427724 10.366087311104682 0.18122292077165564 -0.4941665418197812 -0.16067646407887165
Ni 2.5072916971612558 4.513855841964297 7.827319175235563 -1.3159415057887145 1.315764871001534 -1.4339260874260142
Ni 0.38209829609476453 2.814129997161625 12.887287030446444 0.1689286767853349 -0.48992627848618847 -0.86170239629149
Ni 7.768377322328473 1.2584577861956574 13.38576224537066 -0.9838081991860153 0.9819140674870962 0.568228196821886
Ni 8.007018055861568 7.675257333045868 3.167863235878897 0.7261155281913946 1.0882201843452033 0.3927738031028913
Ni 3.5613505532550245 3.6209115452109515 4.86358082430579 0.6647114140523004 -0.0873534870150044 -0.7501874815389338
Ni 6.627795860259379 3.6162149464649302 7.581976792057604 -2.853674083579434 -1.0919804227185839 -0.4766437024446694
Ni 3.5457751923841334 2.6738594782283958 0.9393095993837617 0.1703247858019131 -0.6954456099113635 -0.2681532042063124
Ni 2.960056734231025 7.170709757346097 10.653281094935542 -0.7249096808087516 0.10884482411956094 0.9753307578426235
Ni 2.4666370526131822 0.3149941421056899 10.460526777048742 0.03986726850858295 0.004671437333740341 -0.3269561332771337
Ni 6.681792905174341 0.20968145030247176 4.612323863925082 -0.29019424316675185 1.3923156109740795 -0.49924215657047566
Ni 8.01914247777173 6.143898555666867 10.16165147256471 0.48809359615282394 0.13656877239739063 1.519916632655221
Ni 2.4713613326877653 3.899708659378004 2.549788995480607 0.5857569497342685 1.1147472841014543 2.8229476010298544
Ni 8.495307464585919 2.6257862376257033 8.307657583685952 2.170832792695642 -0.4301607283917817 0.9245879800721174
Ni 8.209885285783026 5.093069187905333 7.666301500545106 1.2399888044114837 0.09634232077717601 3.1756080810516276
P 5.467985101949208 1.2517496775741301 7.511806469574811 -0.7739766135387315 0.32299586307780503 -0.26570422844518754
P 1.7825945154078118 2.5539993255548885 7.041703693715702 -0.781687351919428 -0.0070833892093426385 0.023477771406966018
P 4.752081355568963 4.33755346035285 2.9230615613188498 -1.435339422833773 0.3276593299917454 0.3572876943811395
P 6.9279168245287 2.3787949699764015 11.571270535060846 2.2189273342100235 -0.516094452241124 -1.4590210827214294
P 2.5223318856799484 6.403088062102495 2.1159736732334373 0.40783969629707817 0.15806396615668908 -1.5500970128933431
P 5.042661488593911 4.994579020881698 13.243259688644383 -0.48313959458165834 0.34947719719778525 -1.799899739616926
P 9.04141394156679 0.19577619625482165 8.869039540478292 -0.5022133233836577 0.9158449437721646 -0.21387130293429618
P 8.400904907079942 6.080988122954937 12.824475327806383 -0.0318107167526936 2.6246659250036988 -0.4219149434432218
Ni 4.734033129346531 6.375960360111725 1.7892786335445854 0.222820541707784 -0.07567939311118581 1.4658828428382689
Ni 1.4030189110559985 4.121030108340801 4.656822522299466 -0.38889092310871737 1.1544829121281797 0.8146645781763968
Ni 3.801458397201907 6.566666259684938 8.448863731524577 -0.9420941072766809 -1.259036050850922 -0.2666390815546311
Ni 8.120751407813351 3.429467476876084 1.5450305855557787 -0.7622963489873259 0.6724033833799193 -5.679302316765245
Ni 4.872061460666238 5.213233835193022 6.3583467307477175 0.08689274532850197 0.8129578798979353 -0.11027487169786815
Ni 6.266102394158624 6.48257961062307 4.367684586492599 -0.36086307043722365 -0.5409806739598425 0.055278975077962866
Ni 3.284075912158883 4.049077108298614 12.272101798039076 -2.293915614791456 0.9790555149923783 -0.2380838956247577
Ni 8.034930062161596 4.9995432058038185 4.852466770888143 -0.6219786510704644 -0.4730598417481531 -1.232192962516149
Ni 9.099018786304335 3.482624854824666 6.267702374949509 0.6577079861512737 -1.3794714080215598 0.0636160341887485
Ni 5.409079234769248 9.08353569652865 2.5988919815058056 0.31507969355452187 -1.0592353670770789 -0.45242879576136275
Ni 6.086708930857752 5.801351341821504 8.616742684854605 -0.047445337966157 0.5081623418782409 -0.6225265531541343
Ni 3.5644324078349285 6.518131663606212 3.936988949974368 -0.03037784096090897 -1.8908879951710402 1.3643255535190568
Ni 7.504860301527651 1.1301086927631339 2.5726122508799847 0.1883361347776692 0.6391271378252927 -0.6806373412539375
Ni 4.382996974742151 8.360730072226943 0.4709839648183334 -0.2551416224379929 -0.29951217813356806 -0.7000201166559235
Ni 6.941166953800383 0.9301387752311675 9.229307418158104 -0.8615311608209485 0.5921546257304963 1.0687101393367335
Ni 5.7754969809445855 3.4814253305869785 1.0614709931717237 0.3370214879329357 -1.205002518144286 0.8815096608254045
Ni 0.3328698213800845 5.908496537575528 6.175640735128924 2.092768444292047 1.6911575025135002 -0.8033386116406164
Ni 1.1688810069689903 1.6730502711784143 1.813723092086745 -0.4617953245779273 0.9617967279119306 0.890648389901879
Ni 5.952122311389256 7.195050872261626 12.451499874894706 0.7470692476249263 -0.04337965253721561 1.066193286452151
Ni 8.596750306656167 8.38821763148902 12.718868291209457 -0.5991565109696263 -1.5845143140309486 0.6310803562614163
Ni 1.2829926704111196 8.22922530733835 2.451635617954477 0.15573094714813823 0.003189710581891281 -0.3363686848402852
Ni 3.2059776571759295 0.5088750900649659 2.0474771484176935 -0.26958453733620025 0.3951991247149323 -0.16722326405845395
Ni 4.868665884362631 1.9410885756443652 3.1269437732875804 -0.40417484585098135 1.7123307941570058 0.3320682576927184
Ni 3.1737289094011873 6.034852575351586 0.08737980444979547 -1.1950657186465483 -0.16613800141407517 -1.0143773302221242
P 5.088584812678287 7.58689853227593 10.615115924536148 0.3373158792449029 0.6404813378603421 -1.408648286695832
P 0.608983692098526 7.580393420063857 4.778378617702872 -0.15965650745478957 1.541840686421822 -0.48826868827810754
P 7.884869580026935 5.631664797736377 2.4347278624688005 -0.3051624344408099 -1.1399631212454495 2.2511265446503876
P 4.8996597452425625 8.079303231846499 4.3817162519406825 -0.6515386241157682 1.665287319614958 1.0520311360191559
P 7.99644378835088 2.1285280784472613 4.996278654455406 -0.6551247988051299 -0.2530759981582158 -1.0663244127133764
P 2.2499107041916786 2.1818238630386526 11.654540584930134 -2.888066187906058 0.9966814556042576 -0.3666115428852267
P 2.3712933299360963 1.6701714130079652 4.085920033903699 0.14321533117963078 1.0295206136214656 -0.8008037610339047
P 8.941548935224576 -0.0819302735668876 1.421030228840347 -1.4593080178342286 0.01598917633940472 -0.7331716637072276
