# total energy = -340858.89024594665 ev
CRYSTAL
PRIMVEC
9.38501973597298 0.00000000000000 0.00000000000000

0.00000000000000 9.38501973597298 0.00000000000000

0.00000000000000 0.00000000000000 13.73592503592498

PRIMCOORD
 96 1
Ni 4.301783326609937 1.0213247692751144 4.851665708590023 -0.651000235113795 0.4096045015069849 -1.0730421910531842
Ni 6.432154644332364 6.856385690007007 8.270675311813276 -1.0108639177522267 -1.0759225979247728 0.37069162649187126
Ni 1.8994998330068948 2.872397900609971 6.036760010199873 0.12913802715095823 -0.3742628887828974 0.44646100821370205
Ni 2.7158557719491947 1.0346890373334445 0.7853102937618539 0.8918771201026574 1.797556179085414 -0.8603577093381376
Ni 4.706099360472939 2.595305193852812 9.00929700955225 -0.3370721386652131 0.3781617096166713 -0.05471924591975092
Ni 0.2725531727263899 1.8802042324957104 2.056048531181463 0.8856419378262231 0.6612059720022032 -0.29754888375961014
Ni 9.08071043998501 5.4697114886794145 12.397716141050697 0.12871868022535252 -1.8159868749867758 -0.5983558694452018
Ni 3.981707229608992 3.8159396265792993 11.596018664383891 1.5264174098882164 -1.2396795007011812 0.822562492867235
Ni 2.2596499641434216 3.2453210435634827 13.368173165028791 -2.9614385301506223 -0.943454477959317 0.5628936719828499
Ni 0.6319872268595103 6.917979574323593 7.503221895042001 -0.5372636301195715 -1.2078140194511524 -0.4242122241178307
Ni 6.747275450929658 5.7002638827250145 1.0590469174729034 -1.4060450447450301 -0.010378000800214384 1.1101367819126366
Ni 9.001979509689132 5.911267280727426 4.9867452356899875 -0.25429367261540076 -0.7817014929868149 -0.4503323182436502
Ni 0.3349879548084448 0.5342460006514459 13.233780621371151 -0.25566767014479197 1.8199474022964204 -0.1524939282680793
Ni 2.7117920584174136 4.637860882206002 8.08423720288578 -0.1038910796587114 -1.7973633463483174 0.09719541280609066
Ni 9.33375872626082 8.50063175710768 2.7081197002072837 0.4176096311996485 0.48069318992369464 0.15401319312608314
Ni 2.266519798566664 0.677995408953858 3.2120915042979425 -0.44108688838598226 -0.0486828099176839 0.4936518069668917
Ni 7.659283510693938 7.607750367499914 3.9969203465489875 -0.4624836088942035 -0.30262964071662724 -0.6805411819957053
Ni 5.609060261242675 8.455696282765485 4.746476530744957 0.1684782195114776 0.37100607240849653 -0.24656365096099475
Ni 7.1769028829340344 2.0350289025506756 13.496645638257224 1.728100912507069 -1.4430077380123083 -0.5632052896859978
Ni 3.031455214551387 5.212402403458042 3.700211071606772 0.6767176944845571 0.6411876198987474 -1.05970947850002
Ni 7.84766901120999 4.0972931322820205 3.492949480960299 0.005010051620081694 0.7291154913599831 -0.054293985456874236
Ni 3.887012380796808 9.055755672592385 12.639798031802517 -0.656558703038179 -0.24526267276138403 3.1986135408078655
Ni 6.8819692537197925 7.528841121829663 10.46242090439122 -0.08119209539929888 0.7789833227247035 0.5687210772979044
Ni 7.688902632879394 7.180581810657956 6.381175217300869 -0.46944538492401733 1.9369109988683737 -0.16001569056642118
P 4.081882929928244 7.559201660571725 9.008678536753765 0.23835746100111851 -0.7441502742059184 -4.00514212014069
P 7.833694716870909 0.20053722402864038 5.256408760849552 -0.6036101758656056 -0.8222346772141711 -0.0029603681799045788
P 4.146480020550074 2.1021599484925537 13.333655062557908 -0.3327480573685624 0.5486502746899583 1.9054540659106731
P 0.5607915288838802 9.261709929994106 11.060578889226111 -1.2075126861606496 -0.438800920565283 1.2526188344706686
P 1.138421660120468 5.116543812202577 6.370130926113339 0.7411004316360011 -0.9540962739438794 0.038118661248592416
P 8.996817748851997 2.2013877618217133 8.73898779503706 -1.4341528587248398 2.031558705551946 -0.1587144552564944
P 2.1962166159648735 9.240340240128365 5.603639473861713 0.4356168664103465 1.0740598336844212 -0.29051845927539
P 2.9334099137049168 4.846349094927772 10.283015929229814 -1.1624810998423076 0.6580633126081634 -1.926076113036399
Ni 3.5339197844776025 1.4823075521101647 6.978591785579155 -0.0981408074384955 0.05319663862763741 1.3020212961631963
Ni 3.5032307700459038 6.438179826982258 7.016969946654245 -0.33995923040502096 2.6949840538029712 -0.25193674234744995
Ni 0.030355846232210958 1.3584252920189035 4.369782486874424 0.8276558482297424 -0.17296582296918597 -0.42942796399081523
Ni 7.320869085191605 6.8341713483679145 12.727653078254512 1.1915829023042706 1.0485920284306198 -0.49600050970472637
Ni 2.231738915544072 3.384697971185856 2.36112267418575 -0.5210947336691929 -0.14429082363199666 -2.3361097316610024
Ni 4.77555789130138 1.4354669187680826 11.527957562989359 1.025526404860408 -0.9769945186982917 -1.9670255588655672
Ni 4.3650289743944075 8.732329123557154 2.4430576502085337 -1.5025984530917478 -1.6315521321460418 -0.31601403244333315
Ni 2.0308431837627436 7.301263779030194 2.5258034919337335 0.5196870546883888 0.4223977966169113 0.4374384930001176
Ni 8.017124926983309 4.9470691263898505 7.429734375254683 2.3182282233948914 1.965752862800731 -0.4812632034945518
Ni 1.7078389606141875 2.446505706447741 8.685418102567294 0.7762042173176698 -0.2737332693972511 -0.16257368110158454
Ni 5.247774542721979 0.10142296943789784 9.321267265034951 -2.5707696892058762 1.5280575165948005 1.5845271695467549
Ni 1.8265876149274245 5.701934416232306 0.8561043128941578 -0.031403454011945914 -0.6668783397966321 -1.0940684155958642
Ni 6.812567033009575 3.7577337343758144 8.734400397405802 -0.3532808872145916 -1.7863124878507943 1.0181506812216272
Ni 2.1704547368777134 6.6373111750592555 9.18090021783382 1.3268805212987211 0.9930927098117348 -2.7904169753920005
Ni 1.828868174715468 6.888979863438594 5.034271913972424 -1.8519450382489397 -0.006792854552117335 1.8806948566881225
Ni 4.459489197713994 7.944015623490058 10.89662728750912 3.750478208670063 -2.9590926556262653 2.5451159931935132
Ni 0.6044619025699906 4.84452840110522 9.28948208030184 -0.893225663710752 -0.18113498904353967 -0.11254155624485779
Ni 2.3431390994291688 1.231164424834244 11.665165612558162 -1.3018729435107903 1.3105385896055881 2.0131280096505844
Ni 8.665395163029057 6.848014252431143 0.9314388045592005 1.0826953978722322 -0.29937359567317473 1.803833270343377
Ni 5.241608584776528 5.010155228839355 7.2635979409506275 0.2872143346028215 -0.9062143626609361 0.9688268952858348
Ni 7.575156194068327 8.819178095896891 0.18355033836461138 -0.0074754824414387374 0.020261321352197364 -4.070852574964621
Ni 2.135157677771408 9.03184264238689 7.800947567618148 0.23534952741273013 -0.526803611128512 0.8456376295191436
Ni 1.7788554047134733 6.448841209365869 11.217676611053356 -0.6358075865337567 -0.7734963314682034 3.8492995871153517
Ni 9.356198308372806 7.2627476581654555 9.804895161913501 -0.6553981070711744 0.16844659494259376 0.8397410615290505
P 3.2492721368588176 2.882364791535495 4.065888979348886 -0.4415111204075945 -0.7694363024662169 0.5810186637183349
P 3.2104181552847404 6.930555500726797 12.866688391159663 0.2810981944027546 -0.3933947245163418 0.7056850282511846
P 1.4193997650350338 9.049955730415386 1.2221707604520125 -2.2291335853190644 -2.390322213147664 0.755186477415422
P 5.2277656807133 4.624984635172274 2.542313618596805 -0.4794567464134323 0.9271104893836548 -0.452437280401795
P 9.302769391198597 2.988218428775596 12.813282936534714 -0.771485985906394 0.05171902564084641 0.570461971248411
P 3.208512996284852 1.267972472112875 9.82775237740231 -0.07019497295784687 -0.19916279307952797 -2.089220064819157
P 3.4832406780766316 7.676777187421977 4.274633403108572 2.9422763553998745 0.2654226926490268 -1.23030808678861
P 6.846475109199706 8.930709670057842 8.353571313853738 4.507983306916333 -0.6437810916575364 -0.6160859397351132
Ni 8.945153215382119 0.2017197365113297 9.178619658045776 -0.6192597094774044 -1.1880764318129087 -0.6161461035490872
Ni 0.20792605004150783 8.797020064376023 6.388029097190616 -0.5136285071991348 0.7155611497143161 -0.9707822192399925
Ni 7.2665016660470085 1.3603304510187917 11.21362415954522 1.0835921986548886 -2.1392928131058313 -0.2560764755474364
Ni 6.352513367125209 3.2584600711489196 1.4679175013982004 0.4708849455840213 -0.4584194661271589 1.3273242937043592
Ni 5.449195835606725 5.224668624211017 10.072237771700296 -0.3303042238137602 0.07970008423480467 0.30437361999092744
Ni 4.354198661656126 1.8125663954898226 2.1966905594599195 -0.6933457899595413 2.1586239093342763 -0.08617103667112902
Ni 0.9549820649883625 3.972031274294289 4.332434800962821 -1.0022764331935319 0.4867275690432327 -1.029095610268905
Ni 8.89201523381873 4.323537802283538 0.9589340967856678 0.2600056353985135 -0.5594607350419011 0.21082968789449497
Ni 7.361130819721265 2.972995926815897 6.2917125169736 -0.038572718066875504 -0.2602347206901841 -0.8659920248057795
Ni 5.339316024913657 6.150435122861191 4.142906205046835 0.302359417774376 -0.3794230928275982 0.2523136660708945
Ni 3.4779475269636415 4.253197079602932 5.79020052654733 1.779095401277065 1.7600332424392915 0.32769661098758407
Ni 6.654316830762693 4.183306837868113 13.036656729008815 0.6882079545123438 -0.1327702245869068 -1.7318968892143913
Ni 7.144496409896524 1.8209002929868712 3.778697991390349 0.7049540636224312 1.327631797642449 1.8370079573231328
Ni 2.5029753700060073 8.620675544140052 10.519410498041081 -1.947766196415323 0.6705095087913162 -1.6387334803858293
Ni 5.373336721340236 3.485164607115928 4.422240054509281 0.824070187761013 0.08614069765382583 0.05579679525464584
Ni 4.117095523857215 4.184883521178365 0.18260808238634146 2.028181047328965 1.6598702623644443 2.0931160574394534
Ni 5.381135672714162 5.994606255697911 12.60099379083287 -3.4503849612220443 0.2818697824614565 -0.27490055023247495
Ni 1.3042924983669038 3.576753014406126 11.236989104600008 0.6810489748700593 0.15305828541198158 -0.6157493823313007
Ni 0.23033090758058872 1.7825906425556188 6.628366312779485 -2.3459740260495923 -1.1161176820864198 1.943340042323169
Ni 4.212513019186598 6.331134292239763 1.6099738521460318 0.15324289061896187 -0.05694402148521161 -0.5001911507473064
Ni 0.504856811448735 7.601668874731798 12.964858512768194 1.0019357620246616 0.570051880294186 -0.7799701121180052
Ni 5.440617927597376 9.40688679979348 6.900420202457628 -0.06029494023531552 0.26551808057631043 -0.6623778808231173
Ni 8.351963659978463 3.4256729672130106 10.5550557413784 -0.03905505701993273 0.4242479624517726 0.7361430876307257
Ni 7.804910861439097 0.7102958312687137 1.8141036617173187 -0.7486612747023945 0.8082399055969758 1.2852157945700833
P 6.702433826784503 5.338762308751129 5.74500977966919 0.6679450904982497 -0.18080228829446926 -1.55733286852015
P 6.101342084790177 8.99191876856657 12.156706019549057 0.7874178266453019 -0.4893382671932024 -0.22108736106676116
P 6.375046799434233 7.913345379097766 1.5263223560194075 -0.9699126721508459 -1.7355527407994238 1.6047172713413849
P 5.236456208959095 2.8484097902468446 6.723295787084266 -0.2755667230615641 -0.6526136023475019 0.47672392086330156
P 7.8458670874268455 5.608328229705772 9.889810820194239 0.047627886290608296 -0.12610438253095702 -0.3419474644796433
P 0.217846954370483 5.8903293017680625 2.772760900421722 0.016533735988965074 -0.4279729767118436 0.009100676749687552
P 5.867429853690587 0.6351218234406073 2.808557242576274 1.1871842590159425 -0.5007143702406279 0.24603683192324718
P 6.04765038706426 2.985252762549169 10.941803956857704 0.4286329788933457 3.136938689505888 -1.328099995528119
