# total energy = -340867.6010631276 ev
CRYSTAL
PRIMVEC
9.25015031291418 0.00000000000000 0.00000000000000

0.00000000000000 9.25015031291418 0.00000000000000

0.00000000000000 0.00000000000000 13.53853000246983

PRIMCOORD
 96 1
Ni 4.767694032009946 2.8536714062665025 1.2144355990930238 -1.4505115025885214 1.1827349649953371 0.5412403553791324
Ni 3.3813739877403806 8.319529791791426 7.225039968250807 -1.1840912219129156 0.5267545030581315 1.588642220156393
Ni 1.1745286001273352 5.609883227649946 4.215437851246622 -0.5950157493283752 -0.6489785766980759 -0.560014807773158
Ni 4.961170178309687 0.5045161544173219 1.2610896577790716 1.006741668053737 -0.807590187828119 0.5311395194997046
Ni 2.474886996492736 8.66083259204107 9.651713330695756 1.0616792006318814 1.757940621576321 1.8098501659614183
Ni 5.25945977908076 5.4468770768517984 9.856401584326244 -0.4930015749774026 -2.073580044289055 0.6044534977025073
Ni 2.616460548755001 6.6145420653634135 1.656696391116651 -1.927025364323546 -1.320309810059739 1.129796465125093
Ni 7.55950043223071 4.208346685930435 9.911707308705264 -1.3649356762992297 -0.34854311541929 -0.13236553294932044
Ni 5.294989606865102 0.8065733414567005 9.82955487274632 -2.3084994261429017 -0.603171031445658 1.4072316088539636
Ni 6.461766580935869 2.6888429758345325 6.299694695330698 -2.0517927732106345 -0.4590031065447708 0.6326199328343943
Ni 6.21534257360057 1.9827604935553278 13.175386082491762 0.3005879276962501 0.6607231188285136 -0.253764282474492
Ni 3.1884251000148933 6.108817841300522 11.226352562402848 0.04130117274163209 1.5062273080935866 0.476674812792921
Ni 6.349867511238605 4.719741252204158 12.354517558567496 0.9368148611556123 -3.5446212913998116 0.08152582458963378
Ni 4.522824049946131 8.50085124043206 3.6025626596998754 -0.7869622271651221 -0.0010685504738304178 -0.2838726718240982
Ni 8.54096914282745 5.250875639485896 7.539945614231204 -0.5561031314235778 -0.9756421184354551 -0.045675647660243915
Ni 7.154510346301504 1.3886603323272162 8.640073404456164 1.52917594646996 -0.0950454563426234 -0.622583888754631
Ni 7.670539237938402 3.3901153798924777 4.515925287758793 1.8560701161609068 -0.13003225683045347 0.13572005124385014
Ni 7.673027528402861 6.193206963632351 11.28374234567273 0.5808546273366448 -0.3289384538144851 -2.903587166359793
Ni 4.742505872401312 0.033314416757435364 12.021293839699482 1.8312355736157302 0.18628336601369852 -0.7019924098909459
Ni 8.6034909095534 3.1720708340626103 12.15671974198896 0.3314725330902485 0.134674126477839 0.46365166106037564
Ni 6.860281561567225 6.716312220344756 8.782417494248874 0.8686050369485943 0.0008631193312436747 -1.3565225125348703
Ni 0.7799967342691987 1.3472751593235328 13.390824860946767 0.5004318060032027 0.15755823016486414 1.0007129453611538
Ni 6.825852501683517 2.4340568325145826 2.117074527763661 1.3451993742125672 1.4667022534157708 -1.2129675386276335
Ni 8.325024381144173 0.7763568000767648 3.971432758247592 2.7546051078997142 0.7792067515894193 0.7550463522931319
P 6.296577394637304 4.876586802818923 7.772768200380849 0.8047439766285753 -2.2867152403882747 -0.15833110377514667
P 4.428417014703486 1.9838335110046854 5.247290281180973 1.4912850849614574 -0.040493075018039934 -0.6074292925013797
P 0.3703482725857114 6.636474172022273 2.176847149783152 0.1031058647532547 -0.30458239356762384 -0.4117457162197038
P 3.987147838805472 4.526292856355693 2.627111171954921 -1.382043025403478 -0.5098973222914767 -2.0230085019890898
P 3.017593321956774 1.6824821104427725 8.717067031522808 1.8299577353445708 -0.3316070017855837 0.3854057927735943
P 6.169138072225202 8.615923111725271 7.596401132308111 0.9520962127947151 0.6610013121905648 2.68487216217995
P 9.092028354125715 6.370726600448106 9.393208626904755 -0.19325388379426073 -0.2766928662462073 0.7153927424572518
P 4.61527005329857 7.269628468346841 1.7348139114599919 1.1602010455588794 1.5736046090969802 -0.06815531681999874
Ni 4.146444679282994 3.853797670271476 6.404455423944603 0.02519629675996951 -0.45174385387919613 1.3670763767913165
Ni 7.916787492415617 0.27014231804132116 0.4241785979718614 0.09457571579505647 0.39131110251443574 -0.45781577110488897
Ni 5.949012242549597 5.6738757682935494 5.593159880695686 2.35524799515235 -2.3879953647867 -2.3933067496972846
Ni 8.231588611696205 0.5338382062511119 6.5866306614695125 0.10115054079909677 -0.9901246283223463 -0.21944519747764787
Ni 8.589162426544302 8.58665563577899 9.181560560094121 0.8898675458717966 0.22438428665047808 -0.2852515544494958
Ni 0.3244804766858311 0.37587616247998973 11.337246140748858 -0.729609400277266 -0.5097507694112834 -0.7334773678731046
Ni 4.866790893518319 1.0426862061126951 7.676901491401061 -0.6559611786634961 1.3645510392663016 -1.0462916624322174
Ni 0.5677751581321834 4.780542490950964 0.5733215483273126 0.19524854562678634 0.4438580233732162 -0.8579601556402384
Ni 6.047526344581164 8.009076243210822 13.527009275571135 -0.4407914686327505 -1.2760438982628282 -0.4630057999462606
Ni 5.631380577238806 5.309845348448453 1.3058344854172963 1.8039715956934543 -0.6812844879196331 -0.7658650401751907
Ni 8.577155731292004 2.892133531735728 7.061588885217194 -0.3854227620544588 -0.44525490372074283 1.283093606020758
Ni 1.8827108665531282 3.9326644527992825 2.308332487991368 0.9455836084871779 -0.03182588626134519 0.6555883687051096
Ni 5.401449588112172 3.8222176567188217 3.970945275320168 0.9618625481528595 -2.0203085865594237 0.5875009290085688
Ni 4.797886522998775 6.219514391442471 7.179293349321502 -3.730604609674588 1.9329643555158 3.438695954919891
Ni 0.6935161529261641 1.8314742833462883 5.383623623227193 -1.0159960967724695 0.029031097125027425 0.008817855401946104
Ni 8.212163295802657 4.604021870381163 2.619366946018693 0.7851621978419059 1.2873675508057634 -0.5757849261232212
Ni 7.062415848665234 1.2564941830476837 11.120656643580924 1.4424516083985224 0.5683258987420147 0.420079947117012
Ni 9.275218333152301 2.541895086175052 1.6616646469101868 -0.48020082366830846 -0.47189153247166477 0.4687583861593217
Ni 2.108969545960839 5.801518594015013 6.650802655031371 -0.031202907965365616 -0.3591651139095105 -0.5246893929989866
Ni 3.495335840982531 5.094973604214533 4.605198489515287 -0.40397172870123976 2.5385733069789898 0.38733951946119743
Ni 3.437439149469332 3.8814556200437185 10.4634963568721 0.32132901689834337 0.5192612800048799 -1.764589494351406
Ni 0.7134382018975618 9.048635898479697 2.20979988565895 -1.1944707653750268 -0.7798078755085279 -0.42734922708491563
Ni 3.3855088049805793 8.137912338337175 0.08778855261320015 -0.22924855672131486 0.41529718101638796 -0.714333190844486
Ni 2.0342190803723796 6.651366914207326 8.977114660404782 -1.7832605883983481 0.4229739808353555 0.09760190421588998
P 7.669799225904361 4.108694815396532 0.582082365795303 -0.05068029996368691 -1.3418757091559728 -0.5993920240192
P 1.831298530488204 7.853442462301797 11.916614512409321 0.3609309475606816 0.10733790055673127 -0.48144986558406117
P 1.354878782973293 1.5433413477424136 3.1556286916812857 0.023981193405945796 2.1873192203864393 0.2268828847026157
P 2.9734978548784192 4.947442955078246 8.553454070856747 1.4030653932914159 -2.3031530742293236 -0.7707316242388725
P 7.954130349683356 8.15200031743521 12.103893057923978 1.0823840372794005 1.1608399646944587 2.209964211479465
P 2.0990903853064053 4.258186496423025 12.202818791649479 -0.12091641057211436 -0.6858584804435607 0.47532112697850404
P 0.34228701625491703 4.249324852315396 5.785920990367536 0.8329623480443203 -0.05999874915113538 -0.6284308344537113
P 1.3416973186169567 9.088254292752111 6.217488608499286 -1.601842520896751 -0.8645889738106659 1.1631467584507644
Ni 1.9748978656936533 8.991469968850113 4.181334396657892 1.0951405656141202 -0.3780015298897232 0.40921729337089524
Ni 0.5192960447671846 7.8830706941146715 0.24261017031486531 0.4716616758490457 -0.8224071982362934 -1.3765658043389906
Ni 3.8875144685724203 2.7736021041833814 12.486748458900006 -1.1014248559609352 -0.8339234264060089 1.2812732649825676
Ni 1.1299891258285566 0.9169988621911822 8.28234511209596 -2.169627716643947 -1.4329570386445256 -0.4397663698023458
Ni 7.160902200245524 7.0801668873317665 2.013436767411411 1.030898982026231 0.8719878373778983 1.1689695357801286
Ni 0.5860793557941611 4.123393304422651 9.626869276682951 1.1375182592493829 1.5704241544864694 -0.18776766386870886
Ni 2.446026527165179 3.0135972569729583 4.569036876456883 -0.11880424932511796 0.8440646286050689 0.06514686901097813
Ni 6.166964286875209 1.3504942116716063 3.939807418957853 -2.8069003177590046 0.33501988412187467 2.0945671880636834
Ni 0.7092229083486619 5.798179289711408 11.712331415367467 0.038262643025624425 0.6272823226715648 -0.14468214553314437
Ni 1.8726744533414617 2.2871644437576553 10.434957792779347 -1.2817967415862053 -1.4309978580356257 0.8619391948926446
Ni 6.774643668927953 8.148207755760755 10.451285233295396 -1.2942012858981453 2.9739778002682136 0.9579804394896341
Ni 0.1795111942023651 7.333399005380233 7.355862070673515 1.4822885378898019 1.5764065973221495 0.10348947334491855
Ni 3.6784518188057134 1.7394075361612948 2.999746081725816 -0.19746380811055025 -0.748896273531336 0.18341144378254218
Ni 5.361451937672314 6.149518503172718 3.469505720934367 -0.2904567527995191 1.2337122273741528 0.1021311595448112
Ni 6.892916092268387 8.245260334025092 4.329107399735326 0.49692739239437006 -1.01537311847649 -1.5461069178973437
Ni 1.570342536834446 3.0975053714826615 7.673381809164159 1.3461758791932237 2.410965343319312 -0.31404611008368494
Ni 2.624535930076462 0.690094522283772 12.192787003513024 -1.0671062851847235 -0.6658732955708855 -2.370173763224247
Ni 7.912985680590736 6.269122948174423 13.466802821496689 0.30580598156207983 -0.07250099538320416 1.3923078976645955
Ni 7.2543472198439165 7.366135287736074 6.432670232772461 1.1145665355492158 -0.7503862278133012 -0.2701946601163734
Ni 5.317504473000767 9.026407787007225 5.7867877294624055 -1.2732550226637813 0.2791518693096612 -1.4191856958920461
Ni 0.06832993617812003 7.536476807821643 5.0201953881747965 -0.7179471334479893 0.5404885648147725 -0.727655876095321
Ni 5.451344899507315 3.078986570330812 8.7653047159617 -0.33067317711740474 0.778028415010602 0.5247863235881672
Ni 2.7864783135756763 1.4627447870850392 6.416004236750839 0.3445815596683807 -0.5851221443637471 0.6663690042603814
Ni 3.7016326957720143 4.84383202016223 0.20582324708769756 -2.5361454142637867 -0.5346521606386534 0.07101669752819383
P 5.3784629643048065 3.0688576556148903 11.10642806219642 2.4316961481087604 -0.6535638820759131 -1.8484946178064938
P 3.071762202848497 1.2615355150295806 0.5415861322475101 0.050534518414441995 0.699841424986214 1.4609992894937225
P 7.531814732007191 6.03419687781802 4.097151552680551 0.15946341760737698 0.8825440156271899 0.6472705928680337
P 8.789835189875081 2.2688953966672942 10.032591974525856 -0.057867561740745505 -0.8362250779559921 -0.07714209369964134
P 7.129534940152656 0.2931372669840696 2.3660885772180995 -0.5376510953659772 -1.773176721799785 -0.9693076915769953
P 4.883746419248259 7.454492724600443 10.062824241161515 -2.7368015040593896 1.5896349230869655 -0.18348857687738077
P 4.971123340167525 6.089596028716334 12.683166153035057 -1.1357436838474635 3.138066118242112 -0.4241826564314759
P 3.6366966397850096 7.309977624502869 5.4718136323688595 0.3846228918609827 -1.258026378639485 -2.3747721812282068
