# total energy = -340872.4183545505 ev
CRYSTAL
PRIMVEC
9.24661458595961 0.00000000000000 0.00000000000000

0.00000000000000 9.24661458595961 0.00000000000000

0.00000000000000 0.00000000000000 13.53335510867759

PRIMCOORD
 96 1
Ni 3.7343284705714264 8.463204299596475 9.613242726866513 0.7411117444899107 0.09516372708804256 -3.808691326675685
Ni 2.720825552467848 9.173751141421445 2.7534559302477155 0.044390353189917096 0.11453467541548662 -0.33543537439273846
Ni 3.6627319347813745 3.792665361220972 4.601963271530641 0.4262984172228981 -0.32162520798252353 -0.4464772061636182
Ni 1.6229935104581266 5.210411770435165 10.60516959478121 1.553363599459757 1.3858770544375874 -0.43719500953074386
Ni 9.022337829583385 1.829340958823204 5.253486199251435 -0.5092267785870134 -1.605405812767977 -0.6313816895519191
Ni 2.313253280150412 7.555797035845869 5.321748405865987 -0.23975305579706455 1.8889807508459986 0.2551213107230187
Ni 3.8713725435333735 7.130221605168207 11.455782303174765 -0.10250371239288153 -2.0410507042027817 0.9791899836877137
Ni 0.6334319265231655 3.7957722236806726 12.218062103599525 -0.9064262215614259 0.7232456628427673 1.3314455149615845
Ni 4.801276820273416 3.0934456221136584 6.718214656554126 0.5690488929509684 0.7556289642694792 -0.6529730425694497
Ni 6.447599539022683 0.11218454997711534 7.100464150502114 0.7954769495043527 -1.0525363577903486 1.8203166127103811
Ni 6.660918934693158 3.9649667751318374 8.247253317449717 0.020075173483320264 1.195248781191632 1.0500686129761465
Ni 7.002396406826262 7.118543131100941 13.308119592168426 -2.2095489783189173 -2.276632659341292 0.5768835585040387
Ni 5.748157881168248 7.512661579374139 9.15212053620723 0.46004028956003357 -1.0859588991148523 -0.08122449129913109
Ni 8.956280015856906 3.1537427950294443 7.125311652888144 0.1976818376586273 0.9816749548930963 0.48465423145397174
Ni 3.3176020499352314 7.015212214472524 2.796776319008712 1.3072987425120517 -0.8993685433836963 -0.9585088011892783
Ni 7.168252930456141 2.1661951237246106 1.7330134279893612 0.7789640394509939 0.2573831101740019 -1.2920299892784393
Ni 7.326823121888867 0.39833675379139893 3.149834251095768 0.5587521390106507 -0.5769177541760838 1.0838076570998043
Ni 2.9449542404460307 8.094375341880657 0.09551845206829584 -0.9328203952842387 0.5940119906542093 -0.023681402777339863
Ni 5.929511730638774 0.9601037195774834 13.314060541961158 -0.2130719469614524 0.21298504367460092 -0.6049798025196226
Ni 3.5864751053017727 4.39059768549628 2.2914673318132124 0.3292302740232911 1.4458200106501229 0.6699065850999947
Ni 4.251722782870581 6.399674336258917 4.943396359914319 0.9945222431694098 -0.9756423755457714 0.4863190207509044
Ni 2.165686559929124 7.3756914793279 7.890785233948561 0.3525051853908316 -0.5008454965018536 0.04556509022430862
Ni 6.034978615208234 5.237892708620369 10.344342018659267 -1.3387052818477914 0.27864150533214593 0.44816025029299594
Ni 5.035040480522453 8.500440416040558 1.3940981927240648 -0.14060540436060948 -0.8489996040128411 -0.738466850667896
P 3.5761096504883088 1.3816013932767892 9.428607253922928 -1.2899669361018233 -0.2783334871734239 0.8287585943756177
P 6.960962327415798 1.3086640983895452 10.977837746822232 0.7143902693346664 -0.21066873683659848 1.5870869598541313
P 4.951673004520503 0.9139279762701916 2.69924118032595 -0.303794864669322 1.1015778365990316 0.44613859187727684
P 7.341488252427809 2.9111116315100123 4.100701527485769 1.9052131535444607 -1.0169381489707647 -0.05477529596866696
P 0.2819144804057106 3.802318826720755 9.88603449744264 0.034684952976695105 -3.2712865429925597 -1.1843267349624895
P 8.786031350356913 4.777050690379325 0.5547848472047765 -0.5523560056763196 0.8106428586115136 -0.2192603351603514
P 5.862991586189125 5.175043470112686 12.821162360698425 -0.5654274941482972 -1.0521910586357879 -0.14743245458477192
P 5.33055303215803 5.870749495723912 2.998679844462683 -0.6970597484760188 0.6330534208273871 0.7868748096576385
Ni 1.877386367574994 5.640000231789939 4.06188793861423 -0.29156232715887204 -0.6315889204667188 -0.5209810909094641
Ni 6.279570060993905 4.592959843027635 4.955265314239531 -0.5495619878709503 0.9604139886317911 -0.6467139490336152
Ni 0.2892045112486496 8.455816254640224 6.607498468953798 0.0993260859958483 0.26655217826777966 0.4631454108479185
Ni 8.878081397339992 7.164526544827394 1.2892397353862957 -1.5067284160997212 0.7161676729500633 -0.046855784011274146
Ni 6.445787202587857 7.3276738104195 5.867548317796684 0.7773349884880032 0.5192206565749315 -1.3513581947251114
Ni 7.314793276471993 3.40311474049269 10.379379290183955 1.3412830698772964 -1.513128148978478 0.8548066976129214
Ni 7.511958836674922 6.902690163067495 3.2467064075215046 -1.5978994770886028 0.24835313876124973 -0.35174928106141357
Ni 8.523445992825481 1.731243625981068 8.862993696520073 -0.08451730311778993 0.3237684795777715 -0.2607255442836735
Ni 5.470010471494923 5.695470671955834 7.10199354053436 -0.8953463095981806 -0.6489343537237018 1.0740264093433245
Ni 0.8391173172926644 0.1373852730356466 1.1195172022492712 0.1002542542370725 -1.3042506997143473 -0.4480126689715381
Ni 2.249266708063733 2.899729049105576 10.837821811971748 0.9372599191128309 -1.5637842805724487 -1.301244565898172
Ni 7.561178565463563 8.925618242296293 9.599695512016197 0.8493752421847048 -0.5478516900480629 0.029995517920825762
Ni 4.19585473828276 6.135840685774925 0.43412577507196143 1.3732249128912155 -0.4347660883742771 0.12467382073201753
Ni 5.820290720597176 1.281858163060169 5.279388740347738 0.15511336816879737 0.9946379428116676 -1.6094794686167184
Ni 4.9960752471737155 2.5841420974699734 11.434832248785055 0.5123208441313049 -0.28844640723770965 0.03413345134859928
Ni 5.233593032894891 3.2566298741636177 0.5773752510002919 0.789173375883828 0.8762748947890264 -0.24691614920440702
Ni 7.6881438286604125 6.911992257217668 7.925349078812724 0.041866301216482736 -0.7531396221887223 -0.660753714956133
Ni 5.710145049109238 1.6624580609878876 9.296359399883144 0.9284569761092204 -1.0374121005544006 -1.3956271918458159
Ni 1.4370163537559033 0.39655862983008844 9.35753037786572 0.1249422439020558 0.5033489796499977 -1.3574987604052104
Ni 0.12205253693244834 6.4391111469452875 12.701134832333459 0.40517629053230225 0.29217476393189035 -1.8413109555738612
Ni 1.6761060639358558 7.535047632990015 10.393034690423494 -1.3874983920910944 -0.8982681112306659 0.33947612012101536
Ni 0.47048253848057636 8.905183224332196 4.086220404574648 -0.32360135787228783 -0.7400758470262286 -0.6360315296191047
Ni 7.643260762055102 3.192190217968232 12.886961269219928 -1.407196384740654 0.2025705332094963 0.13232645218126887
Ni 4.103989623588951 3.3591101022614023 9.022633721246214 1.0251199134506086 1.405673006117592 0.9851109771578387
P 7.936406180388049 8.954754324470445 5.2067963441799785 -2.2159440832119834 -0.8988838904377939 0.6462184974544355
P 3.811260302906856 1.9539760751752782 13.112102461481854 0.2654360623854654 -0.9435226121930912 -0.14871106418687935
P 4.159395337453601 5.939618280247263 9.350560279883213 -0.9469527209205626 -0.16779739139436908 -0.17018234668677787
P 1.1497517822216734 1.1787214253354839 7.0930344957807785 -0.40470809264663204 0.8339540225336284 0.1831165382499427
P 7.216168886605444 8.890897204986254 1.1063555712220776 0.24873211936722323 -0.14481944244195702 -0.2696357022891098
P 1.1346428141884894 7.471440172096334 2.6712544523295985 1.2042095899293455 -0.1438881888769393 0.932913212108361
P 7.051357230409928 7.012197818157459 11.031632700447359 0.27213867121662166 1.1514497817288105 0.37544919578151464
P 8.951675201854137 1.8293871918955211 0.4297262359102791 0.1770245664195919 0.8666024046962688 0.6304190685283336
Ni 0.20659248364835772 1.7560985256586683 2.7588420831726426 0.6062090469410334 0.8951185098580908 0.5036366860937456
Ni 9.074608941144946 4.2412371220690925 4.770385730674112 -0.37091994045259347 -0.9212851409511296 1.0473571275822544
Ni 1.1817820547228668 3.5458454813496236 1.2514552947045328 -0.8915349062718904 -0.9072255775342698 0.5954176127524843
Ni 8.799124556437079 6.5962666063651145 5.087174742189957 0.6318131206623828 0.14027964559007455 0.810063846179592
Ni 8.484813637597425 5.509308582964343 10.429710462031096 -0.1709372225749314 1.7180137034743959 -0.1397451132428432
Ni 2.1987432066357537 4.251972441461092 8.213433825049858 -0.9495857876680357 0.40986289737469417 0.6526583395425082
Ni 1.8746956027661468 3.0076093000499817 5.974096131596915 -0.12855284407144957 0.8088857667110908 0.5439191877628762
Ni 2.195238739754128 1.025763928882037 4.725252080816845 1.0382577363841474 0.3085040972195332 0.9175956079146841
Ni 9.194269378915713 5.177262657583901 2.7153996391007293 -0.35678890036785005 0.1383423193580456 -0.7594730206059178
Ni 1.6974287568884396 1.8068716856771592 13.081462879795954 0.3042944300135598 -1.0574849600448755 -0.377943165847962
Ni 5.6140357383767325 8.65423010779571 11.28930810569873 0.37800487232383284 1.0516680962527822 0.30660790863808485
Ni 4.375100359655633 7.9170437697017055 7.329624846071276 0.24848760745658496 -0.28485071946665136 -0.698463827912397
Ni 1.462167145096332 5.609699076193401 6.396039492113356 -0.7437445541270675 -0.14603171758250336 0.2606602382633769
Ni 3.0297641883042714 4.000778912948558 0.09016836093977666 -0.17188441697954915 -0.3096891186665699 -1.8419658155490406
Ni 3.208270080520073 2.0698731408594457 1.8594692027292776 0.03524828167933284 -0.11743462267110097 -0.13978676511405602
Ni 3.817529507513036 4.715551457583299 11.451586189531278 1.2376946090606684 0.26283230621403125 -0.5022729729769995
Ni 1.760296488625049 5.987173618432493 1.143062781318855 0.2423529553137568 -0.1283841797040692 0.46661177212996413
Ni 2.9750149840665214 9.209184168045166 11.378600812248823 -1.2894712274123277 3.7242362442543993 3.611357102164464
Ni 5.421539718477817 8.311624548698074 3.7963898975268275 -0.8741429360476881 -0.25008631940227255 0.7413125476468071
Ni 6.734660685038718 4.765640368131499 1.8496039897582834 1.108882340680245 0.7657768513367587 -1.2063924565132773
Ni 7.912254023409668 8.872403976059468 12.41506677271079 1.2265925856102358 2.000551458537154 -1.0481117463600915
Ni 0.12432720409044301 1.5376565055754725 11.072381605726084 -0.9083977434655002 -0.32472518706408593 1.1234594671634717
Ni 3.3749865392950484 1.3649297473992916 7.139114998959097 -0.29079510997554436 -1.280132466509905 0.48119172682666805
Ni 5.592833251412172 3.0887760818096455 3.0641541968165225 -2.6952136533152746 -0.6153187225517854 0.3700647915411498
P 2.2997069899615417 5.8538836709426825 12.635592979694037 0.5858366539322685 0.48470128264182333 -0.8275152088868201
P 1.7381970800575397 3.5136487697880896 3.3521853126897674 -0.0662868961526923 -0.2736535651992513 0.8630401412663072
P 0.8410711269287793 8.731402352107189 12.074337351687777 0.8678673874516215 0.5102459638801471 0.4926575613744225
P 0.2614369280150805 7.572931012446536 8.728445284801795 -0.4670892259870149 0.3233306207094044 0.8707040855694681
P 6.747513479142834 2.219150484756462 7.258452729885094 0.5884013293356511 -2.1182915282638164 -0.6020785697124277
P 4.125672934505608 9.030178958648342 5.585053150002673 -0.5861390156640357 0.24498910738502327 -0.9021574189827432
P 7.703483962055181 4.825595416312139 6.578929204246253 0.5162230073991884 2.6388422165040812 -0.509757968500135
P 3.4846051537585723 4.829035156892521 6.474072596231377 -0.4527154737638462 0.34773810301949143 0.0918680870559063
