# total energy = -340870.3160682043 ev
CRYSTAL
PRIMVEC
9.32201329329686 0.00000000000000 0.00000000000000
0.00000000000000 9.32201329329686 0.00000000000000
0.00000000000000 0.00000000000000 13.64370873828140
PRIMCOORD
 96 1
Ni 7.602605169273859 7.927216313605754 1.869174582481262 0.018008006541646405 0.9054461170363438 -0.02327285448501153
Ni 6.530293988626628 5.10475308306342 12.671976551162397 -0.5353363311898716 2.403822304516628 -1.366979446202136
Ni 5.232390088065783 4.2958353859351615 7.681940162779017 0.048977458339967264 0.42215534158880197 -0.6902015879036049
Ni 6.918807533578681 1.490804320113424 1.5286544903888475 -0.9118353083921393 0.43549859566492743 -0.233457709706656
Ni 4.6012431830347404 3.280835942561852 11.15852067112674 -0.0567838417582635 -0.8646005437748917 1.0681434681999862
Ni 3.6544901984419087 5.315551767997574 12.665673005823324 -0.6381074383115268 -1.3377832842541542 -0.20967269147191628
Ni 4.757778429017773 8.830566004648265 0.9179237265099872 1.6407926769077033 -0.11979283849063238 -1.7677568363357943
Ni 9.24159221152558 5.447150628618255 6.465439810456751 -1.0513302532973894 -0.46136826434283773 -0.4554423857767059
Ni 5.854420064168085 5.883383559241292 1.4062163721590386 0.3270803175598238 0.03469652294092088 0.350866364235828
Ni 9.359860593242276 8.20273773632339 10.815463127035958 0.1421622073247681 -1.521976086287411 -0.22878961480702534
Ni 5.464666691457829 9.015356272699817 9.107598525708791 -0.31930144494535334 -0.3215753285811946 0.35088744728175053
Ni 4.401705490069827 6.442322149873538 6.65892099143291 0.044899431615851707 -1.4076339864987046 2.1726366786736
Ni 3.4416779586523267 5.757340618499475 9.088988058517241 -0.22768121223419496 -0.11685252491538584 -0.4276361621977151
Ni 7.916850234905592 6.234236170786279 3.45376860979811 -1.1877079927298964 -0.24495234060981685 1.4383409286642586
Ni 4.444083362165996 0.4802906295013716 4.6455870677189175 -0.8649129328089878 1.3582556931758931 0.6487343218977538
Ni 0.916212204882874 8.180001346080855 2.173238145274579 -0.3964113998554786 0.6127152234906674 1.5238627617871627
Ni 3.4298017138105936 2.8383852291213616 3.8234171965977173 1.0702795407063823 -0.14428928097009988 -1.148163654778371
Ni 1.9029678126035283 6.945449847360215 13.046878092411234 1.191385955802116 0.0234065518493984 1.0339110293796774
Ni 3.726251056206165 8.66950026024052 7.312931998287594 -0.19252420471708778 -0.008261982898476093 0.7675920501686264
Ni 5.863527671083605 4.24244821622668 3.54964271915743 -0.7058400657718102 0.9286616359208588 -1.224861204741426
Ni 1.3784274507514978 0.32229182744286583 7.111510326451005 0.013100541937700019 1.1895080220531127 1.9713041316362632
Ni 4.243660077945224 7.686568542342534 10.838644177309064 -0.18208449744100252 -0.39174896138280274 0.2551195109508058
Ni 8.697056131317572 3.125960014931902 1.4764810468015537 -0.3317707810569577 -0.45340864317612883 -0.8270403261329305
Ni 7.699423598572322 3.0707830186852623 3.7280343573350687 1.0465171481794622 -1.0403310739734084 0.8665383842275528
P 9.1942550283966 6.277686074402697 12.647376690477271 -0.4924894112276744 -2.3440464700095758 -1.4726217042239993
P 5.00027195889847 6.837528900317243 12.899772062799796 0.2445733600038433 0.5573030652689499 1.3661417807921892
P 7.063336026534906 3.908263364318285 0.591666314643516 -0.3166907467953836 0.2506203375288716 1.5925464403068057
P 8.386297498629958 8.343947592573448 3.971970002660832 -0.5274723550607625 0.20560263516760077 -0.09998120308134395
P 5.472935317183588 1.7075224834420064 3.0529294989671403 -0.8663404092841338 0.5384864467830791 1.4911012510854256
P 9.158542395752425 6.1751066409345405 8.855817474057439 0.013464610145338103 -0.45382259078509585 -0.5929249282376176
P 6.655656422403417 3.5101854338029526 10.441544125980464 0.7237791667487341 -0.2821595457877334 0.08952298386249744
P 5.3967371811268166 6.275765739679467 3.6286262727642096 -0.14306235054153424 0.6670112658300706 -0.08550100718729792
Ni 6.582189636219979 7.964131485955255 12.05694554258535 0.5671493619354104 0.6657390839858663 -0.19827242005477466
Ni 8.321928997348822 5.759549935632513 1.0501471620163796 0.09430857817659888 -0.15346040594640667 -0.961463512942228
Ni 7.6085712577343845 3.0284051465890935 12.317049287639136 0.6346942988649198 -1.1615791568533287 -0.027530601320100972
Ni 8.206839422140002 5.359999127028488 10.651915862709162 0.5922032195802447 -0.7176319162004157 0.7775206221362481
Ni 3.8172059391895172 5.001605006788869 4.669218371230529 1.0340010179903223 -0.6646319669646166 0.509642011747561
Ni 1.732729207187726 6.442089099543049 7.465619117213588 0.6113327413208439 0.8528014942574346 0.1121008691630134
Ni 3.711699393570415 7.410860679360508 4.803472141216144 -0.2787582334156683 0.8721513595389561 -1.2334594879333982
Ni 9.345411472751941 7.9837170357295735 13.77209622944493 -1.6837157015234743 0.77384188773308 -0.6125334464971643
Ni 8.733057746371554 0.6276800483146839 12.169669190839043 -1.0320742332812547 0.8904478438552988 -0.6965319009970069
Ni 6.130985552366312 7.497042691575439 5.444849023554344 0.9666509706804384 0.4365928571703707 -0.014694368787381144
Ni 7.591856888031694 3.574619189176626 8.4802195784211 -0.08492482296885374 1.4611928935617673 -0.04236098146471414
Ni 6.702518182858199 0.7641766946809277 4.737354830255016 1.7032206043256213 -0.7447372570576399 -0.1918606029911599
Ni 3.5533183889699065 2.0384259866971117 6.397398435967105 -0.29009319881251333 -0.10419832648648508 1.097067350323188
Ni 1.5571863762499878 2.642166172862616 1.9042523860251852 0.649664804131823 -2.02700785295647 1.5334617183295074
Ni 0.20309404100817965 4.728665781733054 2.7840537394737375 1.748843287260743 0.9784615901621213 1.7506299468475206
Ni 7.0258615333922325 6.147410939659196 7.6017419508497275 0.9075587925039723 -0.3365160090514269 -1.1362599613622497
Ni 1.8148841096918036 1.1055814458278794 4.135708368258627 -0.09724092133204543 0.2651786949590207 -0.6820496482204318
Ni 1.830666278072537 5.97095455142594 4.811303564521905 -1.7645532417968322 -0.5671503903766749 0.7305946470086708
Ni 1.772953694230174 3.3410934360131574 5.6084923046173 -0.3051272103275003 0.7845662161291198 0.9845810727962978
Ni 1.8784229517963982 6.231691261177335 10.861483109697012 -0.9234865194778223 0.29325514148026266 -0.8052988206907807
Ni 2.9691730745919407 2.7277888642843737 13.197067843995704 -1.3408341552653358 0.6523917161446829 0.14293713781757963
Ni 2.114959715229788 8.297906169281987 9.294325908107371 1.042451719860837 -1.2091525357569177 -0.708580861741741
Ni 3.005631468293682 1.3472826045849116 11.167798870884178 -0.8041644499760217 -1.0197689335513405 -1.35547453088633
Ni 5.462811610827134 2.231074711892762 8.91172904494578 0.9766636177214341 -0.28427916323389746 0.3072375718022838
P 7.181045087458428 9.174865240899893 0.1408071452789733 0.5299400998749647 -0.10918138152337327 -0.256959392373022
P 5.363355051787534 6.68533771249453 8.817861032831312 -0.9098522165238395 1.2973267189010045 -1.2161171400002089
P 3.4036255006900387 3.7910949801614997 1.6313513812235714 0.202969825530444 -0.05945804615631696 -0.3426848568663001
P 1.0098164040232285 1.9387363773270214 12.94781119352421 -0.7803179823757271 0.2655250225548459 -0.07010704122973087
P 2.6483280236007523 9.155941554064164 5.557791739118698 -0.43419504636215545 -0.8855411505823007 -0.4312876429073734
P 2.9745984862857306 4.532120455011623 6.996916682345465 0.6847271950525949 0.5961478060502895 0.36511721772788736
P 3.37644251014177 1.186049063939215 8.674096944959091 0.025423068058794924 -1.9912312095774936 -0.22301877376151916
P 4.466036703298085 1.2675980355840202 12.666900714964342 -0.21860290408201064 0.05499101152389884 3.2176196495967226
Ni 5.538403816024634 8.401734752521568 3.255006508333065 0.642166695982565 -0.634750863134468 -1.587004427442654
Ni 1.15053219357265 4.2024008474354035 8.488856423669032 -0.24293042508378165 0.5801061792063944 0.20161356861286567
Ni 8.899595512539186 2.673870339822376 10.247952945248315 0.10812465812408475 -0.1314381360390446 0.7245960062230746
Ni 3.679734210240506 1.3627664685426188 1.6446949109460651 1.1810920300752756 2.9393632955181377 -0.5023292801362316
Ni 3.169148902178174 8.950223366334676 2.7797283253398564 -1.0248034106514543 -2.3353491993458944 0.4712333300623755
Ni 0.9081654430717404 4.178676323791596 12.09505206822431 -0.30256716290980795 -0.307919942581289 -0.7303635048344712
Ni 7.178220517452898 7.363840444680992 9.794409036076535 0.39991581346431126 -0.29932757292658774 -0.37503936193760573
Ni 5.5454699020450695 2.902660510270303 5.317349052146308 -0.04196374602629547 -0.38164812550337496 0.8216975737637784
Ni 3.4064314266691293 3.258164806411856 8.95620809882164 -1.1356760638343215 0.7893430686924727 -0.37566851088117237
Ni 2.140185083001947 9.294429382454108 0.4078856206236431 0.09665650958348515 0.26968275347696136 -0.8340771783750539
Ni 7.576568786351598 2.4409971275842777 6.471934457066827 0.14820352842284154 1.1465870543198704 -1.6269406015159593
Ni 0.5613091785939835 7.911974821991755 5.440483524763619 0.5274736406123431 -0.48572740991349245 0.32908320692246545
Ni 5.798804933300126 1.0749306663619307 11.151084501181487 0.4184436970651697 0.44837288052443425 -0.3009314270785978
Ni 5.568476630670969 0.8590719926521928 7.03237668843139 0.2361319141047095 -0.024271728063171103 -1.6733634117548728
Ni 9.120489937790136 0.8649429965778784 0.8544575961085051 0.688970286599665 0.09988735781595699 -0.49893002464669556
Ni 1.3260097704178513 4.510894230910661 0.6989887884377908 1.0066691629445887 1.9085501883374938 -0.35720336219744936
Ni 8.84545325975992 0.9268495541677262 3.098459143732846 0.07329495203940926 0.5565605306759706 0.22348748586782155
Ni 9.101808623298115 0.8469841381103752 5.505673295409399 -0.939343284004421 0.3163778435406551 0.15638169335825972
Ni 3.6286588998104783 6.811045060760442 1.3625557910438566 -1.0946538557856889 -0.2858282528885723 -0.04438778208675581
Ni 1.0435527698648552 0.8514596366570912 9.78813345677712 -0.6876621093112029 1.1448237917718607 -0.7538284207256307
Ni 5.5145860722486315 5.340888999928368 10.442621750708646 0.18988059644665362 0.7372808007795948 0.3432348158324992
Ni 5.091870060793973 3.400362796063189 13.720112954927314 -0.02583598722649744 -0.4326600977748678 0.6347570337820553
Ni 7.586235714060293 1.0017062525222018 8.158842240475074 1.0659888837508287 -0.32449970131684114 2.849895847483924
Ni -0.30503025556418656 8.117469281403976 7.916966760070836 1.2888734459273288 -0.8161154516903106 1.2203250074339693
P 2.724675311869037 4.276044751870013 10.792255042924513 -0.11393303727574572 -0.12324300182276195 0.11064999564909977
P 1.889805129937494 6.3966722511373 2.768636061809889 0.2672319779436237 -0.5075378209203647 -0.7240635307583724
P 7.340442191499869 4.576670356187952 5.605912903559444 -0.40339040227647305 -0.4707939285321117 0.39867911284373275
P 7.486723222941375 8.747609409007305 6.785193253699928 -2.1677991480756407 0.07829317658494904 -2.520774074014039
P 0.1558808406550193 2.331062625685879 8.070785571401686 0.04263146151728142 -0.7744244997094275 -0.2936305225418105
P 7.440914849980403 0.1557158410210329 10.280589313530033 1.7667073120253571 -0.6430226162249572 -0.5698886152434444
P 2.2041900257675198 8.500911651164582 11.495179585343607 0.07012503895185987 0.49549323105100473 0.011472262305657661
P 0.5683463663734376 2.955758697568978 3.978791851934914 -0.6392230399732088 -0.6558357088292254 -1.1835921707893098
