# total energy = -340855.06136736163 ev
CRYSTAL
PRIMVEC
9.37055872609101 0.00000000000000 0.00000000000000

0.00000000000000 9.37055872609101 0.00000000000000

0.00000000000000 0.00000000000000 13.71475988622171

PRIMCOORD
 96 1
Ni 7.062843231672531 5.231836026850609 1.0248617727443987 0.28429433274254906 -0.8044984362766725 -0.0466125576522165
Ni 1.3064714304907203 7.143823601498892 3.6058163568829498 1.0095292581012032 2.5343050186209384 -0.19307776322771264
Ni 6.088783006831005 6.709188969046204 5.693476609990588 -0.07037237907597557 -3.9963869996558783 -3.270709330332851
Ni 1.7248668844072954 3.3088755277558235 5.890037201245586 0.8413932524204929 -0.7091161654199207 -0.18282291826892386
Ni 3.524304676368188 8.837861347196545 5.802714837170383 -1.6301220845677344 1.443953132644713 -1.1025831379350948
Ni 2.203908595384298 6.1000183069261 8.23960832322556 1.1948050087859938 -0.7710913215711365 0.287277326630273
Ni 2.399762646499871 8.514220984657449 1.8304815164688482 -0.9374848906394435 0.1984634530196582 0.835894948310083
Ni 7.4404861250273315 0.41058228192383966 1.2738871861031704 -1.650677540121583 -0.03811737569701177 1.6137598411596272
Ni 1.7700610898773883 0.8354377991311224 4.522250455790527 1.0768384248708227 0.1135445435880754 -0.31265720015595827
Ni 1.6462291543005116 8.09573182515209 13.443948319159544 -3.692498803941802 0.6344117346274945 -0.1940604388559561
Ni 1.7645418306980634 1.5611819619209633 10.705344389508179 -1.5726322178813819 -1.1279802378519606 -0.02532768013151122
Ni 5.956142745908517 9.196172777585392 11.770541732944267 -0.10709775952146718 0.6772478559564143 -0.02881203913568586
Ni -0.08666829906549617 2.61660674950286 9.034378833880702 -0.06625887112823428 1.3340456715885929 -0.13608437656180433
Ni 8.98178376100852 0.402903108923064 3.264099249211704 -0.5255499412270691 -1.4522328561550022 -0.3968986239045422
Ni 0.6160608340633258 2.454355522524909 2.8003896466713933 3.3767614221986233 -3.6348047916644433 0.6425454194782224
Ni 7.242458104251991 4.308732901189338 4.988922091992271 -0.7297965765874076 1.7181741403116602 1.1213095107000044
Ni 8.07115284921428 2.6429192788331566 3.86078738985001 -0.06412871215910892 -0.6616050072128348 2.923038075995553
Ni 5.040582920144286 6.78498741981286 2.288924864919548 0.2786582175026943 -0.8450897274354735 0.3593713163830456
Ni 8.9912105432401 5.682878507899219 11.06622054186202 -1.0302114690409032 1.6327155563265237 2.0760747856864508
Ni 7.519311266311682 3.680099588278983 10.098356130550833 1.7376728724662203 0.3375763319951412 0.7155524079635677
Ni 7.218966113144066 0.8064293600115356 6.585333607072132 -0.853728119836762 -0.6357322532111309 -0.28013634471011756
Ni 5.32391113838889 3.7878047920262867 10.08298185459919 -1.5951921054597686 0.38159310389572343 -0.16030082590700778
Ni 7.323147986753125 2.684693230312666 1.957247374030524 -1.3673566270358968 1.0959448066829707 -2.302257044777616
Ni 4.560716599985993 4.996391364474173 5.060074619667061 0.12048549368228283 -0.21241040211805354 -2.8216998446656825
P 2.773460534566904 2.577550260098061 8.123225044901053 0.13520685905285748 0.5901895315843255 0.7565849004248454
P 5.0679074698334405 0.14310155285423484 7.2679038568860435 1.013795489576725 0.2670458300747465 0.9361749135787684
P 3.112599801490727 1.3394089449479827 1.5714230457190692 -0.7402869345957702 1.0740888871501437 -2.33999569697897
P 0.6945149012160946 4.885518911826 9.521211227509133 1.188900470376101 -1.9421074554676487 -0.2959036348467033
P 2.669943970638205 8.010009952533302 9.95097691756865 1.2470536816780653 0.2186278437826751 -1.040802614293188
P 7.031892275697469 6.261145066838654 3.7290429543562875 -0.5375901602210548 0.1982107135789038 -0.357868506585274
P 8.649738007155579 8.26381153975235 1.474803213124807 1.6247315096797825 -1.8551805144671019 -0.3756021764196112
P 3.3993014209315224 2.818842151214563 4.45641946850273 0.18786793689199902 1.9151342693129147 1.9583205748924017
Ni 8.590769080134368 6.666487332237741 13.561635042224022 1.314073342231724 -0.637255888944509 -0.20313154791928886
Ni 1.6804879175596157 8.393368886803874 7.657622589467325 4.480704416595722 -0.3856024821654327 1.4556421389468674
Ni 0.3621083808463382 4.480692027165219 7.428024218775066 -1.0942036556221477 0.6132163314968021 -0.509277943539923
Ni 8.857698820341929 6.342434665107999 2.404101215260529 -0.8007929624006273 -0.29155075719464624 -0.1727457365385799
Ni 2.4978442862791495 2.355758502007324 12.980362407996425 -0.2020892226977036 -0.008661789440056052 -0.149768044696484
Ni 6.5458507572383695 3.614852386809305 12.51285304383096 0.05855250362291207 0.17189650116440716 -0.09140914514161677
Ni 3.80919777794547 4.512308292820639 6.993800953857137 -1.0435405820496415 -0.2735725754496708 3.2111412409612305
Ni 9.115351707259961 8.307094151211267 7.0988973940127185 -4.548382793779303 0.8788351993170349 -1.4790584609882786
Ni 3.7785466798545153 1.0702864939628978 3.486854300755131 0.47716743615862334 -0.800106477856564 2.0610487445912633
Ni 3.426232407147788 6.889309851805093 0.01878328527157391 -1.7723493408024829 -1.3353340513827132 4.053835471581334
Ni 4.354854791988384 3.120967710569058 0.5357420256937729 2.67446665057591 0.16604235637647533 -0.4369253008091249
Ni 5.326591118228087 2.957826280497668 6.184520132778931 1.7832665019356193 -0.025728515114355692 -0.8088292024415424
Ni 2.8830585912076265 3.5006159035238187 10.214877156090852 0.611632789059766 0.2541813154072526 -2.1186041744082287
Ni 2.0611762425498683 5.944082836632131 5.655363735864835 -1.1719144773410655 -1.3863105424305802 1.0843380756819778
Ni 5.1438277378655135 8.259772828875798 4.24854486445806 0.5077077708393257 1.1084925614409942 -1.2373403110450432
Ni 0.11161366385544724 6.795079511724801 8.863643502894329 -1.282520250015791 0.9838362242104735 0.32000541299091345
Ni 3.8253713625694346 0.9167020968914966 9.730279640754901 -0.08782836976889391 -0.05474007185535734 -0.698099759704759
Ni 7.586573137940196 7.763695441858027 10.812963384113802 0.07955584534745654 -1.2299625305237334 0.4896881943334535
Ni 0.7338253327664962 3.6917284518469664 11.363515578114747 0.16231322835134626 -1.1521424369204607 0.06495532182546232
Ni 4.8565545143331414 5.380640501838184 13.220343357925852 1.918082039087329 -1.6124850882122619 -0.8549907885992695
Ni 2.0244061695113773 6.570495327088326 11.6922722658014 1.8092649828819098 -2.2691821166005175 -0.24923605558683526
Ni 3.543130129154714 1.5358252295962542 6.412830051625421 -0.9666581697692901 1.2218201039222572 0.31828843029980664
Ni 6.442474751692845 7.773928092153142 7.328907132239735 1.2961571240729355 2.4038834967718667 4.000776901193459
Ni 5.409201965299275 2.810033825868951 3.4848789869435834 0.3903176282529149 1.689509682497432 0.017986152164775473
P 7.426289728326691 2.008785447861233 13.701963846706166 1.2492015812590034 1.3684223492962495 -2.3626442876164213
P 0.18982878175681928 0.2599861560787319 9.497910395802323 -0.01376568632552468 0.267532539903178 -1.6185212671040126
P 6.49986005426362 1.7553774241150752 10.542220763498657 -1.53990156041758 -0.08744758939070746 -0.02142500264299536
P 8.039770847530818 2.88148433731607 6.800463834856278 -0.10892427120724467 -0.8466010218736774 -0.03073753829317287
P 3.468868450044102 7.040494448747759 4.662675777029117 0.3713135763465863 -0.9099324349424716 -1.9555144729021745
P 1.4192929593855816 6.297961992671536 1.247406923768952 0.5521762855653458 0.3322742030559374 1.3380393661290182
P 3.1897288716181027 4.334689349282259 12.061541627742542 0.05338072961398549 0.7516607236503506 1.8894345505539651
P 8.204214785286293 6.2831658802026835 6.90195260984371 -0.30481739239656536 -0.21580297273937027 1.0078390148829741
Ni 2.9563551027537733 0.10740159763964655 12.174359408413853 0.8492199475537633 -0.30460090551038504 -0.6987777596083902
Ni 1.0806222204056746 1.3020485267001576 7.685669609245997 0.702980484835828 -0.5380329041854283 -1.0625415486321765
Ni 0.4175661594558447 2.625499409878377 13.861507919224174 -1.2844496058280201 -1.747532281758803 -1.0814805516285246
Ni 4.605732764837398 1.9666928973798614 11.816061096807436 0.0533979560051661 0.8009747393941302 -0.7590667863064348
Ni 3.986179523480125 7.042668418407527 6.793195092334372 0.9722760301766997 -2.449692841796497 2.66793630565656
Ni 9.085187878230679 6.315110115418845 4.907127420599385 -1.4240291400272764 -0.9647504112236159 0.8555402333448363
Ni 4.503640525858201 9.093743198486576 2.021103047506773 2.9487326525481796 -1.2609157843721381 -1.9366520887800327
Ni 5.393122086264094 8.494186729775619 9.448976400283899 -1.7466408802927855 -0.9655052871117694 -0.4134411016442557
Ni 2.4998214742024736 3.6675992627353162 1.371818896940396 -2.499716996233424 0.4043316831438198 1.1687376222749808
Ni 7.427582865451898 8.32704407106319 4.731770529974228 1.5632044968095788 1.021393099418325 -0.0596832747932456
Ni 7.381039299503329 -0.0398820356419784 9.229964887012356 1.8696542826032445 1.8395371515028898 -0.7173151562909453
Ni 5.543322774524537 1.140818690639943 13.895520236784776 -1.2888629044043676 -0.6817285174355873 -0.3774651977702789
Ni 6.937230889908775 4.590383789394725 7.618151921360104 -0.7050589646314116 -0.29333201746478516 -0.5486042519433714
Ni -0.12243103702456917 1.385455871276002 5.498398441150139 -0.8774509173749984 0.8285539345639796 1.2715732640859843
Ni 8.588417069855913 1.5868760343652915 10.998579162598933 0.11489257297553761 -0.7790329450157164 1.5115633755945195
Ni 1.2307573147539694 5.035766452880834 13.299902213970375 0.24672254513636221 -0.8984552875408075 -0.12906475071086163
Ni 9.397920910235422 4.0335008458155945 1.7344370361897141 -1.3673044336417226 5.058511001134663 -0.9816813826509997
Ni 8.231867304536188 8.831245732628458 12.69690581309519 -0.09830510093050167 1.0258007415677173 1.2032461975748114
Ni 7.262642288075872 5.9442046538975495 9.465831224538315 -1.8765294124565233 0.1829877259815623 -0.4749902260016465
Ni 6.229004049886048 1.9977281883848264 8.322020514448528 -0.4682788754197419 0.5867411680244088 0.7853108076046282
Ni 6.429271634233305 7.405693239912164 0.34382079813942684 -0.9506173142563433 1.3669141401818394 -0.6992541850241764
Ni 0.784210827855173 8.142697066250184 10.95087926968478 -1.9308869041614813 1.7919005234615335 0.3748884381820382
Ni 4.321889165854486 6.4971332216300315 10.459492784441492 -1.104383424368627 0.977573274019897 2.886478274593648
Ni 2.759845112516718 5.550969150569238 3.057485922392054 0.7922982946660548 -1.0444702929527625 -0.6070996770761028
P 0.6311708602546018 0.6218134201587208 12.6399759196859 1.7474500064576421 1.2232396099776028 -0.32109941738604053
P 0.6657632154097738 4.05538110079645 4.1656388447822055 -0.6613203860928805 1.2325773424387612 0.30183696961200274
P 6.376149935952161 0.9213320900332701 3.823702466033207 0.958164273365666 -1.0417431238295864 -0.28617972269072006
P 6.730319579316795 5.791642584799771 11.791936592975224 0.8598977389825836 -0.15725355444025174 0.14078152492715754
P 5.00861057325149 5.608635569906363 8.85113568090356 1.0183034047494075 -1.3979033894745023 -3.8683450337825764
P 5.28447045607008 4.6678970524361105 1.9657502191567031 -1.3341765407395023 -1.3700313456545825 -0.0658390099819963
P 0.4975073343026015 8.62398771135798 5.124259199759938 -0.39886783181577107 -0.5801681427925816 -0.5725270813075559
P 4.476662686847545 7.8561547463103185 12.484902540808736 2.321031240061325 1.7660097717377004 -2.1832350230147366
