# total energy = -340896.98968736833 ev
CRYSTAL
PRIMVEC
9.03874061246787 0.00000000000000 0.00000000000000
0.00000000000000 9.03874061246787 0.00000000000000
0.00000000000000 0.00000000000000 13.22911053625515
PRIMCOORD
 96 1
Ni 6.214305779301635 2.0822727095386107 11.20751659356405 0.6366809902776454 -0.6004068384369594 1.5061594309701287
Ni 4.671437982196547 0.3775518031119736 6.056604163457987 0.19243421610644276 -0.11529315084806595 -0.4151354586275431
Ni 2.861665219036707 1.5920385450253645 4.971962543267748 -0.1916610853858441 -0.4722031501748126 -0.33748762893607687
Ni 3.365665385219546 4.284688356826546 5.053877032257141 0.44638078979506995 -0.25099134771504517 -0.5675998192092676
Ni 5.23308723481974 4.48844868226162 2.695656096867042 -0.2899201635697588 -0.10064403347632345 -0.6777785316489037
Ni 7.369574309436627 6.065907738979004 2.5108979154306446 -0.10748933853293101 0.012969929897106696 0.03953302509761578
Ni 5.081525635347828 4.340430269036903 11.530293629691302 -0.1573833951498967 0.7826630855691359 -0.0860980173413485
Ni 5.637977612225771 7.681374699189913 12.362682985932222 -0.03778750316141879 0.5679096371402026 0.1406282871787449
Ni 1.847527581921421 6.377382734076936 0.566274376099444 0.5752737908147577 0.4501574832286828 -1.1230964273970978
Ni 2.9531282334126776 1.6070157379121106 0.5181141593588521 -0.318822962647038 -0.19441242287873614 -0.2487801989963393
Ni 0.4212749021771861 9.088453498867368 4.617342928491902 0.40032050510189765 0.039163557573339 0.34853668766138685
Ni 8.6485831960107 2.2990307437070228 1.2912699379626482 -0.11121126746920847 0.42994347017465306 0.5424896544052011
Ni 6.995442765702049 0.8313345352331444 4.82681302625441 -1.9130110523223247 -0.045068867314180444 -1.2039002862190429
Ni 0.5878435223792522 7.5524912994481435 2.511665304492856 0.91049704919669 -0.8880122378306127 0.07304066993675808
Ni 7.64713595045425 3.909345621874814 3.720952059038869 0.3550256378198402 -0.5007459948095118 0.2544165713465102
Ni 7.674776418678553 4.006575352642906 12.50472408011288 -0.08287179709456695 -0.6680736456563139 0.015265410799502742
Ni 7.950448962947031 9.005233815760384 6.746185036456037 0.7304810042489419 -0.728543678016913 1.1966117229774293
Ni 7.076529306068374 0.6154478356418489 0.30292163503231356 -2.057885002151301 -0.21121175382426202 -0.15389697926319304
Ni 1.7753080459135142 6.533038882962063 9.125003453530093 0.11717648391370787 0.6832212999310298 0.6177139622568394
Ni 0.2162039593802663 4.790396844949997 1.2930596085670996 -1.0622741539034026 -0.4120696752180258 0.031583431233235926
Ni 6.475751346138769 1.8749782365967669 7.087430027022759 -0.8554219625994172 0.6767511188256539 -0.4951656725082568
Ni 3.4458661290240706 4.354322813072467 0.6373848586570166 -0.08208401108594897 -0.16674375331887412 -0.17700708291809517
Ni 5.931203390402555 5.47058917826702 4.807141111590128 0.7363809146731447 0.9159192486535257 0.22310541993805447
Ni 5.221156097456732 3.1715945895217024 9.18196830732016 0.28013223094505946 -0.8889074959513723 -0.3391200223331773
P 0.3088492410040264 5.471954028071424 12.273783358341213 0.7513241662465383 0.46772608824006545 0.7855766596715051
P 4.095823875614379 6.09003213717739 12.66371100484518 -0.8753315570391506 -0.21650719789524647 -0.24874780309650707
P 2.447320319144535 8.385167183760583 1.3326212715399413 -1.050469705069307 0.5125327030317947 1.1743050890604292
P 6.342773396983786 7.91428496250052 5.732477643385053 -0.0990401793243133 -1.2202399039193308 0.5631479540855011
P 4.768468860675256 0.9954635993940922 12.636022631296616 0.9806490847317433 0.191387005788851 -0.17737732177332033
P 3.9965333120290403 6.352417733018883 8.154820307234939 -0.8647249851678979 0.03147827311393933 -0.1131845891454954
P 4.814042189905777 0.8901704082915007 3.5743997295113346 -0.33648335604127855 0.37399446561285915 1.2065786043821543
P 0.25399131760738214 5.545104554343262 3.5819931753436554 0.005303671601100544 -0.26158609251175596 -0.028521761588776687
Ni 1.5193580332557048 1.0473550081827523 2.5882487443786872 -0.1903346532649367 0.36318271970933586 -0.1355045927989344
Ni 1.7822769147823623 6.454465112434311 4.896940093853577 0.14098772740069268 0.025916205645129555 -0.7544357152923264
Ni 5.860764486258673 5.7015470736454965 9.105953404207156 0.7762345563349728 -0.2153041787260808 1.0479518237434597
Ni 8.577077720496488 2.376556020345298 10.218244531362124 0.7487327513702783 0.2645055801513961 0.3804057684558416
Ni 2.229143202729159 5.260402308388688 7.071065387480542 0.45500992622497766 0.16767192156009833 0.07657105168751975
Ni 0.5546062660828474 0.1727710038827452 9.361566271847057 -0.9695822853946205 -0.9204490182030793 -0.7115815962412777
Ni 1.5576642151833031 0.9177485092068605 11.376862818699184 -0.5232300348446408 1.3660667045798796 1.0440090370456279
Ni 3.9940115034500407 6.791709556488255 1.8260804586373707 0.3325490539838789 -1.0700563689519829 -0.3075733578751477
Ni 5.672270593403994 7.944618975371925 8.00932641421135 -0.31017171472994326 0.7169441461047716 -0.06155683766687463
Ni 5.2702816516748765 2.9112517490166034 4.657916930392513 0.632139650763866 -0.8213070231935791 0.701862826291617
Ni 0.758731756631153 7.483878220870418 6.935797925375519 -0.11122129477153749 -0.18330679988387788 0.043558601317241104
Ni 4.940322432404709 4.831577346333229 6.926576602392382 0.4682860745085935 -0.38628356739285735 0.4402253117166354
Ni 8.145866530968426 7.280877149631172 8.951808532721344 -0.08698607637325664 0.8370442314231779 1.033362355965059
Ni 4.5602524362099075 0.21056107373198896 10.455614509199176 -0.09485750870153341 0.0753088971456445 -0.5178723700771531
Ni 8.203018486685322 7.044107344158442 4.787245036163268 -0.42288502066597494 0.182475305121518 0.18574600545298978
Ni 7.178305523271005 6.205429736202791 7.0961605464007365 -0.1696843240044368 -0.3751674028750377 -1.7666939422889187
Ni 2.2448886885521593 5.0451989375736375 2.6514051353609207 0.28349626232128594 0.3242420767800803 0.702032776210578
Ni 2.4797151648331877 5.138225654043397 11.442439784367641 -1.1146336413417253 0.03511484142526211 0.7505376657895009
Ni 1.1771242044863215 3.2144743741051203 3.9653333878247734 -0.5521616302773265 0.014009169794898454 -0.26112997881094385
Ni 3.6022544158837455 2.642774042127636 2.879778854851456 -0.33151135674798393 0.19812201051983944 -0.7997277543609066
Ni 1.0948535891241227 3.3578468747506047 8.269370976282373 -0.2898877676699265 -0.41505035511290456 -0.586261657284829
Ni 3.7117135624489213 2.906849882428888 7.234722629391225 -0.09662925588997552 -1.3090740892449197 0.1231129040028009
Ni 3.9919868255945 6.880081321638356 5.9307559727514425 0.38866209492736287 0.9728786967577051 -0.11231607049761301
Ni 0.7920295724884155 7.487050818760127 11.569703441824979 0.8505499792190965 -0.373340376968628 -0.4212500561657132
P 0.10200670508350838 5.628685787067306 7.963580445038682 0.3478316911745623 -0.632469266189143 -0.016792131856674306
P 8.493180131857514 1.655174146904617 8.100408897615365 0.7141742966691185 0.2946023995367765 -1.0254189327482663
P 1.8962463928203719 3.2195451074843993 10.392577429590572 -0.6834149039990747 -0.39341246512815475 -0.1475142156653008
P 3.980082804452771 5.927660204155359 3.928265513335609 -0.40936178936855955 1.3591638068124594 -1.5847045756648837
P 6.9354526454912255 3.963541909472237 10.354305594876596 -0.3122885039626299 1.3635426526064454 -0.559872625768339
P 6.306139382035094 7.833559971751256 10.197037838573419 0.14218354748100676 -0.8813957609553594 -0.19378018861137594
P 2.322585701258538 8.528033514942182 5.68587118612378 0.3140273410306076 -0.12328825323840056 0.42749989373016695
P 7.059952256126134 3.9476698812832653 1.5050623613971186 -0.31817581598134237 0.08095118303308639 0.05904332721640154
Ni 5.300642780767562 2.9462407132076684 0.46449815889681195 0.29614043344785773 -0.539802080270709 -0.7080427298500838
Ni 1.394533027965443 0.8713119802656062 7.060613891925355 -0.792218847578371 1.8964446633232113 -0.2583976674814453
Ni 6.900816192176796 0.8443485136992499 9.277733762139155 -1.140157496644443 -1.0917544227507068 0.04824417971836853
Ni 2.6050553783277617 1.4692924500332025 9.155681842411749 1.1511517908724176 0.25545992500936004 -0.011500544440431807
Ni 6.325626906394674 1.927565628398269 2.394654290301322 0.46488321947463157 0.4064569570169387 0.780757898126623
Ni 4.0411123798126445 6.773704385558624 10.42915540434862 0.11947247903673616 0.5428107851900458 0.26505913866202097
Ni 8.290712346303433 7.175738520989874 0.2986336565739718 -0.2872467305026537 -0.2892781591103856 0.10229853836061092
Ni 7.521642078372425 3.8767428851563506 8.085327759213714 0.8791457885789182 0.102788590623152 0.7429860786944882
Ni 3.1532549851962903 8.408179816886507 12.52460750130314 0.3501870787806162 -0.7919969613755522 -0.4953631332310436
Ni 0.11222138563952033 4.769210037390231 10.034015116240678 0.02800856939778402 0.22261716744772628 0.7112062151797299
Ni 8.538961352117846 2.532636990030471 5.807261470051965 0.5835805109082401 -1.064612315118276 0.36456160233473345
Ni 3.6381472541174626 2.382901216124716 11.332333463987927 0.2695058615794648 0.659346035975329 0.1616462841913087
Ni 1.0420763837736637 3.1956647552775292 12.589549043519613 0.5196022082840664 0.17137842387740806 -0.5602210102466932
Ni 3.116584815285893 8.44496749042245 7.849175299712114 0.5030113938049208 -0.7634916548470077 0.6396459864432403
Ni 5.6631233880923535 7.720042430734572 3.628943104741136 -0.28761876913009177 0.5297801772583327 -0.18457872461776598
Ni 2.95985305629001 8.304713355224115 3.6078168567422275 0.9969208253085733 1.7226391180615495e-05 -0.19319654819376403
Ni 3.322270392431816 4.563253298031512 9.290949304516772 0.21563070882756413 -0.32021367234697756 -0.385931069149445
Ni 7.52381137607479 6.177689841833796 11.250392762651297 -0.8710617260192031 -0.10421041067134311 -0.22327099898164127
Ni 0.5615733272036102 0.2098397822459525 0.37005236018008875 0.3713575422106443 -0.535633036494684 -0.0782029308639879
Ni 4.684471845891592 0.02090208723633097 1.4652430943221209 0.11299818416630217 0.7241599471269207 -0.06184197300746124
Ni 5.970006703053612 5.545791498615679 0.4171351590618393 0.23036210150046776 0.47568750917898717 0.06415390897008952
Ni 7.882558983603428 8.762308628057193 11.377087883335806 0.18414549373508932 0.5864318643141061 -0.2406280022028501
Ni 0.11321835870856564 4.798450362670028 5.877455424330288 -0.545152545949345 0.5700156277396119 -0.22078294245246494
Ni 7.848799288110371 9.036941717176623 2.453258771604759 -0.0026405229466406137 -0.6340597506047144 0.38266525391397965
P 8.469715561710265 1.7354833555942606 3.5824035341590195 0.7625550019653513 0.6580327164805442 -0.157547945752219
P 1.7381859389817904 3.075033725545173 1.5779814959140381 0.4488266802324012 0.5792440883164153 0.3396681815271634
P 4.757034854035706 1.109975401857693 8.265309870208737 -0.47152566449181377 0.14778392438691967 0.019388946049573058
P 8.440484275170894 1.6906783192999935 12.308271576312649 0.24720668386163233 -0.3152861531383731 -0.16744823558506644
P 6.348259912422684 7.629302515592723 1.2976304996007915 0.5764374721055557 -0.2839896570179367 0.4842469687132241
P 1.9009555765825896 3.234178828234937 6.12409914984495 -1.907721007567979 -0.8488661637587702 0.298250280702009
P 6.769022318017686 3.8794816235055865 6.053071823699302 0.19638651588597147 0.24881336622711986 -0.8738621715824756
P 2.3894633416743702 8.364323848337024 10.213005677410912 0.5657915623559352 0.06993272043539568 0.03830738022063081
