# total energy = -340892.86566350155 ev
CRYSTAL
PRIMVEC
9.05438608078715 0.00000000000000 0.00000000000000
0.00000000000000 9.05438608078715 0.00000000000000
0.00000000000000 0.00000000000000 13.25200926060725
PRIMCOORD
 96 1
Ni 6.367008073815821 1.4783096152593431 11.35565971118513 0.6174244560408786 1.2039504227306879 0.31615570022752004
Ni 4.64949063271256 0.6810700154887381 5.984528169837179 0.05058285515387417 -1.9358198226867245 0.6719071604697913
Ni 2.8339594622947732 1.7777743804647546 4.844192529219516 -0.7638752634386715 -0.27221143343608606 -0.06588580405953169
Ni 3.395313290474162 4.362475648366961 4.957589660483729 0.6400545347355686 -0.6480750910472 0.2424987368630017
Ni 5.277267437173828 4.489653555244725 2.7850558176388214 -0.3181485622878327 0.03511047054988792 -0.6551700502207685
Ni 7.47898628266996 6.058977859378858 2.496016272565765 -1.2178924867330767 0.13584963484317894 0.06334015481954254
Ni 5.098253169988842 4.7589672148041915 11.203738883466922 -0.5545082761326321 -1.1325159209387852 0.3968086352938972
Ni 5.519635243759619 7.766291007370114 12.240032384518088 0.05859389838380877 1.009326655172094 1.3464551009965393
Ni 2.042361650490531 5.947464040419257 0.390024018460384 0.2190050246164357 0.19277205906183575 -0.1972267523990797
Ni 2.600700368105325 1.5840105183556716 0.2581849136287049 0.3817653678075296 -0.2812352342012511 0.7432714711453908
Ni 0.5044678367554289 -0.09149094958259055 4.7353669574870265 1.0043207173170703 0.9092045556375116 -0.39488082214356507
Ni 8.3822790011554 2.216178700065674 1.2544127562764742 0.6495912705814102 0.9886506148799812 0.25259931563211335
Ni 6.745553847042761 0.7039957210429529 4.6014154643829155 1.430604479251949 0.37234895958963615 1.4615145385672441
Ni 0.9690185070391709 7.173310208613762 2.375250681909759 -0.28684615263012536 0.6437836627606978 0.2155486906367191
Ni 7.6607259200649835 3.891964475726844 3.7733773703616538 0.2846483736478582 -0.25664726044924185 -0.023113188978695676
Ni 7.85224429442626 3.83046708547241 12.450037098938623 -1.3482846980061103 -1.0835983693024758 -0.2713773675705649
Ni 7.7786774075273675 8.941115710004587 6.828773614941397 0.3540771578636418 0.9908203688377905 0.3087383247175264
Ni 6.622894078818849 0.4132322208602906 0.4167290247643339 1.5401368163568379 -0.5848591205103476 -0.612114870902507
Ni 1.8605133604625488 6.790056154625292 9.043223832704426 0.21893637616202938 -1.2891621808123412 0.9612336563196091
Ni 0.19563087651875066 4.894846386704705 1.4932493522911183 0.04039100222253689 -1.8743745708970494 -0.7400889596523512
Ni 6.416626109533474 2.2216566036439915 7.160087183182729 0.2896021181087077 -0.6857047284745158 -0.07790648266949164
Ni 3.947241502744412 4.144038584190249 0.40710602323865475 -0.7815945350953055 -0.1751890558727499 0.3067068961097944
Ni 6.200144792750013 5.707178742631836 4.673016644063869 -0.6828572317233916 0.24482969898902351 0.8774416614036179
Ni 5.091652522536622 2.8584968485712037 9.491300952954465 1.0860632859032004 -0.6966550568384324 -0.3289165994376142
P 0.2049922062867217 5.423369010958508 12.412693188990833 0.6322118987626983 2.3972279391285616 0.455410504097506
P 4.146347452640614 6.087137000087235 12.690441914622298 -1.7328263430071964 -0.04628088534441061 -0.5838131957443364
P 2.329494341855168 8.675441913649227 1.570098454143961 0.5383625196107051 -0.1718157685251428 -0.8890463355220819
P 6.28936671318099 7.804907964000733 5.812158916596207 -0.6378924940872434 -0.4526198287262463 0.2515701030366506
P 4.469598090077827 1.0301446674643306 12.435062955239742 0.4083323196627806 -1.4528720324008977 0.6334838234965865
P 4.131009322621325 6.073066484119127 8.090815596928763 -1.2084398259606093 0.8444896319576295 0.9821542085223602
P 4.789688746773169 1.0928281822952268 3.8022662945880668 -1.1566835193239242 -0.7257751141328403 -1.807847276598777
P 0.30156719365315576 5.5208394771082405 3.623020235119437 -0.47317168473566895 1.0235597680523405 0.7231253352148191
Ni 1.4258575566986929 1.3484425557158584 2.657160803383531 -0.17551944262897515 0.2759647298309312 0.15364886780812892
Ni 1.9938120323303021 6.477027919072245 4.828117372173326 -0.9602540660151592 0.5127345346299557 -0.5227047584687902
Ni 6.043349989005014 5.844162549634093 9.196921130971504 -0.4348069689145415 -0.4560221695395759 0.2859889468361526
Ni 8.64137931321678 2.412993890283671 10.12819280788233 -0.010433022407865904 -0.14479244585876352 1.1474902828604303
Ni 2.153947904538771 5.461062420208981 7.127408092943285 0.5726921461305106 -1.0660408200346867 -0.6355782441317699
Ni 0.4964818682329892 -0.10151687128882361 8.906290730264214 -0.07666721094575184 0.22710117136100888 0.7217567370020666
Ni 1.2245876085294032 0.8724806426556643 11.580665732462784 -0.06311878283735582 1.2601051155453846 -0.7319514181468815
Ni 4.036879924935063 6.871645227590943 1.5578533024095536 0.6300987090744374 0.11962006035819397 0.579775278229537
Ni 5.3912259403749925 7.943150330668091 8.00846776640962 0.08005309669884923 0.5688051523712785 -0.1666437374059001
Ni 5.3553434083404925 2.8421536816970496 4.789501320981316 -0.05883506786033738 1.4611008480685934 0.6670444330608513
Ni 0.6300974436135375 7.5146424550524635 6.76517741799365 0.4049945135387993 -0.2640448384648936 0.1794429460530974
Ni 5.233208794509212 4.443974177471813 7.262830018346765 -0.11879216514025995 -0.3104149410890009 -0.7347454359522507
Ni 8.46260951445595 7.060021729982507 9.69482544325764 -0.501284126701169 0.279655291308641 -0.37640487482656465
Ni 4.609524572556041 0.2526590218041641 10.319074658902192 -0.8529711870660793 0.32682834945001776 -0.6966134049672196
Ni 8.12711734703876 7.238076232243027 4.6575110079021025 -0.24118541736821686 -0.704008154769394 0.07363253788448608
Ni 7.316885608682161 6.52249904596532 7.322172464714193 0.2961502036398706 -0.03512204051411371 -1.217540759820613
Ni 2.570313848421302 5.00149800033942 2.6923180790930337 -0.24249205199478233 0.4394802060204947 -0.5781547119069784
Ni 2.3279550962215914 5.413490675745377 11.282999168332832 0.0926990675976339 -0.5789887777724997 0.05013548320381043
Ni 1.087567583982826 3.6013458457214598 3.9673205093151176 0.2682586194359251 -1.5965650745478956 -0.2689350766776594
Ni 3.549111092426726 2.5877073240807205 2.5559019820979834 1.2788237750008105 0.17678776781843744 0.3534552080089267
Ni 1.049050225599086 3.32500598256402 8.140125783519702 -0.8379580014866989 0.5491619242190542 -0.2778686317218634
Ni 3.640026183054637 2.5656055676597735 7.154601130656939 -0.6112792623750891 1.1037748442503506 -0.3935806152749028
Ni 4.126328205018035 6.527859242524599 5.959919253910718 0.9272698977796547 1.5905324952005704 0.6039791291692501
Ni 0.9181419116564168 7.537405181657239 11.912800533521558 -0.3453120100765021 -1.391427037721539 -0.2430229847975879
P 0.17129993024494097 5.766992017075415 8.067598340142778 0.32938274044075533 -0.36525220064385483 0.3145227926097873
P 8.410646392743613 1.6947728232706443 8.119744360453929 0.2933839537486431 0.41475339269777606 -1.532157654806103
P 1.7800560857568801 3.270779264331716 10.329450985349718 0.023540249213785266 0.4417576892007618 0.5693581966612711
P 3.953796878266233 6.2151750736425875 3.8186592605856595 1.347108675420138 -0.037676688615167375 -1.0433950576107127
P 6.954375153202658 4.0228999528277525 10.263774090480817 -0.3660371584389954 -0.27798253159190833 0.21416440869468278
P 6.24485535121238 7.714898311980808 10.20284078847916 0.8532334395885306 0.3997245233891116 -0.17451439840322847
P 2.4290292080311096 8.481795758559182 5.8722039833234305 0.1349096395274128 0.3440663105948591 -0.14610885067734194
P 6.944831830274481 3.9159223812941635 1.3058163169290762 0.2686473702339115 1.0524502258344455 1.640562563174768
Ni 5.751798757233403 2.4914682544378497 0.2328453087455984 -0.9069923784775411 1.2477499364141413 -0.014664286880394098
Ni 1.1841326115245723 0.9760447106371452 6.977381442792984 0.9905324052837263 0.9101077841780714 -0.85069318966518
Ni 7.109983832371195 0.5366706662870722 9.34974287010466 -0.9893720664270381 -0.7764505290005208 -0.687288528021868
Ni 2.4581209505057116 1.659442608787016 9.115036885019647 0.6691062006858863 -0.46913171033834045 1.1468881305000571
Ni 6.437052804529647 2.132498063915574 2.6013694872366266 -0.9438486280739422 -0.7166929493259141 -0.04696865544005459
Ni 4.042629460095776 6.951876142644616 10.531305846859766 -0.5586559797524185 -0.13905734314719922 -1.3106293495471815
Ni 8.342240505910242 7.175247847234853 0.444755065997336 -0.6403576677982843 -0.37851806451482556 -0.07296867904824207
Ni 7.596104766612996 4.256693255795914 8.120526659411228 0.8759478504669108 -1.1848556108827657 0.049205000969741064
Ni 3.0646471108375404 8.14848569818724 12.649573132173618 0.6509773522956596 0.7158172315891801 0.3060345526331181
Ni 0.11386795934036566 4.794659604731014 10.281279840527626 -0.32632029946534763 -0.13207242718893383 -0.43186048469170785
Ni 8.70636264211196 2.3484994982368024 5.717261706970371 -0.6140113165942717 0.15610709954063437 0.08769467240450703
Ni 3.571701785695986 2.707822809816192 11.544567706039581 -0.15441917031525018 0.9122721388192417 -1.0069319296876722
Ni 1.1913580116163034 3.439100301556383 12.528899896255627 0.25171177082083745 -0.487987923812895 -0.012849859379474644
Ni 2.991487671312241 8.633130767498024 8.168869837568836 0.580155287276775 -0.33072254229810144 -1.1301196527924666
Ni 5.620193255562585 7.970911078388954 3.7360062972556243 -0.812101188324595 -1.1091211961639287 -1.3371366518090908
Ni 3.1681749612747017 8.46994356718064 3.605222028402249 -0.28282931816124834 0.1174374508845784 0.4401335233337775
Ni 3.3846291148999224 4.375839922220839 9.255654217155755 -0.44343096313812663 0.4599071064162789 -0.19906740515224425
Ni 7.1803726297560555 6.098934865149297 11.454228474366351 1.070654150436982 -0.5756805393348731 -0.15454823969394674
Ni 0.5090249092694243 9.358613452147102 0.552018756131049 -0.05240165353016782 -1.6470677112831378 0.1729570812184376
Ni 4.510514860772732 0.2813976432216514 1.4641349738513165 -0.39519501094987425 0.20387922471859082 0.6096797790984533
Ni 6.129402874308038 5.547151523056324 0.15903848061558956 -0.10404251763491114 0.5443403344606947 1.797457191613704
Ni 7.892228463354938 8.520965032740673 11.620461570160998 -0.46572345598773984 0.591726279943826 -0.3765339442052612
Ni 0.05801688424533453 4.887141104150741 5.898151137512496 -0.7255511710474924 0.3068989575159424 0.05394945763326192
Ni 7.869320866572883 8.854112114163176 2.4428887568035567 0.778516410390614 -0.7028452448095444 0.2986169200128083
P 8.484086518237387 1.4985371137617587 3.584933865513099 0.43111023678924465 1.7097049264983846 0.3125877803706036
P 1.9307120157397322 3.3663845269489974 1.3782486892521615 -0.29316463864898545 -0.10359411724358289 0.037771305211502695
P 4.721310023098038 1.0665070819610631 8.208214766840277 0.21042551047754085 0.044732309910368126 0.7558253965510016
P 8.309536063389775 1.4900078820745273 12.431378725543846 -0.1948258562670709 0.45197088228833776 -0.6814878621796909
P 6.292943195682536 7.639891777695217 1.4890091832899182 -0.5226911316220353 -0.542403522449298 -0.3330686739327748
P 1.8056709439768146 3.3932669992201125 6.074257135888628 -0.1633892350243444 -0.6284927980398982 -0.07064183068727835
P 6.918184772041443 4.050235144402862 5.898376591725884 0.3957629676382023 -0.30228074201764066 0.3260595896047933
P 2.1027634600293017 8.42882759999198 10.349037433317676 1.4984386652871031 0.311742915871805 -0.055014922783298795
