# total energy = -340859.2048684568 ev
CRYSTAL
PRIMVEC
9.40451307426869 0.00000000000000 0.00000000000000
0.00000000000000 9.40451307426869 0.00000000000000
0.00000000000000 0.00000000000000 13.76445550694204
PRIMCOORD
 96 1
Ni 0.24637566989212661 8.42617092134083 0.21109181800106477 1.238155607857487 -0.6209589515566983 0.5172401358097931
Ni 1.5898517324718213 0.1844967956750523 12.498978666033029 1.0948670002377596 0.5118444187155184 -0.3739057625537947
Ni 6.421495524744365 8.389935332733693 3.1668841732669257 -0.18432007163974062 1.5770182627642195 -0.08428384695074516
Ni 2.2271767697748426 4.181622662413166 11.356542877954967 0.7663196112141061 -0.9832767521625777 -0.17404902873103573
Ni 8.885835303471922 3.9215220462419698 8.064319117166502 -0.7559848049470013 1.7592009763459828 0.029243727356465764
Ni 3.5169493012924558 5.6613475475998625 10.261498311810229 -2.230128345132166 1.5083104158748604 -0.7471448380578681
Ni 8.443117853775314 4.168399917128548 1.8453178046342982 2.1873081646428463 0.30386222757214765 0.023390868120114556
Ni 8.88169731774985 2.1798438558221496 6.744500107050148 -0.2630760467937211 -1.0526600278524065 -1.8132998150729158
Ni 6.70862471129109 5.320894772316444 7.1782870311974865 0.5124031194324659 0.3453089247527085 0.380224505682971
Ni 6.425144475790191 3.2427325111011926 1.487662294162669 -0.9798882953063189 0.33189907910470584 -0.485960351859905
Ni 1.5839174847658506 3.1274896087415063 6.709731622471745 1.118339886548719 -1.3929334470637367 1.6038173852349347
Ni 4.982811934310212 5.877811223429216 4.283099238636562 -1.2846563225221874 -0.7099774849789515 -0.17610256882595476
Ni 6.986734969866303 8.68138119074958 9.705716985417125 0.28114910224534806 0.30647858214907214 1.2157972947669449
Ni 6.062685140075757 1.1450088628361492 5.105195683394373 -2.3577746182289454 0.30464975647044956 -1.224119441479395
Ni 4.124198706006422 8.571160298334407 4.514149314136217 0.10574458792768239 0.9211583855652782 -0.021253252951821462
Ni 8.645606423279672 8.983087372453603 2.2689328075157444 0.9683319579272872 0.5696788132254834 1.3812130733030148
Ni 2.647793613910388 7.1255455818157865 12.60156497479098 0.8331914333359909 0.7926919305600477 -0.5638614352127579
Ni 8.62220799492396 6.658414016358957 12.54858559123026 1.092844570491092 -0.2224395042192814 -0.5630193989274368
Ni 1.3370490183922774 5.59002372097216 3.7202983837367447 -0.11447039783645446 1.052625060849413 0.3533518496618431
Ni 2.612705375889824 0.7886925550163905 8.960110266280502 0.46079645099976774 -0.24698325499691656 -0.2806942740961166
Ni 7.531434958585959 2.638690045321831 4.7308434005341855 0.9357612230801176 1.8773951028909281 -0.029506236989233055
Ni 5.461934253848043 1.0335653837303649 8.353716672249963 0.8070757100855456 -0.8280746809347159 0.43633060464791945
Ni 8.311407649144385 3.7361684994321886 13.145412914632411 1.1426985178987419 -0.6765852826717509 -1.7089053134152246
Ni 3.947299816387873 3.4821620076880424 9.620693604695466 -0.5289458542824955 -0.8344546163191306 -0.32394228615147436
P 9.324950824687727 8.017375550052204 10.08613894097055 0.2333458667191401 0.8357198561847994 1.1877822976112575
P 0.2679129451242074 0.09567022989428899 6.442287962546473 0.858548681153857 -0.3478373476015171 -1.7175997558654292
P 3.303993508813858 9.323173371729837 0.1534449746361089 0.18710611902531002 0.1091142757308637 -0.8664237130265595
P 6.658583297593042 7.188725100181411 12.70300957567016 -2.3585973712405575 0.22761359222105315 -1.3776500385421049
P 1.0410043535170885 6.0789549475739015 13.342423355311526 0.281602901953315 0.14433967459206107 0.7025467397325191
P 1.9833365565887853 4.304868805339859 8.478175056902963 0.23654997547873452 1.0950822015723591 0.6718732219080622
P 7.518513157717491 6.553525482817454 2.470912592866548 0.5719506399787956 -0.22922078880717295 0.38322241196903034
P 1.2557940260316043 3.313586112078659 1.3768169420839838 -1.246135283628854 0.1928795311739775 -2.297513616555359
Ni 8.976137437343125 1.882369704970245 11.523188967495784 -1.6904154821411534 -0.33214796189071827 0.633639118127528
Ni 4.335179550754031 8.246018070222654 8.681916307539547 0.29172276399613634 -0.8969769032230681 -0.6757584158950813
Ni 0.4526946975433023 3.5296736073878248 10.090598561037382 -1.2825007096317655 2.6002134483882897 -0.7765860261371206
Ni 4.004977694645745 8.626139081359927 2.250791501929663 -0.212557212108563 0.8414688428534347 -1.4321944494468883
Ni 1.5169667566853378 5.298888211885428 6.196166214505473 -1.8383531584971178 2.799274940003263 1.0447654555956782
Ni 8.500880372650228 5.204006080180934 4.501830342551351 2.8588209178876958 -0.6078995472695788 0.38324863722127545
Ni 4.856133144136802 7.198609243349359 6.195697869757838 0.26290506843349554 0.6139598945310458 1.1102601948643782
Ni 1.5266628095931913 0.9538809450414777 1.5103732526177371 0.6816079326973229 -0.5479522201816692 -0.45129699614976476
Ni 2.7412932822031904 6.866037449963886 1.2659114011220687 -1.0319752458095452 2.8922316321376575 -1.338670571955114
Ni 4.24198082687738 4.907660470889594 6.77189169162766 -0.2513392179727671 -0.02367214680595923 0.25447982048427786
Ni 8.578053806366858 6.505261522077295 8.993420110891876 -1.3288558998575373 -2.426464981616808 -1.259388034873702
Ni 7.341388559786829 8.169926155501566 0.6499496555605409 -1.4916869483855666 -0.35388406801622924 0.10564842866945032
Ni 1.1940722071817085 6.288186552902634 10.90469740793599 -1.3675656577229094 -0.0001072150018256218 -0.41625465983365084
Ni 3.7762693428842615 1.8573066778126994 5.107989764208072 -2.038448490693244 -1.2669208529156375 -1.2172340272134714
Ni 2.225888351493198 6.571854878663629 8.147235886975107 0.9618432648791498 -1.179355249889827 0.819659203177511
Ni 6.287189674524136 3.8855121659469445 9.031148195712861 0.43642059325856447 -0.3920148134496797 0.15685991854625891
Ni 0.1744057532210011 0.9483604959077143 9.320174272532636 -0.09638063021427917 0.4452397342120913 1.0446924362658976
Ni 7.05755095279175 6.9472266107335265 4.906477383153603 0.13103550128398722 0.6903483978941143 1.0627480082160279
Ni 4.697469605234381 3.1380790903848066 3.197042565570422 -0.3236918607035651 0.1348988408941354 0.1626464433210489
Ni 2.505841894617332 8.304373073416864 6.378572386939578 -0.2834996047553956 1.1967865579923969 0.8052875078368712
Ni 0.650862833773298 8.237826739395553 8.204193379536816 1.1384518268072459 0.21998795735499532 -1.5180307284864176
Ni 2.5474568646631632 4.600142300148662 13.54741728708034 0.44555803678345846 0.08483149192409907 0.5063083193886376
Ni 2.6968569582559474 4.050589582718576 4.826148735323892 3.6574366701313465 0.5906266191217442 0.020674754740532132
Ni 8.113000638284069 0.3474563161180238 7.880811676259544 -3.098460845145664 -3.043339478691488 -2.0149699479553296
P 7.45308596074374 1.9875309693888847 8.897481852376952 0.047970357231691574 1.9264754053573463 0.9519596872168508
P 7.1692765672876755 1.3920936330088307 2.490609404903607 -0.20984032739803216 -0.5833316281222276 0.7183456544379887
P 8.735137387084489 5.944207085242452 6.497758601602138 0.047027019481815785 0.8341908211347827 1.0972324151461426
P 1.5483308075560376 1.9074139231017813 10.528638205965448 2.9223631614157157 -0.8998357128281019 2.622670748950541
P 1.2157402051445547 7.941264826305105 2.6100025188522715 1.0901960771246517 1.8126493259731102 1.2218257603492118
P 2.398921986266812 1.1274788505953743 6.817727407110004 0.9468285366378726 -0.10990180462916556 -0.6590688710545423
P 3.051755065514596 6.582811136314113 5.240747631587726 -0.5927472650091727 -1.0575273832470369 -0.6034607947719349
P 4.354176667023541 0.45090689962110736 10.198883064224885 0.8335228485334806 -0.433572325176492 1.431953794190992
Ni 7.006531469741211 5.31363448827681 0.004234852206019811 -2.386942498042154 1.5255818013607985 1.6799091832931907
Ni 0.3494670009984303 6.347049399799099 1.7162766007941048 -2.0753253091149353 -1.3105614724237236 -1.0339776209515548
Ni 1.286227030114838 2.614257120535601 12.881066160839588 0.8709640240990743 -0.1063894206005329 1.239976977336942
Ni 3.6349383214495163 2.6454142721201968 0.8278520067166922 -0.47597907227747704 -0.8871509182715819 0.3456783922769853
Ni 5.367381280098714 5.756248488330366 11.390114168027871 2.0068776578654988 -0.07910435963233473 1.0418693649948056
Ni 8.202305893776773 0.054435202173848264 4.746864928889006 0.12206749345742203 0.018978083764399575 0.5869681964335504
Ni 8.737902313907872 1.8141211540950821 0.5158460023699135 -0.2781221424935662 -1.1911036486750068 0.8341437699469311
Ni 5.8715854358201 2.035700884998997 10.634225494823202 0.48687052237900025 -0.658462347818795 0.5224957277817776
Ni 2.833504532214348 8.071009487718051 10.417655547996894 -0.5479157105167789 0.6735616653540787 0.06857980595192704
Ni 6.464342485993813 7.587862036614204 7.735499724469906 1.21033318632858 -0.8558143129418293 1.6633047419672902
Ni 5.861080594793841 9.057759205710981 12.064572924929982 -0.34953864656333994 1.3023087454966282 -0.3266445155739858
Ni 0.48657163428885986 7.56951383174202 5.280444080980596 -0.48422408589508864 -0.4888088770522936 -0.04197094511514707
Ni 5.937106677923897 1.1784136930288704 0.6097284343420076 -0.9210624834173622 -1.5152621646023452 0.20901654594515617
Ni 6.774023694725827 4.593813062896493 3.4189251217930883 -2.2920417948075107 0.00841599197783712 -0.8820593626812874
Ni 9.125029687233654 1.898583085390361 3.2181161983113706 0.3387587823390166 0.900061969906295 -0.8588561850919466
Ni 5.864052420903328 3.4042268084180307 12.765445197057113 -0.9609752604518998 -0.41740188606421663 0.03605612229260888
Ni 2.998854679863116 5.049960157163825 2.1904474442349575 0.5354088362990198 -3.2690818220317572 2.21112609299805
Ni 2.018199086297236 2.8071154687231386 3.20001533213121 0.4948586827907993 -0.2652738257759883 -0.7401010438372092
Ni 3.7219112577170517 1.7816285616638177 12.217509115412536 0.0017869166970936965 -0.5035767793900876 -0.42766907231817963
Ni 5.387027307765548 6.626071896135768 1.9898858594452637 -0.31157168040126343 -1.8481212936274751 -0.16910839689630877
Ni 4.676553968311911 7.469214700546814 13.689369946824694 0.42194168291609907 0.6422181180457908 -0.22854176046227737
Ni 4.681745259490509 2.496117628170465 6.89067915493882 0.8216489799140301 1.7454589441695425 0.8160038658131108
Ni 8.821151063025543 8.902885685549457 11.813440452360073 -1.6074827499016637 0.9831633665131647 0.8240413914056066
Ni 1.5290609604093917 0.6700188863125868 4.054444492599206 0.31347403963029885 -2.4483805507429772 0.7585019149419002
P 7.132551944004294 1.5431301118644343 12.723517997179524 0.1207325766960824 0.35045884438476416 -1.560219960259958
P 3.486506892696217 1.1922853497108141 3.0408157359875205 0.7223527187148527 -0.4205149777719016 -0.07227139587090134
P 4.540489474159802 4.610600118609897 0.841144345397546 2.5374821307973394 0.07044462707480773 -0.44958798387845794
P 6.083779462745317 4.139659725386162 5.5586794195787705 -1.147879804989365 -0.976263811179854 -1.0407329373975172
P 6.387310119972252 9.028464147701317 6.31213138346392 0.18556011469442882 -0.9230720576482233 -0.0956406667244611
P 5.134130548555957 5.753972596183227 9.003826204531585 1.1296193161172805 0.6973785652680182 -1.2165863663271435
P 8.220484817414873 4.99075874779919 11.238691163687774 0.06562740819182246 -0.962011157915582 -0.6879721843524539
P 0.6032948069954872 3.4356660953927682 4.844771551975815 -1.7728080256064567 0.05857590066167976 -0.8545238762651799
