# total energy = -381176.4756415455 ev
CRYSTAL
PRIMVEC
9.14673947828216 0.00000000000000 0.00000000000000

0.00000000000000 9.14673947828216 0.00000000000000

0.00000000000000 0.00000000000000 13.38717779306146

PRIMCOORD
 96 1
Ni 7.8345026664958555 6.130080902201144 9.69871614354387 -0.6368416842252258 0.3520153902386066 -0.1481860449213448
Ni 1.925553342648432 8.437236224040394 9.31953713569264 1.3588105372380985 -0.09456954514746939 -0.9781854536825993
Ni 0.8434473908658907 2.7885939645695634 5.37596971772923 -0.5858780486931652 -0.3813740459063819 -0.13819808047069748
Ni 7.965182136215395 3.8808610294557258 4.34273388134982 0.1387953477350642 -0.19010196842884033 -1.3067966060646528
Ni 3.411596697231236 0.6124345896425674 2.111599856961401 0.4525280403433884 -0.39682329058191657 0.24925122509548686
Ni 0.28615026265094 6.832696856983548 2.4148728162816893 -0.15767033026269617 0.6828641737019271 -2.07987693304136
Ni 3.341834513739185 8.265332398611049 11.377388006308905 -0.3121437508546495 -0.10988277846577203 -0.381908064032981
Ni 1.9912360802459692 1.8652854749377823 9.988722671641282 1.0488653366966647 2.1033642175300225 -4.686989165432012
Ni 7.853610205674419 3.5567828960734182 13.144267367792175 -0.009421550424216033 0.4325888782173002 -1.914143366154555
Ni 3.09393042836026 3.0776400850012275 2.3140135472466623 0.22866285942117393 -0.7072449165391368 -1.0625248364616282
Ni 7.337057229336397 8.57250735707618 10.51292415169453 -0.19451218168139406 -0.6066484484712972 0.9442108965093674
Ni 0.7325706125401215 3.5946046646245695 7.773318295469891 -0.4171815425232944 -1.011702354493122 1.3151300656310125
Ni 5.173405106239351 2.601433377364326 12.43824150845938 0.9781679701811025 0.44747505130051324 0.10565485642735352
Ni 1.0479419644269414 5.1022160313581875 9.625769065297401 -0.11161441644489808 -0.48249810434291734 0.36560135645315744
Ni 8.604273983963278 6.564532743227161 4.429736754453011 -1.346583141933971 -0.49222818714648775 0.5453597768641446
Ni 8.886981413801001 -0.2787752464519574 8.95434898084645 -0.15355913630780005 0.5531365925960862 -1.081095914595596
Ni 4.441675079075251 8.61835081632125 9.159373150634615 -3.489854222961261 1.3622450168409443 4.299167564128073
Ni 0.9999398746188538 9.131519498979968 6.534268010994501 0.6909693193075649 1.0439627571887244 0.8113224011770415
Ni 6.286462710404054 0.874158483994632 6.0861061218714285 -0.26880420752675 0.18991144968458903 0.5891220095517596
Ni 0.519296083566193 8.830600910451714 4.171430996717044 -0.17393410041972626 0.07669060798451954 -0.7674375268686331
Ni 6.194391628847613 8.547884333874318 8.204961172742086 3.7972776855221055 0.5211939782512186 -0.9339005157222948
Ni 0.3240333143579058 6.72936613888866 7.856211538437646 -1.0346445651115925 0.3383648893347076 1.1410090460114606
Ni 5.607244115707224 4.193496591506113 2.9805611634733813 0.6147813619910767 -0.26419139134508696 0.49976049096779096
Ni 3.4161060398904177 5.903388106125755 9.949832563896232 -1.4686886877181802 0.43996845851082295 0.8393926770506962
P 1.6553037722464206 1.6252475856783233 7.885783862476999 -0.5282400864647225 -0.89430964080355 0.26601713169991603
Ni 1.7146020855516477 8.284860687814607 13.267858114264522 -0.031680104712100275 -0.6190172544492952 -0.3487840277855025
P 5.194003563984743 2.6596615221277187 1.492496379422668 0.32378313486579074 -0.9837860876988285 -0.6698806169580658
Ni 4.572125880302946 2.5158016005382366 4.599138031907604 0.24328935108509717 0.5389060508190009 0.39539581410677066
P 7.0123754111356185 5.86714872353817 7.419589176087036 0.2538329309288983 0.3075934124798057 1.21906645243652
P 3.1165777557925822 4.025708798929977 4.159905190054093 -0.6025562806797945 0.8866531526995568 2.1367332799087717
P 8.306337232568682 1.0425819749780962 5.241093723847352 0.4102274798029645 0.4027975058874805 -0.14758466389192004
Ni 0.7333983924806 3.79307062206662 1.5926056158044433 0.24304509628477497 1.0411466278961683 -1.0326056803046926
Ni 7.575970069615978 7.652180704578056 0.9688821200564756 0.15723170006338083 -0.43878395128441855 1.2817556039356246
Ni 5.3104872937305485 0.5760808728090605 11.089483398988532 0.2590162749020507 -0.02504614433535041 -0.64136476890656
Ni 2.159984280487853 5.945033211860554 0.8724224328045453 0.24547247477934497 -0.2668283147473018 -0.05649459265261884
Ni 3.6982463718683656 0.06845145569679585 7.269813143276542 -0.887335523478562 0.17953499154627145 -2.434610493542078
Ni 7.175443486040074 8.29445561773242 4.346080673396462 -0.1979399764160204 1.4619156306604049 -0.016135986329914146
Ni 7.585290597343579 2.850572272599213 1.9272985405781922 -0.9330029436086898 0.09282967963822722 0.1549783852528299
Ni 3.193867706036168 3.778847441873866 8.353866435935634 0.22506768587074785 0.10299659286890005 1.4332732843333638
Ni 6.566929189021696 5.551595351531843 5.393587253014931 -0.5990608659320262 0.557633194914859 -1.1842727417961023
Ni 2.400625854565783 1.182024021305134 4.009767861026484 -0.02425244478946146 0.28930849812768883 1.458149478749753
Ni 5.470024727120919 7.0400717388678755 10.447661249448021 0.6131805931628601 0.061734243785003355 0.9936866346419919
Ni 5.578724581404324 7.701243816188304 6.0746726972791825 -0.46887897089758607 -0.4880066928659725 0.015480097913470112
Ni 1.1135149411483931 2.917224564602173 11.975192385843236 -1.791479890984347 1.0283893282304999 -0.4995722862163848
Ni 7.631252964204409 4.015921787479014 8.526815733709693 -0.2711531673749008 -0.6848588355344527 -0.7804095136482689
Ni 6.685397761276718 1.7457833210996223 3.8303929786315827 0.2583886686203808 -0.008257612023101909 0.3409257080833483
Ni 2.232197790212482 4.546185726588058 6.470196928927487 0.245258558996326 2.03370094870593 -2.45554030171621
Ni 1.1581876177152186 5.1138323907439105 3.8667659036184046 1.231937394861917 -1.2561121923359078 -0.00848695442508861
Ni 6.228408353694463 8.231434581379958 12.670053734730192 -0.6990677800449832 -0.21088110995772066 -0.701376630683818
Ni 4.727775949331953 4.67992935409832 6.54473736922513 -0.1430986030961084 -0.9929759817282124 1.412675405577354
Ni 8.002427660167097 7.995622485849792 6.685770948255408 -0.7368771375832729 0.11864921180449244 -1.0166558418436555
Ni 1.7161844715152146 5.528563861033221 11.931871597400196 1.1704229803972037 0.014457827296542844 0.1349068113139354
Ni 5.813567122529067 -0.22516894924573436 2.1632203969844426 -2.1073124035444932 -1.0357653089795966 0.1555579119053837
Ni 6.566691373790178 1.1766000046785723 0.541120204427873 -0.12911591566377117 0.8790182618621184 -0.8359612827716443
Ni 0.2895089454591584 2.166021128672559 3.0304282735009562 0.7455373843614322 -1.546563031598156 1.179689236190478
Ni 1.2399960573576603 6.953196005446151 5.632226605778267 1.7391911088829597 -0.8860075486957579 0.6962213117351236
P 2.3802560653122367 3.671620212677942 0.1024498870642999 0.7197633607211217 2.8490502116541774 0.19649244533621643
Ni 7.909588252478056 5.147611300359243 1.4179294135799714 -0.6353139347267898 -0.35402702135199676 0.5285475904028122
P 6.952967336954306 1.310361925668182 9.33787817808654 -0.6267251646165142 0.18887143845584892 -0.38782905750310626
Ni 1.0451796490454546 0.6219133559665233 11.34333103580749 -1.8487820671399258 -2.5397693841696194 2.3567682884516183
P 8.448989784521222 8.448742822550031 12.593599796492793 0.6334935936885993 0.8578097461053034 -1.0769253281576745
P 2.8407395274498812 8.351750795049085 5.21292725369586 0.4320803140119978 0.6362778413019557 -0.16761381462865327
P 8.818362572768175 5.1615051979237405 11.47408367944442 -0.9587348011571553 -0.947963164462948 -0.5513327066181279
Ni 8.903518719131226 2.1619874164764146 9.962523665193624 -0.32613363737583834 1.121412611936772 -1.7602137338812136
Ni 3.0853324930668906 2.242122002758552 6.463637801907407 0.2627297191978959 0.3516186690208203 -0.5850645516529344
Ni 4.489576554746927 4.4790486573823864 0.3890510839811582 -0.7181726191952342 -1.304656162682882 0.3959635136847826
Ni 5.295870803731821 7.091192866904729 3.705583886434685 -0.35322072340061744 -0.722889307944613 -0.735981622352197
Ni 6.664250499150898 3.969310002101344 10.777909773414272 1.6143704781604327 -1.048656048899336 1.0706250969712594
Ni 0.3854372071360409 7.461608383474493 10.85816601133407 0.31607033960256536 -0.5605531967751314 0.7921350296153131
Ni -0.24847850063043905 1.536240661912603 0.14262877042938873 -0.022735493924302783 -1.6570739305662299 0.6897148780751735
Ni 2.0489977412859983 1.6659963109250895 0.3845856456724104 0.611730748090211 -1.7684235233855157 0.26523834455236256
Ni 3.3046987506635683 1.5504729888450313 11.58247894729669 0.3108309455804969 -1.978206258072735 2.022213774001937
Ni 4.763219565567917 0.1623491411660954 4.374501422910885 -1.1019035953695668 -0.31749498786423386 0.2043173406972739
Ni 6.863310994671746 5.802508714263446 12.43141346729289 -0.6133669981420533 0.2955819898412264 0.1033336644933446
Ni 7.913530497277463 0.2813143813854035 2.378205366277371 2.9323611531686917 1.0900199565581032 -0.2251713013281477
Ni 4.320188082727878 6.52138757218586 12.7944475649459 -0.7611704629129988 1.9879954762490148 -0.6715986280904369
Ni 5.694522305674596 6.250909333292005 1.3619842950391585 0.006606706683240235 0.7869483432080511 0.2680914977304415
Ni -0.05616098159711459 6.274873791237353 13.322745869699043 1.3616215243243324 1.0434721907055513 -0.8737984082240756
Ni 6.554617677420765 3.342584546392436 6.257434617375291 1.2279634978158336 -0.75426679381463 -0.5563957229633321
Ni 4.71787003026523 2.6427034667724985 9.769654597757969 0.36045709324805664 -0.5092987694755294 3.5546565641486265
Ni 5.424830686392687 5.006989324614285 9.197272666472994 0.3140114001910076 -0.2134745817165098 -2.101156925466059
Ni 2.4052723983200717 7.548182274486982 3.032798193750437 0.6915835558527961 0.6302012960905727 0.6204321325189509
Ni 5.177374791257778 2.3620540533613803 7.810829074872133 0.7922836393780355 -1.0781728274115303 -2.8489116291937835
Ni 8.381971622931312 1.6595387127153889 7.397366257375578 -0.31536431467447623 0.0500650349771912 0.06363634590372265
Ni 3.169290416532675 3.6887154691282684 11.142804317916932 0.39666388218591686 2.1854430864096495 -0.02984022328988409
Ni 3.7704781750723417 6.013661199633053 5.063686305156285 -1.1223235537868155 0.8704050662718107 -0.2539152062300595
Ni 4.3278896375332145 6.795789762399775 7.915343381080809 -0.16763335501267904 -0.8189809461635638 -1.1530824322362272
Ni 4.325575512395744 0.3743458706075945 13.396415540379742 -0.1829203630787366 -0.5671182515871587 -0.33675820696922004
P 7.056554163760059 5.944017923756761 3.1227865626831557 -0.29299854538476633 0.14324232776282425 0.8619751903369026
Ni 8.877624299114705 5.036990630744341 6.238719473328735 -0.3176343416555756 -0.3583395326844216 0.07558580495611499
P 4.918256803038779 4.98919891594875 11.446385522364228 0.13561437890392128 -0.3904441265284502 -0.18026287085123147
Ni 7.45615692662891 1.6547824080850142 11.576990903492412 -0.7154788744131548 -0.23746168865972653 1.0054568878040426
P 1.1455925571844 9.217443971475618 1.7177357585638906 -0.8327132081479918 0.27203042777353154 2.1191353643213504
P 2.245259334466664 6.176381698429906 8.041517166837037 1.7271537181024512 -0.8652854856570581 0.23629877869987692
P 3.9018802372261114 7.639045986406483 1.3362078679644307 0.11620974912506436 -0.12351322476501309 0.17070890861420923
Ni 3.663003983905225 5.510407582780734 2.607501324463923 -0.21163110074986777 0.2890416176195474 0.22400890558893033
