# total energy = -381169.7001390742 ev
CRYSTAL
PRIMVEC
9.21959398487182 0.00000000000000 0.00000000000000
0.00000000000000 9.21959398487182 0.00000000000000
0.00000000000000 0.00000000000000 13.49380772769770
PRIMCOORD
 96 1
Ni 6.071591383602579 6.462898617939441 6.595165681435588 -0.24284943533420114 0.4645806006325483 0.27508309855692625
Ni 6.761760981774791 2.591332887415909 12.932614203790402 -2.5306267984384028 1.7550437596445 0.48797892495183054
Ni 0.7340530223881403 8.903933681587956 2.827667963753377 0.3407537012818583 0.4579862352444823 0.34214158276832046
Ni 6.005671285458983 2.3698966752183086 7.0059585279999315 -0.08431264330615157 0.1487105499662471 1.1873279836826585
Ni 4.349564808614831 8.616503614493594 10.45018500634537 -1.6869450070940495 -1.9922683925927562 -1.0237857680202176
Ni 5.301202096766391 4.315175722450411 8.083560365089461 -0.7445413389967499 0.876714039208974 -0.19733602428343436
Ni 7.653065245835208 4.171672739568586 3.507621329652455 0.3054347142655901 0.2029106901577344 -0.44511632126034956
Ni 1.9878090350274025 7.42174562871314 4.695872125884691 0.395194496729242 0.7355512196829977 -0.10213193087575959
Ni 0.9822463407161384 1.591191314462468 7.457042844900937 -0.2730737814363813 -0.3341050856170891 -1.2698547387329808
Ni 2.6955603992359563 2.959710991111777 1.3763010141084968 -0.6239262617151383 0.6285907570703433 1.160576426620427
Ni 4.573794557838657 6.655154814665087 0.33153476156979317 0.6618168661133247 0.9210894800005556 -0.34612370734452
Ni 7.433389976119484 2.2436066746069865 10.84130323900224 0.06731482319657439 -1.6975855175270314 -2.052955426060168
Ni 8.763897266105012 6.615870124009164 11.432520777124724 0.19313766993137063 -0.8234726633863302 0.5195556713168472
Ni 3.5057967719709704 5.854746529289663 7.1609749400512275 -0.5007233691016925 -0.9277815473087505 -0.23509498819976282
Ni 7.583614043133712 2.9281523203501654 1.46167629981889 -1.1826933131241244 -1.743550671403236 1.460872019887239
Ni 7.639936543771364 3.5083229407669627 8.017265029464127 1.1409884771861705 0.8917670768873546 1.2544767136150137
Ni 7.519510205036871 0.5520296532050919 12.7861120869329 0.980900024400285 -1.6433213568668277 -0.8548676327578438
Ni 7.777502108023192 1.271889110405531 7.927369376743971 0.6059074565402146 -2.1090869789464133 -0.23129669749959522
Ni 8.239449872706379 5.156408370704133 6.477189910825089 1.503416835227985 2.2144996374559733 0.28503712444584456
Ni 4.966733660339355 8.534200297552633 4.528454437747668 -0.8125814703951232 0.34697911336627985 1.1606229635876464
Ni 8.805035095184273 5.246502244698427 9.022688507903787 0.14983772159215486 1.313881795046208 0.24200585638698324
Ni 2.9941553948410733 1.3028116291710716 11.18845875893353 1.1402755102795459 -0.616753398115783 0.37792696789804586
Ni 5.82850756435027 1.104590355032991 2.50897148703183 1.2200385865418022 0.5068600781270497 1.162313721026508
Ni 0.6017878028108231 1.114501418739895 10.855417515680287 0.3655093109599834 -0.13588485895648855 0.2187800530898232
P 2.3989568359663656 7.499346952639662 8.70694691110602 3.253471626298326 1.033122214929795 -0.3185288284453869
Ni 1.5262669324866371 5.556059337743087 10.662604455468225 1.286414185753559 0.0724148634273011 -0.7052952490119337
P 5.865413599716537 2.65119571220561 9.44333156885367 -0.43659877070764164 -0.3513299341358078 -0.2965736643305344
Ni 1.1274457289208188 6.455596699375843 7.303928435121953 0.6093923297650214 -0.7583126817492295 -1.1633182510316222
P 3.0900944915239044 8.889597212690992 12.816581001666458 0.4348226526438253 -0.7419666362910383 0.1593070945351708
P 1.739801952501153 1.8968669583716804 2.992103113184183 -0.39215648123386654 -0.82466411259127 1.4622483314094752
P 3.8992152933672575 7.127806528151732 2.5902311459154674 0.20696506273276613 -0.16321131468558342 1.145692310419743
Ni 3.907291657839116 1.5824972371828303 3.6996239875390877 -0.5189769159952416 0.7305375685184903 0.021128811558815228
Ni 8.196154658596965 6.926994548058636 2.4658717283183087 0.6254606960817938 -0.7039009397675684 -0.23824099002791227
Ni 1.0691317959476394 4.171073465949099 7.595071232778893 -0.21236103693735683 -1.4460028160848903 -0.27820493201535956
Ni 8.46458314215651 3.050726824520667 5.55946228994236 0.2410506915625655 -1.3258952745673167 1.14944483548364
Ni 4.0315625673324735 6.102587659121287 11.32752527311232 1.170183610692888 -0.38007229637582285 -1.398265143689295
Ni 0.3277316789845858 4.034632692183077 1.029241377956326 1.9901084088269596 -0.5191404381562995 1.8620445885767865
Ni 5.48481031418313 1.0154553188298765 11.348022274817612 0.20231470844494837 2.12127786458565 0.4361498560956812
Ni 0.45516306535117756 6.333068293176072 0.5704319631204225 -0.2675407674332941 -0.5818933530138043 1.23457508959508
Ni 1.7825439909618106 1.3404736712573069 13.271537548108766 0.6769758332419502 -0.5918864596707742 -1.1082493350819367
Ni 2.070518014110785 3.1911043649870114 10.439161137625048 -0.6453576921160369 0.7688770875286371 -1.0261660953269358
Ni 5.021922150897055 3.025059474418322 1.5368233677837584 0.7927011865314284 0.29559715934987796 0.28842301019894195
Ni 4.519786175331639 3.5900730820591655 11.224621695011633 0.09518609568554576 -0.3048150784037202 0.23341477228386254
Ni 1.88270566176349 8.304438791841232 10.970074232398241 0.1988375485296253 -0.658304482084692 -0.122163395605338
Ni 1.7617814649451151 2.769704375357744 5.338339543945721 0.7834025348383218 0.3245611506823959 0.6029576298832713
Ni 6.346759390482818 5.601419740941196 12.373106537773525 -0.03299702375131092 -0.9192048613833331 0.5576015703459752
Ni 3.1649944743656606 4.262476522312119 3.5462403656110406 0.018844900620644967 -0.8638770353453058 -0.016419836118920107
Ni 2.292571939116165 6.577848517751236 12.689091531856748 -0.1846923673774948 0.5784365048134554 0.4572395868864448
Ni 7.077098760348967 6.164469575028951 4.559827794666947 -0.6317560421722023 0.24552878193857713 -0.9610500795538932
Ni 7.411889882571112 5.118930720500817 1.1632583204213751 -0.7216996585118861 0.27413256171819883 -0.08518578993972425
Ni 5.445497964744767 0.21553474998477376 0.46357686696877815 0.15035939842357973 -0.6726779771975447 0.5529283332400219
Ni -0.08974813921382076 8.320139760671799 7.082076419228369 -1.0671425377392976 1.4033908949516347 -1.192887480048307
Ni 7.872463927726551 8.24412420693838 4.192364274710358 0.34316359627493154 2.4959066213483987 1.2636632652102882
Ni 2.2237568884107404 0.5225075907903222 5.122829686865142 -0.8510534012180762 -0.19421984725195585 -0.7477153658493574
Ni 4.9918386151987955 6.8738067094306095 8.616363476662574 -0.2381875110821575 0.3761950728086037 1.679631504151772
Ni 3.229522413793216 0.7053210791916791 1.5913379060093888 0.21630973717245972 -0.8338252102652478 0.592645963544618
P 8.393444753726303 0.6172601257065685 5.705626969654123 0.28381842154739506 1.1877758698533545 -0.1288577769063781
Ni 4.762611845947862 0.9155158402471145 8.52283714776774 0.6226566509740955 0.4365424635484094 -0.17430305372337077
P 8.526077835110044 8.662970368989217 10.808162485885182 -1.0975347768779098 -0.2566583161928354 0.7397220632312357
Ni 7.888939342465377 9.182522157896345 1.5683175013863482 -0.24571801513124777 0.49672478946526066 0.49239428041070676
P 4.4996413621227225 4.426668274457471 0.08618107823874989 -0.26927266252273624 0.5467741407131681 -1.7923851764074354
P 0.06850435038270608 6.156660578787326 4.5856952099622585 -1.8044876160979246 0.9296643661537601 -0.2647251523613699
P 7.3795383267129475 6.686068113836482 8.32978161222964 -0.4727549089132245 0.7027830241130413 -0.21118270035853953
Ni 4.073152156524887 1.8452833291250497 6.061648051316163 -2.7155387380258715 -0.022061864896045873 -0.5912380274534978
Ni 0.4470719495286855 7.604496423874305 9.155507825089277 -2.72674463404402 0.324461391879738 1.920959103524808
Ni 0.21263242174762642 8.238546352480077 13.156449354384783 0.03486750130114641 2.684475183851848 -0.8447254021175195
Ni 6.595301209469533 4.707091450000907 10.144159017858613 0.17805455034600304 -0.8351878949407294 0.022766090051922084
Ni 3.008584059679496 5.412620892020285 1.461393258278609 -0.5038477736632871 -0.742627924024121 -0.6640231297360242
Ni 2.2000901902380683 3.9704643169272154 12.901645587054134 0.5603968737029252 0.46418670762823927 -1.5091948753623428
Ni 5.913576759535017 8.02774955192691 2.574793857477477 0.16447141234492965 -1.228925861729103 -0.9234777777270741
Ni 1.7601864751578644 5.2452299407062855 5.306022100585898 1.0339447108310902 -1.3225181305649674 1.287940649700414
Ni 4.15798164226184 1.8655387774637178 13.260796720928727 -0.28823866210227783 1.3181295145789687 -1.9661544691145236
Ni 9.112849684935346 2.3927704882944285 12.594566720915905 -0.2504943534739686 0.9739873564408517 1.2936125032742107
Ni 5.808519484241835 8.091014406956468 12.202329229529715 -0.422181309730731 -0.6796312685869262 -0.3083308048664625
Ni 0.2847167405372077 1.7545625227288304 1.328731596153016 0.2703586964980634 -1.4373932200390085 1.3356731798896868
Ni 3.351709695009587 8.42620197172689 6.71057840487351 0.2622450662519935 -0.3561615511964963 0.7854589031467182
Ni 6.533926371239896 8.950262142171391 9.510355252416538 1.3429429740782226 0.7014072268114372 -0.4220918353407182
Ni 8.506034437436734 1.8679358719416668 3.5634985238928585 -0.10482027634120011 -1.52348172429866 -0.2198897412142342
Ni 0.7040377116865619 3.8743961459263407 3.6050327955203954 0.018508857437464898 -0.2651681534360595 -1.0047945716296953
Ni 6.354863413737114 4.242340928697348 5.697854851789081 -1.6820766232581545 -0.6057935566701695 0.12621056909151815
Ni 2.5768489050126107 0.6721628088457439 8.93862240456212 -1.206404283587819 -1.3264066669860963 0.3423169320039201
Ni 5.4129066994388095 5.342173973151025 2.5168376447571603 -0.17663658695255385 2.858195111378239 -1.4485461513320341
Ni 8.84766649851518 3.9067937997552344 10.962072546638964 1.1618066994831024 2.094610125486476 -0.6417661181100367
Ni 2.9807132265762672 2.8709631778627926 8.024402839251927 0.9355349660019242 0.5020965953001353 -0.09390825741438666
Ni 6.367217669892697 1.5005442648194167 4.958650842151593 0.7935866744601752 -0.373466361023531 -1.522991414925803
Ni 1.2489415405762434 6.0269685479361454 2.7579318755927718 -0.3957228584288862 0.42352908200787703 0.7275070092222825
Ni 4.344318859545781 6.09462192977918 4.840957191121961 -0.0897096459520068 -0.16293440687511293 -0.6731821705274729
Ni 6.922559923274432 7.294773378135017 0.5637606647964079 0.7563848685988974 0.3984160889903332 -0.8731821147963156
P 8.7128391537247 4.907940308470585 12.916893873812132 -1.5515525143929474 -0.38569298499670995 -2.5961709028878
Ni 5.481860044056424 3.6171879084424257 3.6740534431752754 -0.46580830239206233 -2.820525621851923 2.1621730601381146
P 3.720770048672255 3.9587462127677036 5.691984736196349 0.2987256776765307 0.9296201431793861 0.22675484376518368
Ni 6.622895454748384 6.979122133359879 10.47307080489388 0.13941292671440506 -1.0161444494248757 -0.7236603817826827
P 0.04964751447597974 2.2958725538204177 9.226498700013147 0.09245069903225368 1.6922036843898278 -0.38681964240198546
P 3.580493923741516 4.699559041583659 9.413050733840691 -0.7647666649046894 0.18480061082058494 0.8149049763219772
P 5.409329496910178 0.27642463756233376 6.4789711364140885 0.08108539461810552 -1.9160593522303453 0.5390919415775619
Ni 2.2221618986234897 7.785486276553591 1.328680888385213 0.7193594404144836 0.10032315980179496 -0.2488534754364359
