# total energy = -340862.7175004202 ev
CRYSTAL
PRIMVEC
9.33329088041565 0.00000000000000 0.00000000000000
0.00000000000000 9.33329088041565 0.00000000000000
0.00000000000000 0.00000000000000 13.66021462698852
PRIMCOORD
 96 1
Ni 2.9814451577525967 5.41202081149234 13.28800152546055 2.0010687644932053 -1.9633432249179732 1.2482163345275987
Ni 4.741703848695365 2.2871229703898477 4.389806109809041 1.4510270087723591 -0.22741356039510513 -0.9260324258281277
Ni 1.9904643145488305 0.38936716911251057 13.167408871865298 0.4360709232286296 0.8571379168492594 0.21544430384837088
Ni 8.218252096471508 0.8529461353050488 2.6414753648208054 -2.2113772897769075 3.1810066263593795 -0.8387177624708587
Ni 3.1533270456232327 5.6036426099215335 11.138853529906735 2.1464996152669165 1.1035709557696607 -1.9467398120333377
Ni 1.715944225064739 8.783326869453687 5.135762863215812 0.8070466566198229 -0.47127266794074324 -0.6236318704031711
Ni 6.409152293494257 0.47791863455290134 11.597330919214494 1.0487090136244583 0.7593526929779697 1.6281857867769702
Ni 7.542717823980805 4.347045636889876 6.089314409344881 0.1888210448338877 -0.31391215560898195 0.641552973657966
Ni 8.430071136720427 1.8151477755739154 0.07487166075685517 1.3594962504512134 1.5153670656113258 -0.3472040848928924
Ni 8.863117174590855 3.862993163462704 1.6408513653101355 -0.5873240371110723 -0.8244419692781351 -2.157194375976601
Ni 5.671626301887744 5.993102178615383 10.013674894752537 -0.29051537395159643 -0.6592869006026195 -2.6835665559946493
Ni 3.994695233387908 3.668860709742611 6.102633015665004 0.16682217196529336 2.31852184337591 -0.6802416484774155
Ni 0.4037525705989904 6.160112088560928 1.996918285305919 0.33305890374076186 0.4008766347156838 -1.329999269433361
Ni 3.9746846573890675 2.9657838953803695 12.252393551128772 -0.01849960146608427 0.4907570019175999 0.8087327860729943
Ni 3.245894626199958 2.309233536873641 2.426135807190001 1.378014363860059 1.1834448465781684 -0.3233722725806173
Ni 3.4500883676657366 0.5315598581714346 9.00836558313766 0.5199346519228206 -0.03614482535167323 0.4239165472542828
Ni 5.492315114345896 7.536324519615505 7.629940228776497 1.170197494649959 -0.1421290400939875 -0.6055696135848215
Ni 6.584907497148251 3.545157270242317 8.457571678782267 1.0373714771244522 0.4082443879346646 0.7956777526612491
Ni 8.1144845666417 6.402133658628991 9.577477004496473 0.22041913135514296 -3.5677406510260945 -0.23964506946429048
Ni 5.8371335519751675 9.049456330289011 9.602120626169672 -1.1749573779324474 -0.9556926718967218 -0.8574659896126393
Ni 1.289048825992463 2.7975233244348967 12.698822595027528 0.18331322764178104 -0.02233980114778088 -1.204044782216707
Ni 6.561331603970514 7.137615659496818 11.527718567961065 1.4892071193865062 1.7905499229709096 2.7802408061899473
Ni 5.364374360711519 5.6966488551773375 0.03195625520635707 0.6422361157679197 -1.405027145003477 -0.38068833269326696
Ni 9.05588696781849 3.655915435064257 9.240274532359297 0.4742698028958542 -0.5769583776060321 -0.21160873215236456
P 8.008075715446374 7.80309797753288 2.239919850933628 -1.7989036942522436 -1.920999984065072 0.04770244828228559
P 9.23723281280798 7.106265134879232 5.844468585406832 0.8080992662540535 -0.2907426594710541 -3.53581243485893
P 2.4945833637211092 3.826210663457373 4.440894678326976 2.422145271195532 0.44453268084273767 1.7472456037563198
P 8.771716255394658 2.337280076461568 7.386160266675699 -0.7969136819508791 0.8829260815569568 1.1561435876600539
P 6.889396784175381 0.0980816889256594 7.770927056632506 -0.5889811130985212 -0.892481843566192 -1.8061233519291346
P 6.58010085226047 0.985343535413048 4.200694033341642 -0.235911056343155 -0.2806780761462005 0.10163596507594753
P 1.4572253973185378 4.475509054822731 11.067670385770562 -2.969051823721506 0.5498939172890723 0.39447741605755937
P 7.739706264760435 4.787530307722559 0.09004665866567725 -0.4361840517677262 -0.03363928532100013 -1.3518225359560394
Ni 5.781749802918675 7.505757991445634 1.3260683915903175 -0.276006381702144 1.0778211004990663 -0.7067602635932344
Ni 0.29297573919496217 8.986111283971788 1.252599524477411 2.648799327716793 -0.40439364673000683 -0.8211717831672956
Ni 6.4881119357284875 2.9531186194333423 12.659071175141026 0.26656374823200546 0.3509869489740923 -0.40660993765503517
Ni 0.8473937604628333 3.7220044689484864 3.3294863807794424 -0.4010787234241609 -1.166270648791727 1.19801631663444
Ni 0.9259502045239526 2.470820804722486 5.868469143327083 0.635846410191492 1.8503396414350328 -0.40856526160919315
Ni 3.2941944073538756 9.080340190354386 1.6235166438536772 -0.7097131755739714 -1.0661038120621382 -0.8803552355059869
Ni 3.2245960560370133 5.944895730371907 5.769105060211945 -0.6891168394798584 0.0859262676501746 -0.24453273657389502
Ni 0.7959001271135786 1.1300935462180923 10.62327599931945 -1.3763662867336748 -0.3971094543637677 -1.6758440120848814
Ni 4.080206845935191 8.299610394504107 13.143585646474888 2.2211593088643364 -0.005262791060836098 -1.6803493561544025
Ni 1.987916326093754 3.388712645758846 8.02713802907512 0.26338329362149476 2.4137259367835853 -2.220491336263034
Ni 8.517813405827283 4.75480778932147 11.409066305573912 -0.9646645363780291 -0.12619565669318267 0.14643023857250265
Ni 2.6779171997030216 3.1403164379075688 10.093300933967324 0.7381362068013546 -1.1588329615667592 0.7929780943418989
Ni 8.212782787919586 7.784618061265294 7.400776200450971 -1.1268947180972657 0.17412641893619044 2.6115011054869672
Ni 5.221920339503357 0.30086050346913207 2.5335461205143734 1.372761857211868 0.6019389588107698 0.7648101165481151
Ni 9.231819504002324 8.67235403893773 3.6299287528097928 1.7817678059029054 -3.7167517629518954 3.344961246968891
Ni 4.436999895974217 4.445763856264753 8.7988583990804 -1.65170315317262 0.1535352250484001 -0.6224872152757667
Ni 8.244842642656534 8.474712267785003 9.71734383742717 1.4094389009179273 2.072455186655992 1.199842314099585
Ni 8.28533979249747 7.085983893440109 0.21173877394593854 -0.050434502501467984 -1.461620210907173 -1.8432210281123804
Ni 2.4599661872380403 4.611327106098442 1.7760188862000637 -0.20059618309194485 0.016015144481333708 0.3036377702661674
Ni 7.602898884634034 1.2235291228619314 9.425726092079147 0.7145352795529629 3.4500319487580002 0.24751727312351565
Ni 3.6153996186412316 7.330954783478152 8.926062756051385 -1.1335723872277574 -0.27265392029014335 -0.27866413103996523
Ni 1.1173256040695787 6.530373077576785 4.098378763598317 1.6123645034739975 1.2751877209101201 0.4747341441267824
Ni 7.593238928403251 2.9557226076346845 3.507546907321362 0.06215024827649942 0.26103510510429234 1.9313641009082159
Ni 6.105941667340186 1.9476991749841446 6.937900031074063 0.528808814483999 -0.7435684335605194 -1.6161375973631844
P 6.834722365238252 5.635450465800288 8.036277187665636 -0.36786675544856645 0.30233782050782126 -1.935599479145802
P 1.520150445538772 2.4110504088752034 1.0952047709656367 -0.9145550213161476 -0.28015254266003364 1.0240745029052298
P 0.14326415087080224 1.4294308565888054 4.242521177156382 -0.19731288435498276 0.8454237137361247 -0.16120071201345787
P 8.814126729899662 7.186998102411867 11.484020099291957 0.7232016969787094 -0.14689843645817283 1.146608137365793
P 6.273744907024492 4.572173950167875 4.154631442051028 -0.13748639911565355 0.38841963989925365 -0.22192528358702424
P 5.3568703947119545 4.185710367899227 10.953648369070452 -0.5008519242597569 -1.9400325752164909 0.5745639092319266
P 1.3104407290658502 8.83132798529419 8.993803782450446 -0.4146631469768149 -1.8786192051060164 2.296699605294496
P 4.220598209822578 2.4939673665121895 7.760272171576406 -0.856405152448293 -1.8416958497171059 2.5632767232629403
Ni 8.454888357607048 5.338819809832404 3.839490069955111 -0.48560913916807347 -0.34395755293113667 1.5592352277491857
Ni 9.257934052344094 0.3977064646605347 6.1343652718863 -1.7421617614755094 -0.6256810396227159 1.0079680842616705
Ni 6.011442095517305 7.285650988749434 3.587896276592079 1.9510037295160143 0.6843466717847246 0.3739294167028786
Ni 9.083186844122878 9.181895730206708 12.552617524148689 -0.26733816450418474 -0.8875005883015167 -1.4418494560381492
Ni 7.467948829425437 9.240854129733144 0.7175508821136414 -4.044995247581886 0.1910720456515935 -1.2375190027147525
Ni 7.0246735045705275 5.467423227130921 2.095750370831535 -0.6247042775317434 0.26817403014191876 -0.8601579346225058
Ni 0.046611388804015254 5.751901938159211 7.608958057179952 -0.7111020855016978 -1.7618304435490302 1.2545085952942137
Ni 2.1473289371292923 7.380906557146899 13.544225564510626 -2.988474451222492 0.5490043155952673 0.8897870703428482
Ni 1.7395481181156098 0.7606230869536826 2.970332008106226 -1.6659684048423824 0.0466665508186035 -0.11789227903380986
Ni 1.520262445031303 1.211769176146195 7.985897949267063 -1.2800255086183956 0.6400607053831557 -1.7974273668170333
Ni 4.579631249712219 5.612751901980708 2.9513032943252386 -0.4141209013200997 -1.4411573150671309 -0.9709724808739276
Ni 7.0443107489275985 8.361966111970643 5.482144627094994 1.2893570704319663 0.3730375010162285 -0.671798917026701
Ni 3.114089890073268 1.5149238025540004 5.942029476692222 -0.5114574676897449 -0.6614846795848865 0.9926029146595098
Ni 3.760821626401461 7.469358156373116 4.046770330769219 -0.9493824134079778 0.8894865083832938 -0.23050454061560302
Ni 0.7383286546363178 5.243713574091646 13.057280704188845 -0.8906180508845759 0.5712741827370613 1.188876559116701
Ni 5.042049154498855 9.321316431825496 5.7309244332081875 1.1859444730715702 0.8359525410208958 -0.6612527660797386
Ni 5.095575578637544 2.046510727269463 9.93148126717148 -0.06470078261249503 1.2100506220911547 0.22820160351403926
Ni 2.18183411411983 8.059847480868747 11.078406470458745 0.8121104442959756 1.5181939935371596 0.6390050104251318
Ni 1.5186944521358714 7.57012036648668 7.262275761329146 -1.4306798125745748 -0.4106077459605187 0.3679014653412438
Ni 3.33526088794851 8.522862716282214 6.74376104405024 1.323602878988714 0.21751224212099313 0.8626773586102499
Ni 0.7742972916625916 4.900939127201062 5.676174414613599 0.689216084061884 -0.9565344510717269 -0.5189244654907514
Ni 6.595118117550644 2.243807166653552 1.593791978535997 -1.6379084133813726 -0.018154045201207444 -1.5122611729924922
Ni 5.671560968850434 6.016062074584201 5.634729002402568 -0.05961025546346507 0.1538573842745092 0.4167686233555919
Ni 1.2682729201279954 6.547863664993681 9.631257294151565 -0.6700816772252782 -0.7559680927764529 -0.6053351289765123
P 3.5247826958927515 0.2782431392816368 4.125876505672843 0.2967094185774503 0.5973911915390873 -0.7081041792156385
P 4.577867257704859 7.744475576484039 10.712832660205303 -1.133173866237758 0.557569174446143 2.6307671528054306
P 5.405114176119606 0.6773393309786582 13.534486275305966 0.5456477404182086 0.4256409861445573 1.2825529030259395
P 4.33852434216649 3.731991090365818 0.9172413106505766 0.38322472596187546 0.7138739918198802 -0.4786746168317691
P 2.6678185787931596 1.354549862540906 11.345081928820157 2.4517895764245257 -0.3262022858302447 0.7568574373599416
P 8.302186382832316 1.9313005826194232 11.464581654034127 -0.9195295917126034 0.3911339535066231 0.8951617043912004
P 2.681603849665495 6.933468584486261 1.9218142256020625 -0.16103101920481297 -0.938995413746699 1.140406379430455
P 2.63943604072764 5.737360670712293 7.802168381744874 -0.4607715112991032 -1.721308315065268 0.4886741512466423
