# total energy = -340876.11988100177 ev
CRYSTAL
PRIMVEC
9.17753386787260 0.00000000000000 0.00000000000000
0.00000000000000 9.17753386787260 0.00000000000000
0.00000000000000 0.00000000000000 13.43224849496904
PRIMCOORD
 96 1
Ni 6.547711691575484 4.313468551651205 12.283832018102148 1.47989715483949 0.5238247310058463 0.2945939148963443
Ni 1.5784991521539238 7.072308717298585 5.28470312207525 -0.22392174519176275 0.4903859917314264 0.6632816235843092
Ni 3.1993985117716903 2.9829280153540143 7.399932917763519 -0.40558715281747565 -0.5993791685033935 -0.03981918887946691
Ni 1.1224215958951198 2.80828871928703 3.1394930757977755 -0.39602084928527925 0.47889290349016234 -0.6931282746320966
Ni 0.03894027711452068 5.345206933271383 2.2650401910468805 -0.2006586608987641 0.6196906263672359 -1.506371804091251
Ni 2.3439422048193688 9.259397687103984 8.395491624521368 -1.0239145802885978 -0.6003451319610886 0.8959867713956569
Ni 8.866590050813953 7.227950517813587 3.9346015896333775 3.1453454255123443 -0.029511636305871752 0.13519400353705105
Ni 5.396334975648237 2.242860844428294 13.160286523036563 1.1497708513644909 2.5474240725014 -0.23275656987457333
Ni 4.917038258159234 6.511561384822221 11.460462205811101 0.8956023914730445 -0.9354447202809631 0.3495741277869657
Ni 1.1558002873552922 0.1935174836758857 3.3976332479662807 -1.9007224647629588 0.43961955981183637 0.11773415618939079
Ni 9.409358594021558 0.8797914563270243 7.648027361124682 -0.9241902304130665 1.1653903030693027 0.6421643819897199
Ni 6.841814948801958 2.201938219951827 5.679141606171845 2.3675980320772707 -0.22609664135589447 0.185564485569803
Ni 2.4969684081206927 3.4547633976334717 5.139433770580948 -0.6605745090657914 -1.1756322925122848 0.33039549797598583
Ni 2.684483784506242 5.766263019469142 11.179324968737205 -0.11165452565421416 -1.5197942481447437 0.746946863114449
Ni 5.2251464323964925 -0.27939258784470056 5.383779191269172 0.8913027356564264 0.9866562101577717 0.34703130676045396
Ni 8.184818576383975 7.8008121952796206 8.082117381227235 1.3550790952201242 -0.4386535963541413 0.3365743730931881
Ni 3.702281491854217 7.026008057849431 9.072758765223368 0.05257186055944494 -0.6593936013838128 0.04332308826766732
Ni 7.623649077339789 7.04207792002891 1.1756806616860664 -0.6933912984854962 -1.3472392874607313 0.38140001404831086
Ni 7.515748809124983 9.02414995595232 10.16124092232584 -0.6827937254753079 -0.09034625109474118 0.03330092814497491
Ni 0.18779896218871675 4.200428864349873 11.027634096644972 0.9797692532299515 -0.017853226131336993 -0.5085066125915371
Ni 3.35148860659654 7.929444512988111 6.656391132433943 -0.4062798080091261 -0.004689692166185471 -0.49398785015007185
Ni 0.6191292977924877 8.016823814993144 1.3152149721318502 -0.027399732169191525 0.32305911221557265 -1.2772669720366518
Ni 5.4654509848279345 6.810693930726224 4.059816193649326 -0.3280632502983834 0.3864416902372764 -0.2807336119744842
Ni 1.7685934156168195 0.37003358546286036 12.992356004384312 0.7562637696400007 -2.126688751188576 0.48980517952729197
P 5.604371318243561 7.908730818562592 10.05440065929763 0.35086739267709255 0.6537844827271514 -0.2746586094249979
P 6.186814341292332 2.577987679006148 10.795444319849791 0.6244983321685246 -0.6823772067631797 0.7740881994159314
P 5.549820055653715 3.299240905061549 2.2375846800839296 0.3896344861429612 1.160642503971672 -0.3899561311484381
P 3.683348239040817 5.195603950183049 4.802109834343604 -1.3418289150784373 0.5226641350388418 -0.7581226772256104
P 5.866325673576995 6.006283068344009 0.09565468448774797 -0.23015255659282297 0.47858565666238867 -0.6444084408288901
P 1.2840287935641264 3.975129580144271 1.1133229886051514 0.9549079712118973 -2.360076783999561 0.5359143151805287
P 7.731301552134352 9.122652429266049 0.8782193447385922 2.8112225992834423 0.20418749998762897 -0.4278464784363083
P 7.326966933035969 9.283259275719999 6.7703366423492755 -1.5819097865285658 0.29887994386620786 -0.1284219749205401
Ni 2.967188544401527 8.266590405064244 11.151963068621903 0.5590961526136307 0.2636902833389523 -0.7184500412263368
Ni 4.214993610939725 4.297664837960136 0.5661272029558674 1.041488327506303 1.305653236488829 0.043377852765002715
Ni 7.386171205405936 6.991629015174204 5.793637768132162 -0.6194216889765655 0.34136973759930245 0.18654947519089163
Ni 0.034963651596320866 5.2055065094586945 13.25286122708603 0.4314961593737537 1.5130121922259039 -0.23923369295848476
Ni 9.352274332024782 2.4768420758764917 5.283978096882687 -0.6046234476214684 -0.8668134922658104 -0.008068378830431265
Ni 2.99273879928883 9.060896802420984 1.78892073585744 0.18845286286119156 -0.5936744048091324 0.05446599225836426
Ni 3.767854972877844 7.75907277026976 13.254124055775863 -0.4678333032418911 -0.07499265145680634 -0.5371145061362169
Ni 3.9642633797899007 2.0947629769295855 1.6222126647450559 -0.7881063680718944 -0.9036954528938241 1.925104750262065
Ni 5.482585440961051 8.0153278769376 7.65937721752523 1.4602649824308593 0.061101238186694766 0.05481026297166044
Ni 0.6928891392182248 1.9186644529433907 11.775004749194009 0.1677066314527757 0.6762438401719322 -0.003980581914302822
Ni 6.653537837087512 5.948547201427334 8.027031068400348 1.515625975699667 -0.165069965160877 -0.6375219981217021
Ni 3.224480712420756 1.4105043907630914 10.95832444149612 -0.12270409860015644 -0.20533626888009154 0.6576375379246545
Ni 5.952805577241885 1.5028120285707394 3.4322215384186037 -0.5197839852775693 0.008660246778159278 0.08184104183720745
Ni 5.581849649603675 4.479994907588744 4.047539406306387 1.00281250820266 -0.8885035756447343 0.13372178986689873
Ni 5.471370494311523 3.5655821216866976 7.352772323370781 2.2386991175203126 -1.2701619855607542 -0.8832374421497886
Ni 9.151745212309422 8.426747552348123 11.7286095611438 0.9990977783552343 -0.10191312999673416 0.17659364952976037
Ni 2.5556495610479244 2.608851726127556 13.188869952938326 -0.44937201121291 1.2642674744531905 -0.14299370208712792
Ni 4.736387677267831 2.495013593360996 5.370522243286159 -2.822695890030365 -0.9720885967562419 -0.3149814774137608
Ni 3.133347798975743 8.321160022722255 4.194837910586459 1.7668500082508087 0.2246197997000519 -0.5313485501867171
Ni 1.3298889313772915 7.152575430389227 9.982820482216624 -2.0507810441166683 0.11823732107805442 -1.9206600842271504
Ni 1.7564423604908177 2.3317360844888686 9.242179715410712 -1.2140170629380707 -0.20333723617219174 -0.5547913545906896
Ni 5.672312603060623 0.178934382017867 0.8440302770188836 -1.0519879414860462 -1.0971861352892396 1.3129011763004939
Ni 2.289620380581601 5.82966142491508 1.2076652857190184 0.3028726099653687 1.380877544340467 -0.702666553139835
Ni 7.137579339697471 8.585555602121788 3.7336145109672705 -0.5405034772131079 1.0555034108384724 -0.29033385406840967
P 1.735205546622564 7.177235464470471 2.879645882289816 0.5611748895195302 -0.2997214659308967 0.9049768907094091
P 2.483495788086727 3.369972160239869 10.994591302932239 -1.3146299860661423 1.8885511195077476 -0.00012084184858043704
P 7.419448943991195 6.172745181542966 3.0783358241749275 -3.355263143115531 -1.905915321817808 0.8431135775457091
P 8.171979206201742 1.5426425264913188 3.5606069804602583 0.836882766144649 -0.03466309859982417 0.08234394961555495
P 5.006895494366699 8.66879583625535 2.9077061927488423 -0.24503333035939734 -0.05384558506554598 0.8669340770040747
P 3.9915298335507403 0.8687233502228263 7.155063459879152 0.4897545287950146 0.15683960683128473 -1.3577869810695904
P 3.8732222416857187 0.8570476913623283 13.27303620026087 -1.8335886472289389 -1.790165800158614 -1.3617554787990356
P 4.625091721442284 5.092319981612034 8.334549127196064 -2.410854528773061 1.5303141738394612 1.2900687517870104
Ni 7.249985777147069 4.467027051929348 1.2978639261943739 -1.1353801298604576 0.8178218928584561 -0.16533221768332818
Ni 0.4866332382350201 1.4581266151202086 1.2523571234434072 -0.7536322455544247 0.09206091979300275 -0.6206295932417376
Ni 1.3037880244450037 5.138400380243192 3.957772109932937 2.32804675214721 0.46571162891319795 1.4951803062508056
Ni 8.983851403793503 -0.15974966477059055 5.5419044325070566 -0.219971245184447 -0.48089219330837824 -0.9168355898202081
Ni 7.225793797304063 2.120285699214639 1.3930312836223102 0.5582656862925354 -0.8210830801082311 0.27198363369599604
Ni 8.235781423147333 4.259825864935586 4.296103739412604 -1.3005902201436246 0.41187092894365834 -0.48375537378878625
Ni 6.194798795944615 4.6805515599063545 9.864711125087798 0.8052779947551745 -0.23424472438432561 1.0262314013472327
Ni 7.96597109863878 3.497466463722056 7.994189262684036 1.2992007959952656 1.8020764355532708 -0.554745846064735
Ni 5.346785469133673 0.6230104769562234 11.558113921715327 0.6043573384442753 -1.8286747548670892 -0.9871287789188161
Ni 2.0701671855869233 4.6585621882432875 8.96822940527728 -0.4043370824604585 0.43528776520570195 1.3833853983639854
Ni 7.56205864610822 1.2011464832598047 12.577272657367825 0.8828800588103698 0.010469274962440035 -1.14227891386282
Ni 3.327342514423949 4.061444288195665 2.759172392381187 -0.10210750539572737 0.7216721477080603 0.9685913822362608
Ni 6.957736381805378 7.825288678679203 12.556547032147998 -1.3983980697227336 0.5353805541642457 -1.0404586006902081
Ni 0.15299499968544153 5.416250224608527 6.225847311501092 -0.5232400621469698 -0.8502144502565486 0.8844931689337605
Ni 6.870026688573354 1.5550046649012317 8.327523724855464 -1.185127890707546 -0.9332004043314767 -0.2992959483577039
Ni 7.9830688446355635 6.063734431704108 11.207881783790127 -0.716362819680005 1.17961338864722 -0.04332051716450604
Ni 5.126056596901447 5.841362780871009 6.210520829582343 -0.6144599740959159 0.7214281500180543 0.5200945745394526
Ni 4.60596574041314 0.45389880966748003 9.16878605759489 -0.062025806883493184 0.6482576393716513 0.5888021643184956
Ni 4.433951219093917 3.94172335608185 11.651320957863117 -1.376942985172751 0.39741310164711563 -0.0428129814004682
Ni 2.618368828971713 5.491258210669564 6.928313207535013 0.5734765897050188 0.29557710474522 -1.0251926756700729
Ni 4.616143625711278 2.9764945639617735 9.519542232716233 -2.037150340707111 -0.8886393298916503 -1.2833306617322287
Ni 4.613289412611439 6.8132452852013206 1.6769217809211296 0.41531106497345893 -0.4205196057575919 0.9816795828787868
Ni 1.8970697152458968 0.8375619509971268 5.6753402715546315 1.99994673507362 0.20409056939844852 0.8536697557950007
Ni 8.259844917513178 2.2228997077975885 10.130293359644275 -0.8679468345393051 0.36267235573182055 -0.4935219662572468
P 8.622036300102042 5.493534239122169 9.241910813662077 -0.07018443143488558 -0.12113212612734622 -0.2579060725570074
P 0.9411102325497344 3.2024087429509414 7.048142434551011 1.0568154447816767 0.6956770091958794 1.6698785385300658
P 1.2804679103398902 7.339613575002457 7.491004341730175 0.19573371279332097 -0.1372010066647508 0.34184590590477254
P 2.8772395328532316 1.4854940217559618 3.729329520303879 0.41227793457408995 0.8609488059549173 -0.19433966065927177
P 8.350271160833794 3.2711851833695644 12.960346601009336 0.24907561874957104 -0.864827057963401 0.2352520826029174
P 6.959158899588256 4.699337972174424 6.0755000303986195 1.3829395690758184 -0.5861433865394099 -0.23190579183850382
P 1.5543714150494987 7.065297081259109 12.526579630106507 -0.1046708952475294 0.36832158359779793 0.5503477169970392
P 0.5721522540814113 0.6250671623442423 9.93994487848728 -0.10741991874757628 -1.6880436394748672 -0.044928742191890365
