# total energy = -381178.57814422215 ev
CRYSTAL
PRIMVEC
9.16263359743185 0.00000000000000 0.00000000000000
0.00000000000000 9.16263359743185 0.00000000000000
0.00000000000000 0.00000000000000 13.41044044304652
PRIMCOORD
 96 1
Ni 7.062814464209866 9.031543713604611 7.465149366742261 -1.053244696711283 -0.273223162530052 -0.3217277949986588
Ni 8.880222821166317 8.959122258331691 0.5317671797756645 0.5211659532267605 -0.09825856396328239 -0.5551759916236181
Ni 1.553872691905876 7.390900882347196 2.755859025128949 0.5261158410328681 -0.09170019401947432 -0.45713905675283856
Ni 1.5444718299233335 2.003657208339631 6.633702681504193 0.5512661150462506 0.7591770866320539 -0.31415306797519443
Ni 7.841720776367723 0.9613526706338682 9.489160449163782 -0.2841686057979622 -1.3264403484375091 -0.9352292618360474
Ni 1.9567811752960753 0.6344079166320388 2.5711971418699178 -0.773359805890339 -1.4924899039028363 0.015274666770883372
Ni 4.466316542425334 8.21434675600324 7.609794364404258 0.39163917527781583 0.17495020038906642 1.4344490498090199
Ni 5.374095294918923 2.2004430882607484 1.9071655148326563 -0.14286360426716685 0.6941430890498561 -0.33975019971800846
Ni 2.288367719434704 8.331097032203589 5.140262138921767 0.44300750244746284 1.3521493231678392 0.02031120075352631
Ni 2.2470167543984325 9.01057044549736 7.584435859898523 -0.5410220687207392 0.6074601457393152 0.27838105258190765
Ni 5.691461431848091 3.111071419776336 11.678964803654617 1.7371861626377887 -0.5706375775943269 2.118775152768454
Ni 0.5549504750858294 5.085527315115613 3.2620762013584925 -0.53234588110298 -0.5923695699547799 -1.3118804483454631
Ni 5.860356255360963 7.197037882516168 9.24523831740739 -0.08309085508390851 -0.07533435106694122 0.8753025035734281
Ni 4.079772522486227 0.051885244784155744 1.5865356478467805 0.263057791961276 1.237116110849379 -1.046406590743527
Ni 8.935491826506176 8.852615806396921 5.910987135617429 0.5674465814608549 -0.7524402821288525 -0.46989969885261657
Ni 8.314558478715782 1.9578623660504029 6.413126939934466 -0.06631697805967934 0.2908393329499185 -0.09772865960174136
Ni 4.497203779991757 1.03356338533603 3.8231152464125477 -1.4073210832439762 1.1003542486045759 0.30567176997706064
Ni 8.393063922640172 3.159944906925344 4.400502262177375 -1.5000664306985132 0.9893406989684704 0.2968302604260307
Ni 7.726454846796197 5.8815311014054625 4.182488392937393 -1.001444938431172 -0.44826206597818286 1.3755121662634955
Ni 8.047476874496354 7.013336243249116 12.665812502033539 0.4302813131300461 0.184034936299154 0.10156088886363798
Ni 1.4950027715960945 1.7464620856788413 9.065014813821207 0.3336147762442319 0.38522915798641394 0.8058549503045669
Ni 3.473636827816501 8.274389493402463 12.434066593950247 3.0974249476819815 -1.7085875250644895 1.0603543111728706
Ni 8.312588512510864 4.562863211733375 12.56548899519216 1.868477231576008 -0.564117517087622 -0.7972582097744915
Ni 8.040751501499097 2.7362464080981184 10.813388224850495 1.0854631904253564 1.4016692842748375 1.4333403901258732
P 4.297495019980551 4.135948628543701 1.21761320467651 0.1652201175854961 0.7012539890630246 -0.5614715948243427
Ni 6.010211126437458 2.252395220269536 6.767029077989744 -0.7524824482206975 0.3911244404249264 1.141901218808427
P 0.8292650621990384 5.152414539747738 8.528288816789255 -1.3993637760701125 0.43845176475598036 -0.5714952976089319
Ni 0.6287032610079345 6.818300426328646 4.790182651567383 -1.7204567656982497 0.7785567767102461 0.7578591391515787
P 0.15473305715788435 0.681099780742018 7.823623658919653 -0.7092650322929591 -0.542819012720162 0.5213387313591988
P 7.737294242240005 7.741683143691894 10.207249781390717 0.13202691866297908 0.07644866717704253 0.8685371598251365
P 1.9679229376457554 8.549689979881482 0.5743835044998395 -1.0350022055613273 -0.8161529897964654 1.4931167388535576
Ni 3.8449892013939553 5.855976516542586 8.39957580627662 1.3334710300320454 -0.45643688847949127 -0.9826506885428045
Ni 6.0973660963964695 2.6693775087330156 9.464471733167718 -0.12515410280254574 -0.7122793936392507 -1.1622934093115338
Ni 7.078629169650283 4.048363014809661 2.6456783571561675 -0.49808233193441953 0.18120183772573312 -0.33101564805848804
Ni 1.7283109086930548 6.803805140113849 7.1948086137828815 -0.1352675370874638 -0.7972304418603496 0.185492494681287
Ni 7.970382476132696 6.495317595057081 1.8687181883560997 -0.1289328531186876 -0.1585751014651527 -0.687034503029533
Ni 1.007257464525231 6.218734339886487 0.570486636467505 -0.030843981964050103 0.28191246277393384 0.2996517890352259
Ni 0.4125319973670651 0.4554369450468446 10.906576788976665 -0.34687061281287357 0.42710882893933544 1.4995542669487851
Ni 5.12531146982146 5.715797386453971 5.076870458974184 0.4147526213668276 -0.4272286423466513 -0.8846942292009733
Ni 2.07357726466398 5.021553807940064 12.003229487354407 -0.5407490175650107 0.25771452537149164 0.01741999524866032
Ni 1.4828256316596433 3.372527167019857 4.49241722024548 2.0434883671099966 -0.5492182313782863 -0.6990184148642865
Ni 4.52808185492467 5.452701527811937 12.603762231632004 -1.6346909348853396 0.7461675617462633 -0.6557873720897931
Ni 2.6790990628884517 5.704032565025526 4.813556529654582 -0.6599893259862828 -0.959110182218703 -0.3125970363419842
Ni 2.209358330667195 4.033345458484723 9.758187280477648 0.0011132876688367925 -1.0241454653524815 -0.21658947319640762
Ni 3.5957380819874194 2.066586175294896 10.501997041234015 0.479997963628883 -0.5032214529331979 0.20506013240056942
Ni 4.468222370195673 4.210541627958788 3.4828122890146673 0.885772035646184 -1.04128598168751 -1.671552326688063
Ni 4.6619204426235 4.407364158413951 10.331698502267217 -1.2760989198704797 1.8163157190811043 -1.399580777176925
Ni 3.0541439777709396 2.473013109953415 2.089038292450863 0.15566975489289964 0.8283937548370315 0.31198871333402395
Ni 2.7243716350675387 5.296881782319619 2.492478208584715 0.5602989146724803 -0.16384997671084686 -0.9854153957721351
Ni 3.863855063793619 3.5456551272149266 5.5437551983299835 0.3073823249102642 -1.4670231270902994 0.6852817820044843
Ni 6.37795342241148 5.150646151480067 0.2663504260652304 0.6477557600345684 -0.13279542139788741 1.5765901740878654
Ni 3.977810736773036 7.784500130089966 3.468503004260148 -1.66022121794596 -1.14326313215296 -0.08000141752530739
Ni 1.2136732722666723 7.512507354308508 11.90884611581837 -0.11514119865123397 0.21345401289121949 0.8101273524276758
Ni 0.005798114485919041 5.918676417660071 10.63757652929998 0.21794675855525045 0.03648986739591781 0.18789956146088285
Ni 0.3206472759895472 2.1029526677010475 13.243949937482938 -0.8562174619175189 0.5923317747383089 -1.3191744109037151
Ni 8.525381513176136 3.362145903251611 8.26756333143658 0.5903247716106091 0.18928564317513208 0.6627422061410715
P 6.1058048818603305 3.2952678412529965 4.658881197087818 0.2884356086044323 -0.21507560765504252 0.3566881131239277
Ni 7.100014756265542 4.32072229593157 6.459326770624892 0.6076475791597729 0.2894933604449853 -0.7603268839657809
P 6.475306403468512 0.4640699783411445 0.9302327021762585 0.10957116076262419 0.11034814813796479 -0.5068184262558368
Ni 0.4814001833643229 4.746610664167983 5.95355123333059 -2.7895561700536025 0.6408924572558318 -0.11950898870162643
P 2.4914574912115617 1.5125583774036497 4.756737206724617 0.5131407689294388 -0.8207676057503412 -0.9607266347762035
P 4.094982494114902 6.818080523124376 10.740850404131981 1.1129832502224961 0.10737852398667957 0.21902867876551954
P 3.6737579063357138 6.879085337042279 6.191533229781639 0.5164510642495944 0.029723495206361715 0.37301616085998984
Ni 2.315214235622667 4.399841636301214 7.0032802529705185 0.7818858410834792 -0.07011141210510506 1.4340286744421495
Ni 5.683938909735354 6.257583905974188 2.7778520943460028 -0.30866813360122325 -0.7188231082950394 -0.5543272704700777
Ni 1.7466636636160888 3.877782266730719 0.7539876140606612 -0.5407564737641785 0.6460426339982035 -0.02890999816613086
Ni 7.14457264303075 2.9298895047248776 0.47030515044555016 0.5669189910921592 -1.2951711060105824 -0.33514689661804214
Ni 6.086462562518082 6.413348675665438 6.94719852203821 -0.13654666091020357 0.5763778225122138 1.4090997724109537
Ni 7.4462615140221695 1.387561731043176 2.73505893079506 0.13868170497533536 0.8720850250773947 -0.9529559896918492
Ni 0.24519115649770062 2.5228028604535484 2.1047549577127103 0.24810708418871466 0.5830449501197443 0.5288754060558762
Ni 2.2131241730403186 0.9348268466187992 12.543280604087593 0.6686814544436419 1.2354829461213304 0.023106247000160205
Ni 7.394996579526725 0.8909075954093243 12.321632834397048 -0.4629641480750478 -0.2397659113128709 -0.08393520536207481
Ni 5.960622953874573 7.517665916975342 11.796855827727118 -1.0006198714267156 0.6389839273792092 -0.014178091272594938
Ni 3.7020979317860103 2.8217979171926606 8.058307107306652 0.9017462995872535 -0.39495409858366176 0.30337114686834205
Ni 5.589847826208327 0.2026930297458206 10.505980038021354 -0.6672951156190766 1.42072887200945 -0.652258018780296
Ni 2.6500993278253455 8.76502103002937 10.468149356780104 0.43999031288769386 0.64919480647394 -2.3969710859227495
Ni 2.240566260406512 6.367398068606519 9.909859101779423 -0.8973283730252158 0.6009745380149715 0.1814502062911133
Ni 5.986782272549192 8.68169604087806 2.938079982820584 2.0289094408545574 -0.879875210545775 -0.374192183445962
Ni 8.714415805146736 8.567071495652323 2.788110578825198 -0.6078825779887144 -0.8679128959775761 1.3107877295019166
Ni 8.454774259338443 6.7668155886289325 7.088651258184889 0.45582907969216335 -0.07495768445381283 -0.7507490104693586
Ni 4.853978403652812 1.3203813021386908 12.935831646556675 0.41481458495301465 -1.1715316400803502 -0.1417703712029881
Ni 4.059972071468415 0.9609861652934182 6.189481716138471 -0.5829860718573509 0.5636801724398873 0.6418203683867397
Ni 6.8644434486913015 5.565035414659862 11.148380519865256 -1.2014677655181503 -1.5621991954735162 -0.41269111085210863
Ni 3.4509684725096683 7.077932809503428 1.1861679627292507 0.07686132923442891 -1.665417931655551 -0.6821815458126057
Ni 6.6947056628953945 0.9496794755405356 4.913410909660184 0.35890491826958837 0.17104572312833766 0.13956847845566286
Ni 0.24516824991392253 1.1228074357356055 4.073233150949248 0.9925874880405422 0.2766987797834783 1.4920595012336368
Ni 0.6226879921077989 8.002488343956117 9.207889590688831 -1.1293714617725323 -0.029206960581259378 -0.647998986393626
Ni 3.4775309470587823 3.1912261377327518 12.738725074462664 0.13446740978367164 -0.011356305553083668 -0.09087769811817896
P 8.780551693830938 4.495572831226755 1.2038683381462838 0.017418966807395804 -0.24350480953001288 0.7180492062434924
Ni 5.257235067116439 8.241550614898141 5.33660454738094 0.31911838240026974 -0.3327082052695625 0.24954895884156378
P 1.4515444008522356 2.4653164978039652 11.22034109467256 -0.4296503644142665 0.9253194589215031 0.035169863032913626
Ni 7.638988347297803 5.582068750357276 8.912672287746409 -0.23190142096312963 -0.781697379221757 -0.946917496807253
P 7.285851289140715 7.872947031374063 4.750031991521085 0.8527703839091829 0.39676158410604573 -0.22005017805149843
P 5.768519179677703 4.409050082980021 8.248211849460821 -0.28342864230814413 0.9296589668371216 -0.3636437185061544
P 5.020490942452759 0.9692325354535433 8.4518898623091 -0.07883722201387712 0.3591468590770653 -0.07992377020983654
Ni 5.890180627440082 7.432746629593075 0.6869153042316084 0.062045090157202824 1.1077950211533372 0.48193246164743453
