# total energy = -381173.59821756894 ev
CRYSTAL
PRIMVEC
9.25613294207305 0.00000000000000 0.00000000000000

0.00000000000000 9.25613294207305 0.00000000000000

0.00000000000000 0.00000000000000 13.54728618497909

PRIMCOORD
 96 1
Ni 8.797334040638725 0.5194088162172885 0.2551545560436634 -0.840071962505908 0.5869746241914536 1.7161794784791347
Ni 2.7925752578674183 1.8631577099134062 11.810117325262176 -1.1111436259105962 -0.20845475990441517 0.15342363917120028
Ni 3.5660639931133273 5.165681090689971 0.06583887242032133 0.9168759561398403 0.7539834582462563 0.06793960126476686
Ni 5.925304139040668 7.547506200585481 3.4739580671074033 0.3941514001767083 0.7557474921252146 0.7997655495773774
Ni 4.549065293695096 2.20613445371526 4.092986937916419 -0.8605382007800598 0.4810071216196877 -1.3109630787375164
Ni 5.696936831244497 7.1721144798096415 6.0570457511974505 -2.0329836109239308 -0.7995336360722295 -0.30765254785251533
Ni 0.2329305812536744 2.195943451531263 7.216016317555963 0.7829078545900904 -0.45165515082013186 -0.6860721391162635
Ni 6.0671728860653085 3.086207557851933 7.639003073054886 0.2708549194081916 -0.7192853926434387 1.363613872164013
Ni 0.42771941618618786 2.7019669741443013 11.10827290891234 0.9954354990122986 -0.025687891684407372 -0.3249599287827113
Ni 2.8724186591745586 3.929469021947045 3.8723697900917826 0.8319986985794704 1.006189395094693 -0.23202689079740038
Ni 1.4544994479483864 1.5654989921722713 2.3207586995333807 1.4323446018715076 -0.6762834351606158 -0.99295489868229
Ni 2.3448376033312472 3.2885281080225197 6.249688088939711 -1.2076720945566493 -0.23914344723752362 0.24384548069888326
Ni 1.7065439433800398 8.848529711010833 3.562475390436909 0.46541415227743715 -0.5708059848513912 0.08258151954765777
Ni 2.402679177034971 0.635433514924091 7.571497171121996 -0.7699122136613709 -0.7478148675416991 -0.5356340649359486
Ni 9.248718611487789 7.012011151220538 4.117047329448737 1.4000050091985372 0.3031022094776715 0.011560451144089769
Ni 3.1319235976219266 5.972019841150237 9.26035542161106 -1.501927138056336 -0.3639311678395861 -0.1646796717009938
Ni 7.430582731386339 8.378808741136794 5.492543832945847 2.356603737849296 -0.27571379016238967 -1.1223533785834865
Ni 8.632667438592119 6.183698341555176 6.405116144864748 0.8336508894709127 -0.0981832306406567 -0.8082069954765113
Ni 2.5244806282059264 8.931779369178747 0.7447771369947359 -0.37543736870697275 1.1184123916578674 1.1596415735109833
Ni 4.907860768407442 6.605972374830515 11.232976157707895 -0.40774559392137516 0.4613764918729538 -0.1734155089120949
Ni 6.364387309433299 8.932714238588904 1.4542735983087047 0.5806641085923935 -0.23305893160634053 0.23246474966576738
Ni 8.32434565589552 5.243006823882628 11.649528049702445 -2.1045602947206525 -2.376885113806152 1.6253776279042136
Ni 3.2944520329977767 5.710746981343066 6.587693363828735 0.6034014022889091 1.7767040182267528 0.7102772756075574
Ni 4.112120289973222 9.066668992091913 3.0080256323776964 -0.26904640544454306 -1.0120864773054183 0.14063240094380297
P 8.891033872708304 4.418285393733516 3.054235949637813 -0.7801164078878823 0.8337007688722415 -0.2207988832920649
Ni 5.123574942701775 6.524185185640866 8.505216043976011 1.3869193796591726 0.7881379926407781 -1.3975218377653673
P 6.13400216469243 2.4764690675080203 5.571212631003989 1.0795465678306053 -0.4186897516377048 0.3595770046359485
Ni 1.5484677078684064 7.517044267626775 6.138464546302699 -1.610440289868091 -0.2233879841754798 0.7907700309469866
P 6.939452326406408 6.156892581042136 13.364763501757121 0.36509767734386156 0.9299523297078243 0.933576813834289
P 8.282535704156086 0.19945670269036078 2.67304248483933 0.01235312224871421 0.415247301615059 -0.030297108321644593
P 6.0571392381384666 1.7504365249935872 13.465392474821195 1.0964826814643116 -1.349570249586753 0.3387407846168876
Ni 5.552439342512087 4.65907443171218 9.811161040197213 -0.4439552110727128 -0.1322593463887593 -1.5894096944500369
Ni 4.668284283822151 7.599044347870221 0.3649757945654385 0.07014200823272436 -1.010504734640595 1.4152174552729175
Ni 5.955784584264922 4.791400105846992 12.101438368893064 0.8589598005493466 -0.42012237031917327 0.5748981526428938
Ni 8.05381666331451 0.9530947355894934 11.618653293222026 -0.7959556889129841 -0.8126138662949554 -0.044569559080258725
Ni 8.69870068980069 7.547830165232566 13.268807950130556 -0.1525720898041824 -1.6585862534456983 -0.898074507162621
Ni 0.6833932412784637 0.5874330615855133 5.492666013898463 0.18043230654956022 0.08601831314334864 -0.5214104651373987
Ni 0.8779478960517989 2.903676619551815 4.211594097667122 -2.019785109955786 0.26662468337692796 0.5348917874532853
Ni 8.71126126197479 2.5433168584006904 1.959181756922496 -0.8074737168549125 0.5050613343554141 -0.04117853112083876
Ni 1.887131093797651 6.846678107614213 13.439232792375769 -0.7201587963873274 -0.3434937259208407 0.06576856175537706
Ni 6.480329628558414 3.625608695247437 0.9113532792325861 0.06779099150204454 1.0132090209456357 0.5922970648456315
Ni 7.153250481216556 6.256599643281937 9.82087442593008 1.0160454619531663 0.3564875670773473 -0.26278576924681196
Ni 2.8904310935524506 6.53516295911064 4.3162467116479855 0.060785249608172734 0.03590931230209944 -1.2346072283845964
Ni 2.212187964549351 3.577550853885662 0.9527115316926563 -0.45403110725147616 -1.0368865670682335 -0.1425429877029545
Ni 7.801873985343369 1.6158616105947328 4.455377494598124 1.7506399741498497 -1.0789827249073354 0.5928143708016823
Ni 9.181047024778248 4.971505937360363 0.6379474805854658 -0.7892232552851569 0.0446142962752651 0.7735341266846743
Ni 3.90896668785299 8.238300645629907 9.64207741159093 -0.5426403210504525 0.9137091283760844 0.7283770705320618
Ni 5.549875393733734 0.3446345171816485 4.854981407483773 0.8971301409714808 -0.7689321091362886 0.8221194917925454
Ni 4.545131437266214 3.99866787056427 6.002165214368079 1.4076157316662596 0.11562970825187828 -0.26570911354119403
Ni 5.128017886433217 5.790136832144289 2.2512469936283996 -0.6830534068945978 -0.8010279612295689 -0.19730774214866018
Ni 4.946866111916402 9.095844322595054 7.630941907022149 -0.23830346783473155 -0.765168014108166 -0.7917606769950299
Ni 1.881346010814001 0.13014770609312695 10.02531648173243 -0.32777502963400323 0.21041419762363117 -1.1374920339971377
Ni 1.1957812807867947 4.7110383611045155 12.376868483777821 0.632791168304936 -0.08582085242056188 0.4656409235762626
Ni 6.565865551521466 8.452793010398093 12.682779043886834 -0.12743955640261279 -0.28578917212052074 -0.174041572531868
Ni 3.7969767374223045 1.545376159521944 9.195491219971824 -0.16415413821482697 -0.08822431965573192 1.2728798987125498
Ni 1.1282115115377653 9.300654772481803 12.085452101979364 -0.4587665650539325 -0.1512160899969202 1.3898640641097935
P 2.58456218604092 1.6216837181094779 4.816358342258373 -0.2191222669205904 -1.2314334586423052 -0.0763738480750491
Ni 7.226475747590401 0.9091021877419884 6.962762971184046 -0.46293895126406726 1.5421481903599117 -0.05563712974832999
P 4.853675367149385 2.9558812083962707 10.724546040573658 -0.4327577996949966 -1.9676133130482372 -0.28452316092390356
Ni 4.536523233786544 3.168920360318964 12.875611132350958 -0.7911618670687665 -0.9880888288392401 0.6639416257658114
P 1.078367236550639 1.9952519807288718 13.496334801070862 0.31506066739112837 0.12739533342823867 -0.6924790710838719
P 3.082505104742397 7.729463258653621 7.668332980975352 0.5676633254573513 0.2890045937340249 -0.1507311799407017
P 4.844308160782259 5.404341218130653 4.539980399377573 0.9382073706277649 1.7513606543659581 -1.44544231559573
Ni 6.2558498965272555 8.43263315321667 10.335224765586466 0.3457172159347207 -0.40586251796604944 -0.2619409047480134
Ni 1.5910366624952947 5.437913211701369 2.3681871238665346 -0.3547150485579568 0.838750415481007 -0.015442816917631467
Ni 4.937091635707228 0.7935060479826147 11.704909343314883 1.0278229142040687 0.9239344056485185 -0.37633854036500347
Ni 7.3291540284506045 5.9799708592029654 4.591229755319768 -1.8583077472421738 -1.192256017111895 -0.5278518498873683
Ni 8.259774873665215 3.008668933605478 13.071396852783215 0.2551148829651155 -0.6438307139485492 -0.6133543997365629
Ni 4.246491569451052 1.8634446500293953 6.542201322471868 -0.5200547224404528 -1.8790202971991767 0.6526580824321921
Ni 7.899211477593067 6.289162718380305 2.1527987654458416 -1.2528085818839714 -0.4234956576667803 -0.1796110961998455
Ni 0.0006849538252641329 6.8549623464468 8.368673275749439 0.4860775941640597 0.30632997238634985 2.4511151760653207
Ni 3.023293623388145 4.306554615020498 11.126453804906717 1.5327814044330312 0.15845400250625616 -0.5339780173897641
Ni 8.091896393546087 3.7618774819439045 5.840343021922871 0.48958175066257625 -0.4557851138281053 -0.17241355001014178
Ni 0.8534830115172635 4.97108941138554 10.05166591489972 0.4077481650245364 -0.9564082099065077 -1.20990484054191
Ni 0.2131557791956434 6.885054034094552 10.97569917041919 1.5629957232328824 3.7608729216408263 -0.33989186750219524
Ni 3.4044241464837657 8.326687457487301 12.215208273656158 -0.3319720984344864 1.0390205826921008 -1.3752285735848058
Ni 6.097320110509704 1.1769635628575787 9.183799798665188 0.5247307877598834 0.871633282251957 0.5666256282214563
Ni 4.394080606529926 1.273116270112225 1.3789379336624241 -0.12145222847092631 0.09942353080566102 -1.6712615349205215
Ni 9.206251474321414 9.079266588797108 7.551813079165148 0.644138217886639 -0.6161368475777067 0.6459197352670941
Ni 8.528184211841017 1.411930493321498 9.358248281827189 0.7800122782098502 -0.4705728136602411 -1.4802195711759152
Ni 0.3219181161280913 7.938327894695312 1.778460392579664 0.6773607273851947 0.3407737558865163 0.7437864631085965
Ni 1.339075472258606 5.031226506017177 7.6162431681772915 -1.0482444152832142 -0.5056367472429097 0.8147982755407839
Ni 6.633648211824294 5.174909455065489 7.021246920502274 -0.5524897030407065 1.0083943731658118 0.8063236624108694
Ni 7.143661127662859 7.950073927185315 7.881865484774891 -0.32996843774089624 -0.4871785405377223 0.6979799462974431
Ni 6.689657071238798 3.6851163728504526 3.7830656954765005 -0.27724591053619996 1.5305874821055059 -0.6132880652750019
Ni 6.485596368106729 1.6851900450707917 2.6268867787625787 -1.0880564050738293 -0.23858911739595043 -1.2344912716320222
Ni 4.380899873459978 3.4124121890675894 2.022866727246345 -0.1029117464645776 1.0927496967844408 0.09032208272502508
Ni 8.404152032671565 3.7796307446041286 8.366125988010078 -0.7217451670378409 1.681621537998607 0.7384681362194766
P 1.3786917205306397 5.228271060506675 5.444803476938215 -0.2640273549633969 0.17409710836015177 -0.563985362385132
Ni 3.3971395699907534 8.622892962382945 5.394339966668518 0.9841182742272665 1.3629520702102977 0.5314971599494395
P 1.3071325580560857 3.0850320289896547 8.939691511473825 0.32310410652089516 -0.17538291705111086 -0.07380608734787289
Ni 7.296831612804357 2.9830849826185855 10.463042703060417 -1.0940262495040192 1.06694713389904 0.69980517243164
P 2.5779810756387196 6.6682754045312285 11.205190172734104 -0.813940812636495 -0.7636605763247042 0.37897160711247635
P 2.949318610259618 7.230215225231032 2.120569836740609 0.33475917426132024 0.2302392027693583 -0.5269411651476409
P 8.417332765741515 8.58715503374315 9.939372363314053 0.4504888984261725 -0.670831153796793 -0.36288447174262667
Ni 3.5187558985062326 3.7218169392987264 8.377749839547466 -0.15969455978157657 0.34667700874482876 0.005963930892918761
