# total energy = -340894.6437904278 ev
CRYSTAL
PRIMVEC
9.01630398958969 0.00000000000000 0.00000000000000

0.00000000000000 9.01630398958969 0.00000000000000

0.00000000000000 0.00000000000000 13.19627227074460

PRIMCOORD
 96 1
Ni 6.30428079310609 1.8533373199517298 11.345957166275985 1.6890391706189167 1.0190009450370645 -0.47400832170435137
Ni 4.572140629399391 0.4324886529138456 5.876366111131323 0.1281113856586568 -1.541870768328809 -0.4099150907688683
Ni 2.6692677361393584 1.8426800488104098 4.860648827889692 0.4290181301469063 -0.46765049780712364 0.08539893439179486
Ni 3.360863322344917 4.502408535484864 4.640706915227139 0.7410775488178657 -1.3715971474798054 0.7754197737431614
Ni 5.0779642912430525 4.603237861350672 2.6126904295304034 0.06494169497870751 -0.5175314417979668 0.3312146514431715
Ni 7.488166569088371 6.323530601808897 2.847741864171489 -0.9253780800735805 0.5570683235503245 -0.9294617632246508
Ni 5.061671830200441 4.52212719198746 11.45659442746119 0.3425591299217133 -0.4171002956633978 -0.44423700397918975
Ni 5.6070139517838715 7.964263477164747 12.72643172633949 -1.2840536559411821 -0.06437888049670204 -1.3090211245197971
Ni 1.7594325154366282 6.525279416578933 0.3339729106139118 -0.14755355354366845 -1.4300570913889112 -1.2025993080194322
Ni 2.6957937020427125 1.6463049511302446 0.3377002506222213 0.4546803107997008 -0.11134959281928565 -0.3245547229244926
Ni 0.5852825443430076 0.23447348956480885 4.719053185832374 -0.3031970831843229 -0.6807579259922018 -0.3116809522856181
Ni 8.698929946823847 2.259161155883054 1.339765046586198 0.042883172516771303 1.4416424822336655 0.5290476699676824
Ni 6.729850334451535 0.7032753062025693 4.574117904831956 -0.055007466584131075 -0.2198660870651504 1.0189510656357355
Ni 0.6762038539167706 7.3082281933122895 2.31498199459966 0.7065702590696153 0.06101356356889492 1.267086431959224
Ni 7.676030275941628 4.087234792469319 3.6192489513292654 0.6596273146611737 -1.1131004925266508 0.29094526240016344
Ni 7.583441851787467 3.893077705534302 12.55374516374358 0.02493712956131189 -0.37496788526972197 -0.7771311000073132
Ni 8.028576772470192 8.951557764174654 6.8180388023307685 -0.2132508957414779 -0.6171002399322405 -0.04159530694328321
Ni 7.1103473728905 0.6761750017444759 0.5681533703038536 -1.6698494850643435 0.6415254628541402 -0.9028755280956902
Ni 1.9340693045535757 6.421285368064561 9.290360708756758 -0.12267375958285326 0.08288876637543144 -0.08766330494593934
Ni 8.96796743716721 4.982057867275012 1.2783099195986865 0.23901746318262063 -1.1300034389295763 0.33609974744961474
Ni 6.499357543032997 1.8234031911960757 6.783833650445128 -1.0418595948027927 0.462430644169081 1.355427993919111
Ni 3.3670755556921 4.302345769533295 0.2583180067055327 0.3759289636314106 -0.5580435429794002 0.5566448628596606
Ni 6.14592744872791 5.5531144874160105 4.7076908397306045 -0.7470738756106167 0.8098846402892503 0.8737675549861402
Ni 5.1505365208678295 2.733599064052489 9.070642400429488 1.296738193387386 -1.0274614170995917 0.4830799449883164
P 0.018922516873340803 5.654322498043184 12.1606153819915 0.6810924265134851 -0.6114597538170116 1.3511365656326086
P 4.1400883655915015 6.144160253174866 12.589071943827172 -0.8893078167135845 0.08438797662877726 0.05479303658047983
P 2.2850920457328314 8.375136443247627 1.3492529031192027 0.1137448325243396 1.396061708280073 1.141159455546396
P 6.484444576478223 7.766373640439114 5.709921535685276 -0.7090889117264111 -0.6175064742317236 -0.09665136737716257
P 4.784582780526115 1.1561426090602491 12.574107584340497 -1.8600928641670544 -2.2216655590767935 0.4490598792891298
P 3.97163676091021 6.077241246059063 8.191453596485935 -0.31372600774010484 -0.051460886883453315 -0.19148162238518637
P 4.549536755667335 1.1102225735926143 3.6651987405995787 0.7062784388608094 0.12671707641429142 0.38572640933780666
P 0.4200885302398542 5.566954513813579 3.6138382673936427 0.2006776870621576 -0.013484150529363874 0.19256251415419093
Ni 1.5356298214689026 1.1431050337046238 2.527376359316021 -0.7890836443834991 0.8516951485671332 -0.07658390720332617
Ni 2.071378595764376 6.507986145809854 4.877420956296701 -1.7762952128241085 1.0583861317029062 -1.5663911220676765
Ni 5.923621461197968 5.601622202086317 9.144752811489722 0.39355053336791573 -0.28305017592280285 1.3112150468473223
Ni 8.548285542230634 2.273199540965148 10.138643426390482 0.21468634263642383 0.0073168453763873985 0.1912795336767093
Ni 2.202863354693203 5.522341842403045 6.923213085018067 0.6413411147574761 -0.9538170521405638 1.6008906985064428
Ni 0.5282390948254182 8.955119204192268 9.381665211243808 0.3441691547213105 0.5632752236919847 -0.7818519025217503
Ni 1.3945967967713295 1.0347831593460606 11.483581126490874 0.1882561734693532 0.8282541439353736 -0.4292762689042994
Ni 3.872250043659133 6.848396697367 1.4967343883246202 1.5880758061299616 0.9205850295603114 0.08440623146122239
Ni 5.5959148817542905 7.555310983800226 7.858156007029795 0.3706175787208263 1.2572167382539963 -0.5600613447403774
Ni 5.198422110573035 2.9240143848930495 4.914700667792485 -0.15936520146661587 0.043598196305924916 -0.1658112142022757
Ni 0.7115252242180583 7.3833069554051605 7.1835092687865485 0.368343695084985 0.4877624380656503 -0.26342725948555273
Ni 5.110657408974379 4.374683575258178 7.234024914322482 0.09311970007482026 -0.10175372160073444 -1.3023640242145957
Ni 7.966192966186948 7.294063579976406 8.956917055178376 -0.443463616148275 -0.17278378886536694 0.5036989067902486
Ni 4.668894585928585 0.2952785410453077 10.426849578702075 -0.8154508215231182 0.12326896996469092 -0.04869489410254194
Ni 8.459610193943929 6.972965951248963 5.120087561162794 0.271185563274733 0.8104271430562817 -1.2342138496009196
Ni 7.400798584858766 5.912765831372122 6.949090778675176 -1.1498978638606583 0.5610566187741112 0.14899337131398857
Ni 2.5094086690195545 5.190550877318913 2.4887640381123792 -1.6255252092256716 -0.44281466971036637 -0.12599742463944755
Ni 2.4148096091086138 5.074168427325543 11.306697474456483 -0.36853112850544273 0.23418867433540957 0.08218711232271653
Ni 1.1074004704900482 3.4432092253344924 3.950791968057741 -0.08263345583151575 -0.35860641319256303 -1.3480255308074525
Ni 3.5691219084889236 2.760792236440156 2.6377900161659427 -0.07844949965715522 -0.03849635630298531 -0.307673888008754
Ni 1.0986005579401932 3.2364022641090586 8.16341198990673 0.2726390078918079 0.6199299960715517 -0.5243929448044905
Ni 3.7671019082529766 2.253309574689554 7.107789447490506 -0.8392888044829804 1.4901031488382144 -0.6102348802709748
Ni 4.140881800329603 6.713440661458977 5.84557904003221 1.4349457869397804 1.0165792229694492 0.9042089021951331
Ni 0.7917360664578327 7.426684393189333 11.26169890524151 0.09151661725375852 0.1586992857478428 0.4411061716596919
P 0.15656901784783459 5.558866889267248 8.233576866405677 0.48385461837081184 -0.19588900742426263 -0.818037608413688
P 8.580221290439226 1.627947756507801 8.028703902354366 -0.43157072136543095 -0.6483946791701478 -0.159133545071784
P 1.778429867631858 3.1111658037427823 10.349215596100363 0.03792659984244436 0.1806567638555405 0.12117300666761067
P 4.161682413293246 6.219022623975527 3.6784211501839668 -0.6767503474947054 0.46606618403913924 -0.04736049156183456
P 6.797896379547596 3.7526577894979893 10.183325523340603 -0.5152621861478158 0.6183626515844318 0.5193132162887378
P 6.185472957379205 7.781439884159203 10.200045357185326 0.586817529788299 -1.4708777249496992 0.13826107249814898
P 2.45789852516984 8.52756607600157 5.826800784020342 -0.028664972034860313 -1.2581613615554526 -0.3572002768736558
P 6.871505484114211 3.8737557664007576 1.5530430090790817 1.8906743364983376 0.8658596129929732 0.10761198015372436
Ni 5.5267147497664455 2.80024758205303 0.31214353738188944 -1.0270886071412053 1.3773818724823828 0.6451738582400051
Ni 1.4851655688648675 0.9333136759074665 6.936858359252647 -0.755134541131564 1.2043862247165258 1.2098580464643744
Ni 6.826703470322992 0.6750281278957654 9.278945166462321 0.15203035836809947 -0.17214975482579384 -1.2427995343874016
Ni 2.610733891596676 1.4647706895741175 9.090040978145689 0.4916327196543339 -0.49391611637187194 0.7992104484048558
Ni 6.36205726812604 2.2080657620100745 2.71592440363089 -0.44920437528679413 -1.2058967478237812 -0.35271858695321834
Ni 4.022966578683083 6.873317761186466 10.542712689594142 0.6941150640253981 0.049422259186869724 -0.36768266446221837
Ni 8.153650939367312 7.098608145288132 0.44178987195731934 -0.40986675402943606 0.08976518178029057 -0.6863055952833084
Ni 7.6494592285190635 3.8123908024516666 8.053473492269285 0.18207986945531224 -0.7095843633055908 0.7314243419988177
Ni 2.985171973853773 8.396523115961003 12.529887122147093 1.509977519164638 -0.24373955124863833 -0.6769406091286406
Ni 8.9971802616155 4.616167241060192 10.20185312610566 0.08617592176713545 0.7711070053004203 0.3850468667722788
Ni 8.592402316929855 2.267970084736751 5.7760876814302655 0.9073389631836825 0.6974896369245859 0.16645836086797142
Ni 3.7063049714459355 2.548638607036377 11.230001187454347 -0.35102680107309225 0.09491355875044945 0.24738049043533522
Ni 1.0269930728265169 3.414627542155148 12.538675313501953 -0.3364692149738915 0.096520241115937 -0.5365660898319147
Ni 3.078175147984669 8.197262801051377 7.965560021657235 0.5270249831106989 -0.03919003993590025 0.10472540263454867
Ni 5.478324247046086 7.907190273844478 3.537656811340887 -0.0002856495612188629 0.314655975753542 0.09148910644993276
Ni 2.8253760208608636 8.654704976478522 3.688608671895115 1.4770835966500948 -1.211305063323546 -0.7314899051294306
Ni 3.4122923194600534 4.17152821708878 9.11599801527661 -0.8702317739187401 0.5867990178455378 0.09241213248483439
Ni 6.955816941341356 6.150570845206574 11.583489887734407 0.21761277225459943 0.12614166352679568 -1.0291241495139953
Ni 0.4319170192502587 0.0761922756173662 0.4016456807309113 0.7910153141885732 -0.2225955701811715 -0.39342557775427733
Ni 4.556812912867882 0.43193685511871127 1.5177432779070148 0.019209225938599177 -0.5464787209599363 0.0977461431032381
Ni 5.9433942155236155 5.46716206288961 0.551704025574391 0.0008083548339082853 1.6064183131928915 -0.6638416098528374
Ni 7.7018439538414585 8.67491952969243 11.498703271294785 0.6420990759694232 0.2139018990619155 -0.034328598078540884
Ni 0.15103030239765433 4.730304631396886 5.767087606935117 -0.41351720629782973 -0.13240204261421068 0.5136956129916443
Ni 7.970592922461876 8.836527759757594 2.601922257851826 0.1818052756376869 0.572081252019389 0.8136065692255278
P 8.385775681781263 1.793541192871158 3.6493895534429033 0.8030583613960364 -0.030315106043773594 -0.8274820416560394
P 1.7403900817221878 3.255038964150606 1.4374963704518722 -0.10855146124885821 0.4419068131841163 0.7977518615814584
P 4.832351158281373 0.705606020745743 8.162751996465492 0.41660355853263736 0.5771645800795673 -0.21600866099227314
P 8.462116726412022 1.673227634402649 12.273034264815896 -0.42942564999797017 -0.12553539740136446 0.8963138157177725
P 6.3827316528358935 7.8412269949359334 1.4583204258055045 -0.2878573675034591 -0.895385133255916 1.6067075622985363
P 2.021716794202285 3.5566703928830328 6.0628422088232865 -0.14485826609969243 -1.1925568361817656 0.37317634058693794
P 6.97291185342591 3.8747475598233847 5.917881682172109 -0.4219565953144346 0.22095829168806463 -0.22737036586199552
P 2.57079166557633 8.569924671451588 10.33780095543631 -1.2004940887509712 -0.5828150934971253 -0.9883515955823235
