# total energy = -381174.47891740914 ev
CRYSTAL
PRIMVEC
9.15142112424399 0.00000000000000 0.00000000000000
0.00000000000000 9.15142112424399 0.00000000000000
0.00000000000000 0.00000000000000 13.39402985514894
PRIMCOORD
 96 1
Ni 4.1686828869168435 1.9640414346993353 7.955960157839302 -1.3913951560423392 0.3815532517967235 0.9180375805481092
Ni 0.45367988088927486 5.934028662251583 1.5551943667810975 2.581189084766987 1.2992241930340334 0.6285118242032918
Ni 4.3741597494681175 2.1716322755719624 3.689653569013939 -0.3778783740482976 -0.4900121533317754 -0.15450813048463066
Ni 5.899015324340339 3.641853865255964 2.5811501426718246 0.964642682001158 0.4047623429233352 -0.10012029976236951
Ni 7.485835172865733 7.192587028582429 4.605818828371736 0.04978144229850136 1.1367865232896808 3.5554389508406055
Ni 5.8222989595442165 1.2794785154330686 6.6866214172116845 0.8007320272557049 -0.5113708215132097 -0.6366138844851358
Ni 4.631342142390151 4.290817755647494 8.369112054339203 0.09524960193362951 0.15073323682323073 -0.14770242041670692
Ni 8.914966880892262 3.299499194252394 9.816953843222906 0.15056380112490197 1.0676513590549161 1.3003624204035347
Ni 3.345539994835633 1.1824917524473473 5.850365453543171 1.060575426044741 0.7425587613490825 -2.408128902311782
Ni 8.382116224012982 6.517660555949864 7.469837573283233 -0.4754597094388972 -1.0692978935194035 1.0097195197351385
Ni 3.8336493529569213 4.840635147625427 3.184470404164734 -0.4652717131623019 0.8439435296461724 1.738352415031748
Ni 3.014221937925362 9.074439548545516 9.652849641247414 -1.043017876776952 -0.7606187041745868 0.12443265125548893
Ni 1.836580438769431 1.8626619894874255 3.554520936604422 1.7041017213789942 -0.6602058128724629 0.6935813030091151
Ni 1.610933843662908 4.231525697015254 -0.010729126337465523 0.3098104747357826 -0.41837222039728594 0.19529353993210882
Ni 2.1904475977741367 2.881517177587945 9.262158993197422 -0.6233408215253136 0.053690033324288185 -0.10673086310035168
Ni 7.670757943166966 3.204836892278031 6.334786788878721 -2.6154564905902893 -0.4497702750925931 0.8169973400746317
Ni 7.13606785060547 2.9569248891375146 0.26277757190764245 -0.20878051867495012 0.8471340115590121 1.1491381028764984
Ni 3.6202290567132898 3.5102381240537897 1.469164600523325 -0.3906811822399207 -1.2687584203450084 -1.028183639977597
Ni 2.4124153215162263 8.075625973101982 5.839208040688651 2.0032652579238923 0.09253837365005353 -0.7603181422150325
Ni 2.0983842994502684 5.555352000090218 9.924386953627781 -0.8086535960956266 -0.11368389737941713 -1.3123291058471076
Ni 1.0460349093750612 7.799847892089082 10.339092761465198 0.11507152175556311 0.10042266149413673 0.08715628340253377
Ni 4.833753278804399 4.011708557279735 12.861898932751934 1.3934857200227806 -0.6297675509872638 -0.5035880922439973
Ni 0.4910497097864434 1.1500957210292069 9.52016867460539 -0.3147364512824902 -1.9136767109307817 -1.2961391263508064
Ni 1.3272306318002598 8.151262470184166 3.460494658410726 -0.1947752055347936 0.8763489425600713 0.3702105730903947
P 5.228810985100926 2.1002054322898758 0.879756329697607 -0.15847611399344322 0.026303413781219216 0.41246176845012195
Ni 2.731040357077074 3.693184187353238 7.1626719474799545 -0.58648740014239 0.6033836616770963 -1.152923023840227
P 7.021135150441507 4.250514896222215 4.546308965912446 -0.2874621889475694 0.17677285542010202 -0.3185619956761675
Ni 9.127517792111961 3.075893366096788 4.521958864105275 0.42844503125225564 -0.15653673087888528 -1.1850397018691141
P 5.235290191384554 7.386185346280385 5.591069997441913 -0.19695447257429952 -0.8528634578436215 0.1303724137786916
P 0.5739533505265781 4.888121872774787 11.37425029147766 0.5599615859377195 -0.5706671452806817 0.6953520217562927
P 1.9872402877063935 1.0767653821157719 7.34870203975904 -0.7063059496646352 -0.18405319113159915 2.0624098866048484
Ni 0.998090613160474 8.380176122696415 8.151901239391224 1.278758211870198 0.4248588565628941 -1.3452199430378575
Ni 2.9434265427132895 3.8725611963439084 11.319468968406436 -0.6026830360656459 -0.7093658195368815 0.6838779596784221
Ni 7.390074700334822 4.435886086167371 8.423973909917907 -0.6223643165446572 -0.7915614165000303 -0.46569877339739146
Ni 5.774363814750934 1.8660297125275034 12.103247021746084 0.48900222401002236 -1.0377442870828386 -0.8697134395214247
Ni 9.055249018069855 1.1243893785846992 2.589682012754065 -0.6422731396534423 -1.2162822048231634 4.315647049840336
Ni 1.327148269008519 1.9080987962645632 11.517432514066666 0.4852517558286546 1.2157139910245192 0.7581679286412492
Ni 4.661752315385203 9.224083589717672 1.7716547651821033 0.35702184231426254 0.5565900983623253 -1.0148969501710199
Ni 2.0820764666855434 9.095972842875144 12.722707644993845 0.044670089213865 -0.4579047312742695 -0.16662959633851301
Ni 8.103665927979153 8.177307415216942 9.13743427223758 -1.0975283491200065 0.20891550159091762 0.9330304544125158
Ni 8.28570600056945 5.7703554922195375 10.059679735910128 0.8640117611509572 1.7732194021122623 0.049763701686688484
Ni 3.502541778736655 5.81497782250057 12.657586130990602 -0.6229194177171787 -0.40728099558013087 0.6164968020202867
Ni 6.44523620774558 7.921699066759291 7.349036066636656 -0.9892856773608188 -0.3706263204715746 -0.6072845393933993
Ni 5.941596887670454 6.248810100864516 12.135714434250401 -1.1859511579397897 -1.9167669198203312 1.122388602696796
Ni 3.5934703008187583 1.8530255428537243 12.847205410705334 -1.1667583870614227 -0.12073283380639853 0.26352136186125585
Ni 9.11746038009825 1.599906380990914 0.6151118678438343 -1.3085362144635788 0.6886694675297946 -4.401926329954554
Ni 1.5369079967303265 4.013721869966738 2.620649507306564 0.6749806571887923 0.5266269763413317 -0.17874797686860183
Ni 0.250852354805671 4.764760713589324 6.048583408715668 0.7539904002247918 0.7784207653530142 0.5327893963983018
Ni 1.327084209059387 6.70293108026067 12.305684697282112 -0.4154956701804393 -0.1360365540430044 1.0408021000725558
Ni 7.450730320741443 5.472650605760913 1.6491135733455302 -3.0071820549343244 0.5168223315460841 1.1485009835131317
Ni 3.757253287906459 7.151460541239739 3.7783884954093385 0.10895101068012204 0.7190403665121681 0.5677288885879641
Ni 6.030731731176863 6.192208560095815 3.437014856769618 -1.8644277440969828 -1.6294880505281615 -0.1127521295937671
Ni 7.010107687769514 4.33994258521037 11.382032660155057 -0.23807206855021582 -1.2313283005230085 -0.013498548707067074
Ni 2.01452982603659 1.531746595114555 1.2462524501026047 1.7979264179406393 -0.11797763965876457 0.32782876569007413
Ni 5.986987937341069 5.150136216145628 6.641590933540469 1.0878646007779975 1.8252760135981856 -0.8397037805332118
Ni 7.327625401352509 0.8882488486682382 10.558125624394917 -0.5670164359019718 1.5018469196377038 -0.9965598424247288
P 4.446657309042838 9.169175061890316 11.383090564457865 0.4245559806104946 -0.39817929038917876 0.05018536260513937
Ni 6.6960217571757275 1.98024860182971 4.51919971058195 0.6311667453276355 -0.1921411103460562 -0.2768098514400459
P 0.6316375044356078 8.57505563937701 1.0180123421983696 -0.6667446424322452 0.020020666096301005 -0.21412918458137317
Ni 8.069549429355755 7.048360628822572 13.350539988451017 0.060674435061921314 2.502886137990025 -0.15799891724670853
P 2.728944681598329 5.905622650522231 1.2431052763159665 -0.713723582284945 -2.0007239795592766 0.7329490061734603
P 7.483153806423497 1.8926786513663805 8.631541872237273 -0.4056226340411014 0.6363120369740008 -0.5611512353704464
P 3.4854286208971286 0.16020935706827039 3.525362678043835 -2.4282346719227212 0.6093905299928086 0.6805087860958732
Ni 2.7261809523643525 7.973953682408325 1.5102435004752315 -1.2231280241004032 0.3288114413183176 0.3346524734801269
Ni 4.919017071098979 5.664144096558821 1.31769668108517 0.5306255559777636 0.6682798481298491 -1.0965582718972533
Ni 2.5572914721887074 3.8178356969426424 4.747112197603482 -0.44296250814214033 -0.7805882053179782 1.0863592198770646
Ni 3.6540984669614645 5.718009362357457 6.031853695428803 1.1923205518012434 0.16912793728033454 -0.8289804805784369
Ni 5.963368118954001 6.459439213610256 9.43799623242749 0.8545557579443799 -0.5188005383183775 0.394156799493347
Ni 0.4470698092809915 2.6804238458415552 7.320748108242133 0.6695155203091631 -1.1324578140073398 0.6049134680580615
Ni 5.573050848893235 0.37785852509673873 8.967597619956914 0.44092902265187933 -0.39656592315547184 1.120114461950639
Ni 0.7465994891477448 0.9554998984090542 5.442088519172206 0.3475720097552724 -0.0208102518771319 -0.015144311840606177
Ni 1.70125837193891 6.1028723853207065 4.590281545280855 1.2804847076430013 -0.40307672769079617 0.2229655519260805
Ni 3.9900654458944516 6.643263813354943 8.270505489782575 -0.16080733322978114 -2.295988181049768 0.7255987364559762
Ni -0.2067040681482152 9.276155176940616 11.814003539425658 0.5749068943936422 -1.5583515395926517 1.5598494642944167
Ni 6.789695705649199 0.1390466953014766 13.617442105940624 0.07629748631115892 -1.1231496492325366 -0.8114242168622283
Ni 5.587354520392262 8.98629305854 3.9535430386100856 0.9228514569969849 -0.8583363080327346 1.3030445952213883
Ni 3.855539552717427 -0.5669781372082429 7.607354150942586 0.4578134571120438 2.3994781686153193 -1.73744044474044
Ni 8.098833977530344 0.5745399566322004 7.089245518642822 0.5430843505664067 -0.4869810798149355 -0.3438125427128401
Ni 6.68454587485981 1.17755913636419 2.2457633638495462 0.6129432803410734 1.1774711454932365 0.6310147931308036
Ni 8.835834540871737 5.523962625015578 3.9665353114361683 -1.1773338485844238 -0.6902663797032693 -1.9416608548485335
Ni 4.809639283666884 3.393191445568474 5.7348818378166735 -0.07961189539637256 -0.37940663776736594 -0.09342977511607135
Ni 3.7612707618591603 6.952124282383825 10.757870951783143 0.6760304386095455 1.3674939239447093 -0.6162206655407645
Ni 0.3309190549413923 7.678408531377578 5.943252379784449 -2.082895922373342 0.3424233756747974 -1.3817229230598977
Ni 3.869806618531236 1.8391702909986214 10.423180596122144 -0.01027309979123392 0.7974885806177426 0.8314952765804905
Ni 6.75300765763922 7.990719086238279 11.303235262154278 0.234593365972996 1.1731177536205473 -0.7425633893347727
Ni 1.8072409820670132 6.256039723695118 7.37120355446269 -0.03959627423538342 0.505469111316794 0.023324790768869504
Ni 5.824513603499921 2.8304888523937213 9.910752251026118 0.9165604817819505 0.5614751943687685 -1.1434017146133533
Ni 8.444446554518338 4.867531174839527 13.225305533324512 1.0284302087707644 -1.5219807142731014 -2.112656955685858
P 8.265371542430717 2.2224958751827035 12.029821508051082 0.1316502520498507 0.16839080200399384 -0.7737948365452286
Ni 4.281602274393803 7.973807259667453 13.176979622841525 1.161796157960141 -0.08879561877816965 -0.7601633618047231
P 6.207884944790525 7.411479874766187 1.6030105430974204 -0.18796435326054725 0.9672932322501276 -1.3671679080638584
Ni 8.109962105836688 7.908932834039431 2.529596525894719 0.5986844564292141 0.49455812083124495 -1.036303440871254
P 8.133078596052007 0.03778347314013469 4.567015886898273 -0.248609734856746 0.9535013206723579 -0.4948494268194187
P 0.7836645757154715 4.642561784909542 8.15791555347258 -0.5781865935861784 -0.21416800823910856 1.374305290439588
P 4.628761441582267 4.797220804956598 10.467219980866075 1.3511062266153053 0.9457949531670355 0.47010358733330654
Ni 8.52881350752507 3.60724318988212 2.183441269623366 -0.25713165628482815 -1.075073105440284 0.23699014833994672
