# total energy = -340863.7214566727 ev
CRYSTAL
PRIMVEC
9.25233477143843 0.00000000000000 0.00000000000000
0.00000000000000 9.25233477143843 0.00000000000000
0.00000000000000 0.00000000000000 13.54172717833462
PRIMCOORD
 96 1
Ni 4.9240185986109815 2.3344751154709837 9.233697890888624 0.21916828966717739 -1.4116811599848849 2.1983410254182396
Ni 4.133795182118124 3.8072340229162296 1.706948456248839 -1.1792246378492337 -0.18197445422569952 0.5270962026682664
Ni 4.246174041437183 0.39671236217876826 4.952683257268677 0.556845408906241 0.7849943048054738 0.1692698621748375
Ni 4.000626326348387 8.006480221897768 7.178374970750702 -0.6937324838749988 0.02942678990154932 -0.11873200132628584
Ni 8.434095382539047 0.37799396350526343 3.3825065159875702 -1.9467876345521375 0.5596389124909781 -1.6288324192220336
Ni 5.169455285681349 8.421438188438234 1.7009085320463457 -3.5617852047736074 0.967675812400527 1.710483713645938
Ni 2.3204023141352117 6.814631453410695 11.786448539188497 2.1078865308804082 0.0246710203841188 -1.7485764067526013
Ni 2.9838872475922975 6.246473326109073 3.3650519862571726 -0.9863667039418109 1.3375549702934317 -1.2024375856305871
Ni 2.2126218652460525 8.079971517762356 8.855193198498592 -0.0931315271493622 0.6636557190942765 1.6359111804456858
Ni 5.782764807143765 4.275448428962748 0.21186273953117263 -0.20925668698042027 -0.8399452071200565 0.7214680021170543
Ni 5.106150810507547 1.6038922495437993 7.217686291142173 -0.5691694776892327 -0.5623946208592444 -2.031761822701688
Ni 0.9352260085600648 2.9414837968876 9.616075610654827 -0.6594676491548578 -0.24217606341626033 0.2513811269542961
Ni 7.887448933807885 5.696014915411879 4.076222528395676 -2.310981054914175 0.018746427369567716 0.03769365789603186
Ni 2.510473029349393 8.994546314894778 3.385499646317696 1.5226605139489453 0.49889042965801184 0.6796482378677907
Ni 2.123975244866017 2.2799511060878768 1.4339333346343968 3.102853574896721 -1.540708629699908 -0.2284764544419807
Ni 0.7080691594904098 8.869889607204536 4.84801991999689 3.2360976537962522 1.9430906453165244 0.8615902961936579
Ni 8.930298101564336 1.6990987753459663 11.183313810381536 -0.3421683222411978 -0.25589829809835923 -0.12387677875201891
Ni 7.238943530503735 2.4590207951427985 12.56480028481092 -0.23715521316290128 0.5758949693385242 -0.09844856848690142
Ni 5.656091090452078 8.63222488142414 13.124858918168206 0.6514895160453876 3.214756726226631 -0.09976394486421528
Ni 1.1046362600117345 5.424162812290471 9.902402066445323 0.7053217313744949 0.3454799031129341 0.46670895982946076
Ni 2.1205981426388267 6.176812496880258 7.686243958812332 -0.23534232832387855 -0.8813132285438823 0.2510592248385031
Ni 3.96799334126537 5.137044356635189 6.260597940520112 0.8787632084285188 0.37232710521276524 0.397675868390199
Ni 0.6898846205388471 0.20125493760384663 1.2061945137014807 -0.049733362669385314 1.9490898003227528 -0.8286025284137278
Ni 8.725414398224862 5.983521969131659 2.0391267079497126 -2.5245836775681165 0.5434131946607351 -4.765536624119612
P 4.386596727744228 7.571241137324419 4.678369107838626 -1.4908865639714581 -0.01185329979416023 1.6226743700404378
P 3.7353618856537185 2.710610284901062 12.936750623179742 0.23070534377249946 0.03104504223126266 0.745725074892206
P 0.30073789258247274 2.4648405137754095 0.6639836343065258 -3.0668267631801505 1.0775331369450025 -1.3052765698757003
P 2.4297001459428893 4.143343591702948 10.828019525243914 2.1824269252911446 -0.8882814323315992 0.5499707932735948
P 3.7988421551900324 6.029163737040512 1.3190221112616876 0.5049602900011756 -0.26721783687623657 1.080707420907926
P 2.8942506273812776 9.195109177850423 1.3481021997550027 0.3745529092194904 -0.05841752070694456 -1.543182288051381
P 9.102419287132628 5.922502820670504 8.361854077115263 -1.3774798315128278 1.04779241534746 -1.9293624970971546
P 6.557129721671131 4.731847603381534 2.2936168046894125 0.8435799756591665 -0.49423930403924554 0.022232071925323
Ni 5.4706280380026655 6.356094989637167 3.4454621781368107 -0.8877926656206387 -3.774694658015267 -0.9303166550257784
Ni 3.559391728779917 4.233128249271871 4.042029599653743 1.103703881803099 -0.6370008355109094 -0.22225052813692692
Ni 3.144850117308556 4.869642626585778 13.16659435029536 -0.6809507587292982 -1.6820136312307032 -0.9930551717055799
Ni 4.784761706497432 4.266075813740436 10.616376066049138 -0.7923090932993323 -0.3883417354734667 1.034232417274838
Ni 0.3952930540098613 6.431464509480165 12.675720050921134 -2.3960385468061514 -0.2823099553226686 0.47543425551760055
Ni 5.7181372480836945 2.8074637263099143 3.3208517321209126 0.17521990911068533 -0.02236345529686471 -0.3644834407986304
Ni 8.529588730722153 0.34820884709492944 6.517172588305802 -1.079937889731753 2.269373406675717 0.8743262557030879
Ni 6.7516045482829625 1.227710818439376 5.22794669625629 -0.7068787914489697 0.5943300361152604 -1.0350209746144046
Ni 0.6317771818609705 7.911329210104815 2.751841464777855 0.07514280388142543 -2.072285236737031 0.22896907780768308
Ni 1.1026655126846343 3.671493018052906 4.394344632963541 1.1013227831654324 0.9837583197846864 0.612188661563236
Ni 7.3378879995929855 2.08580011119646 1.400295545984605 1.2282378345231426 0.07420512255850446 0.12290155932294317
Ni 8.261964944635887 4.733679565685598 0.05219427146308901 -1.2280257185123367 -0.7543349280484042 0.1870546969620843
Ni 3.5918581718352915 6.419815819880075 9.65177111857949 1.4021464810215722 -0.4930062029630929 -0.1185615371866926
Ni 2.53144807249745 1.5642737516346756 8.307362450904197 0.7785344081127431 -0.6093496494525442 0.8756195205932145
Ni 0.7542170301165974 8.07889824691755 7.316852816268279 0.010545122505697967 -0.3194636815548304 -1.8056561824847288
Ni 6.390051058606453 5.45452897533058 6.058609292761153 0.40386579925099475 -0.2927054396243797 0.19986573268382354
Ni 6.051202798698506 0.7931749113160731 11.116660915218636 -1.449980826896032 0.544838614253352 -0.7282366882994555
Ni 3.870223918704485 0.11664511092716257 9.592796736124384 1.7372118736694018 -0.9127781319213828 -0.002815615071924183
Ni 3.163253011363028 2.5860183435549025 5.614535153621382 0.24779983736094097 -0.21862475845888152 0.997222158599076
Ni 7.970516396261905 3.516303605294913 5.221473762781927 -1.0243658088934036 0.49520269639377945 0.05445879316951266
Ni 5.99459701396987 8.250057189659465 9.179950152401029 -2.5405713112456243 0.9894455999774507 -0.17751513290276524
Ni 7.983608450101562 7.964049014188463 8.282432034599635 0.48201756516207306 -1.4166691001177796 -0.7971263121823176
Ni 1.9727828407714385 6.988640115292265 0.48842150540044776 1.3311315832655914 1.3088879413760426 2.927416150458591
Ni 0.3111976571518945 8.932546418937507 12.458375302980071 -0.3281789499406413 -1.619593674232585 0.215156597404623
P 8.389600904153951 7.759544656578619 5.297537207740102 -3.4966933573702814 -0.8166628395533483 0.19684700046215775
P 7.161584758663899 2.1522133708862516 7.209263890710909 0.5351620103955363 0.32515430418170455 0.3040707440385279
P 0.725449670541855 5.844218815343765 3.4810503589769906 3.8214224010891082 -1.030367277892477 3.12672626774926
P 5.592037176153885 3.3338568140128 5.42707729777421 -1.04530127349449 0.6990451543371639 0.5456199725040668
P -0.1003147398833506 1.9410935938450613 4.492942139495203 0.09650301472475638 -0.7437545814293964 0.4989763045035987
P 2.7318906550997974 2.2362893378409936 3.44968771947149 0.6678705285065724 0.16290509629907426 0.9900276977331659
P 4.807994319353529 7.948958456017099 11.140223836429557 -0.05216639759091016 0.621432034538375 -1.9200605029699385
P 7.540273572517825 0.24003980014127177 12.583745365688715 -0.3179588148745298 1.8144051323219526 -0.3407912393880131
Ni 0.7638052247413579 2.6764599168995264 7.020383950994369 0.6487361216699665 -0.17789282795715813 -1.6978760521842564
Ni 2.187362991053641 7.059596271402743 5.499295472360823 0.6301853552509727 0.004119678595328389 -0.5524171979315582
Ni 6.550736358276641 8.134227209434261 3.820148431926401 1.5011300960763374 2.0136437729447385 1.132656046061075
Ni 7.175509522641767 7.213730917985669 12.431806298170208 1.0685599869121145 -1.4649467041772448 -0.18079071833024346
Ni 6.457528336806181 6.824050330307353 1.255090327783766 1.8590875628309917 -2.207538632757108 -0.799372942124649
Ni 0.8259799898276536 4.039356600110085 12.287154369594534 0.17546210702847845 -1.0499264309713272 -0.1986215758640773
Ni 6.200008100396879 8.27885045577184 6.458577551580327 1.0605579425432443 -0.35436177898359617 -0.5372142649388747
Ni 8.268663635081055 4.05227285958723 7.52557161241096 -1.3105655861887817 0.4536187023044059 1.2212328639602195
Ni 7.807749321246188 8.594040495419714 10.468215652091136 2.285259995998987 -0.9927628372761419 1.9033071947709992
Ni 5.591556054740695 4.158415645204573 8.273142690391143 0.8180124116027074 1.5784776209185654 -1.3361053823310989
Ni 5.167799117739796 1.6420581308784872 0.7062501504551614 -0.9497336260998095 -0.28446685376467135 -0.35787956232886753
Ni 9.039697709055574 5.902156936293538 5.963641477198607 1.6874872527507647 -1.1444977758910095 1.838173952606776
Ni 6.246556597122894 6.034844670650087 9.886314106575078 0.3245776057426281 -0.2804975847042782 0.8313469239280844
Ni 4.4902321306120685 6.78977968195252 12.87810099767854 0.5862943102949774 -2.6160385883460044 0.56864034465864
Ni 1.5540036599300688 0.2132228327569179 10.647765537325759 0.5476632281863407 0.3230567982227275 -1.7202276804065793
Ni 1.3185132328438918 4.466703443040163 1.4246439904259054 1.4120999926898583 1.5227420179191582 -0.8692213303763545
Ni 3.02229368963358 3.76992860872436 8.670497164609822 0.6196368903111651 1.6960320569969822 -0.35981380323710294
Ni 8.291396621854224 5.562263162545393 11.077092379917806 -0.06807175596725695 -0.1351621218578511 -0.681813878060542
Ni 1.877567062634402 1.4713525525451552 12.540302877778227 -1.4986096436473288 1.3496908343250174 2.4297274544181637
Ni 3.3232813952575158 1.809617915356354 10.908484305899279 0.8118160529840083 2.2603362361741137 0.084961332633744
Ni 7.667742990008249 3.5567640656771164 10.08700280128494 -0.7595491252594919 -0.4758124647926257 -0.148568367961428
Ni 3.3913970845632067 8.84796157356497 12.617057472151117 -1.4881277702793985 1.2893637553001858 0.22543406807123112
Ni 7.418374060618549 1.175786715154462 9.129927403931697 0.4620385509369849 0.5097782802151091 -0.7586201856873194
Ni 8.827032792091257 3.6927641359167724 2.5256265033978655 -2.168459664477775 -1.2331416995826634 1.1514556952660815
P 0.44136598072360983 1.0354102905217621 8.377318429615334 -0.948925014155585 -1.0789930093199804 1.1483546877432544
P 1.9886968567461447 4.431192981812882 6.542455518568873 -0.40222337855156537 -0.840685684830507 -0.5896454861553974
P 5.524661673637715 6.475903473856046 7.9359394956229075 -0.6649340715860678 -0.21305163524647822 -1.3916998317669516
P 6.382260592646741 5.137331179016129 12.035982160138863 0.8807391012079672 0.07396292464071132 -1.865369024964329
P 8.58327077763218 7.710007655689911 0.7074418511862905 0.4695991368930622 -0.573992867219805 0.023416064931095156
P 0.7529272546358566 7.446445644611142 10.522139184941244 -1.499458107690553 1.0636615211692326 0.24589259303589908
P 2.6611658073610447 0.6251478839273211 6.466147811970155 0.018857756136451395 -1.5625036140878124 -1.0326529886028604
P 6.16100025658911 0.6952722551330749 2.6266342431629055 1.1369353901627195 1.4015492137572056 0.9653163110294151
