# total energy = -381170.740802259 ev
CRYSTAL
PRIMVEC
9.19409475356977 0.00000000000000 0.00000000000000
0.00000000000000 9.19409475356977 0.00000000000000
0.00000000000000 0.00000000000000 13.45648702518495
PRIMCOORD
 96 1
Ni 0.4821015488406968 5.853742173766858 3.8676770524134416 -1.8637985951534162 0.09507193870518464 -0.11651133952588322
Ni 5.6768661802395615 0.794830404825561 10.6832667968037 1.2263578438916105 1.4181662534885962 1.2417163286255517
Ni 6.500914498560829 6.007182419945102 6.689138763156363 -0.2007378508761317 -0.26055996524008673 -0.6103953171082391
Ni -0.043883413925864784 3.3630159534470603 3.0431579964443634 -1.7281299659727918 0.8580018075114513 0.22697415886484135
Ni 7.351257927677817 2.395475399395441 6.042985144053359 0.6275448323043321 -0.004379617124934392 0.10110734626598716
Ni 7.149465937557372 6.567378609030152 11.248425038789605 1.4680369130667943 1.1210158907189856 0.28893568816930243
Ni 5.761166834395492 4.270059364479155 4.832156892344819 -0.2061255975506063 0.5553276867101339 1.2731892024228526
Ni 4.812749997286214 7.9432105198007745 10.486667631360676 0.8103656936907269 -2.038468545297902 -0.659432167931232
Ni 3.9433931803630906 5.397264566809963 6.649442339949508 0.6647191273617843 -0.02134298445215034 -0.9305452260968168
Ni 8.932752542430771 0.09252017480326363 9.061517677296584 -0.6886373287402785 0.7514792037671639 -0.43354764258614364
Ni 4.67958272988579 4.240435991407892 2.763720037900137 -0.07332271995355114 -0.6290725818027683 0.014526475750949177
Ni 5.439355132272484 1.2675898340580298 0.328824957547825 -0.45903935909934496 -2.000594653070264 1.3987598239375265
Ni 2.582069551003533 6.61360651710039 8.309219154478365 -0.0325337109616472 0.3973287694634254 -1.1207919476336374
Ni 8.586723594910586 9.120073027518885 5.918863027002875 0.4149868488648208 0.6103498085822843 0.14666652295302482
Ni 7.18391621033764 8.999860239527962 1.119016022195931 0.10632231480802334 -1.117735934416133 0.839437928466335
Ni 5.852317089090867 1.1464576365987238 2.765536791009659 0.06394487828307698 -0.7022580048475067 -2.3812035386758477
Ni 2.0894775401285997 6.523099849032882 1.7252019922989081 0.4764164169252118 1.4060455589656624 -0.6489304970689598
Ni 9.044267716850804 6.9647657694541465 7.187271135487765 -0.05758833993742985 1.0550439547035506 -0.29959573898630987
Ni 7.7148567901387795 7.270506194069841 4.822293467568018 0.4624450423467842 -0.5841505244790972 0.35774869317795804
Ni 4.564582993580591 5.080776245508886 8.884551581641386 -1.3550029905665504 -0.391877516540867 -0.35518633176742054
Ni 7.224829931680631 2.3538721209511633 12.636879522151643 0.3033264096733357 0.5888831540680761 -0.5861266743688615
Ni 6.456488633048619 6.327146109036663 8.97846374237978 1.279508202662345 0.4867077715488908 0.6075195382223408
Ni 4.44652162374568 0.5408426197756119 8.656584923365578 -1.0585586527250286 0.25135104504730904 1.2759263988483573
Ni 0.8025028768392074 8.658943208651978 11.257589712370436 1.897923561861583 1.6631998409583097 0.8152878135826926
P 0.29048374389736586 3.5450958045653977 6.631948735994608 1.2318895723431171 -1.0681336980079732 -1.5500131949302853
Ni 3.1393512120738123 1.0780995426245346 6.081296017191361 0.22400273494134326 -0.37380291842734337 -0.28487205962289003
P 0.9537218297418406 7.756561203624579 5.24253990560439 -2.6347693319862886 -0.8365544362709529 -0.257989119189117
Ni 5.772052642501133 8.091171085547463 12.709355651134715 -0.9782240202300186 -0.21112305076519772 0.4958734972085589
P 0.3535212152780294 2.965233446951661 11.815279591244677 -1.270077139156432 0.7030941275955568 1.0998497981643316
P 5.092645821745695 2.5088293927522365 12.221894864502818 -1.2592409677728766 0.21543967586268056 -3.5636225150926624
P 3.13571035057902 4.677458894013829 4.283320926651094 1.2880527497982464 3.4280006799895735 -0.4172784731124749
Ni 7.190618705362143 6.4130373415728945 0.39836449268888474 1.7320735240015719 2.0267782534441676 -1.4503384673457667
Ni 6.811509405169579 1.466200667417873 8.526353330397697 -0.09662874166934325 1.087582293650888 -0.1000609072793438
Ni 9.378068518441511 7.133845170689566 9.71466892186344 -0.3341184553535278 -0.2243020113493169 -1.046362881989785
Ni 3.847176979496932 0.20204298890531244 12.223563592687933 -0.21318764660371023 0.18373180323643842 -0.9037677008926563
Ni 7.090927136705502 3.2187973842366864 10.15495113103479 1.044605018758414 0.43563100747773364 0.6710849216788121
Ni 8.053594820574697 1.2231455803564522 3.840265778523106 -0.8049941449661683 0.6380745281910624 -0.4498826323007413
Ni 8.921995451650703 8.14250171616722 2.7199864877176183 0.18613424203034393 -0.5778649485807016 0.8264286606908605
Ni 0.3820937033269315 6.6334749557121215 12.180193209245425 -0.08574783309078136 -0.1450151033925309 0.31619658076778445
Ni 2.8378584592020424 3.461126137818085 5.790138346153672 -1.9619435163569694 -1.3733642666825572 3.449241591646221
Ni 8.476973686669846 4.795823668973305 7.84927629323514 -2.227103956483545 0.5597224733437198 0.945881856453887
Ni 0.6637336475479325 2.095003191033575 4.809187285596234 1.4030954751984028 0.6082402184384492 1.1783270657356288
Ni 6.425798744994034 9.288334154327446 4.825671377954852 -0.37456422207340007 -1.941083899299141 2.0212131006515643
Ni 5.449680100602412 3.7007794098464935 0.3935320765230698 0.5842574823706067 1.38189544408202 0.14265971578647688
Ni 4.246982186822771 8.719688592227966 4.11737579229339 -0.15009508901859955 1.6298796295396252 1.1710086776973445
Ni 8.500225552125222 1.1781680691632133 11.167565734273829 -0.016963110216899818 1.8761200928332462 -1.9575317604425189
Ni 2.585737994782377 8.148781282836268 9.950358619673654 0.5806165431839098 -0.480203908992102 1.1509029080864048
Ni 1.519884986276688 4.762200864714581 12.960790236090967 -0.00013344025407073794 -0.49113521119262515 -0.5812958286391214
Ni 8.009720600743517 8.627508598928003 12.371288789610714 -1.5747772892488427 -2.060070439838394 0.3666920184141749
Ni 3.4681136497777874 2.6092105185101646 1.2847138354066416 -0.676827223479228 0.8064655873053724 -1.3768054311536224
Ni 2.4800518763918853 6.884556487432516 3.922539134801254 2.0800646235721336 -0.27177794544309325 -0.13855674936169685
Ni 5.385330631910367 6.055157206005266 1.5862507199328937 -0.7296659645468143 0.9248522894770976 0.2771831756190646
Ni 1.61957655493333 4.46845873366127 8.436248444267873 0.6522155955781349 -0.4281161871579272 -2.2576399202888733
Ni 1.9783209354012365 0.11861485433487673 4.082617517341214 -0.6421409849509522 0.5612479088493109 -0.529658564078804
Ni 4.709757748638082 7.425868006037002 7.51599955504141 0.5945100133365503 -0.10823418711875553 0.9723223100336028
Ni 2.8010177218039822 7.803303980997112 6.116269433959138 1.719478975166013 0.6750061111100891 0.7355429921528817
P 6.762523268694195 3.108670518113911 3.3600039680286415 0.7963081871563964 -0.16124982008383842 -0.6366779049538519
Ni 3.5282246408205915 4.984366968654367 0.787820827038618 -0.9755439022946942 0.5394364694011743 -0.8569491978772209
P 6.297044643041842 3.8977169179738818 8.23950125390044 0.23697086506623705 0.04809402729374943 -0.4132726943871915
Ni 5.166759418991955 1.9235701015590985 4.670437363903797 -1.176811657532367 1.0572430192373985 1.2526586865696685
P 9.24447832268563 7.528244250341319 0.7128641313098525 0.5379051203583123 0.8188289939667318 -0.6693638252226471
P 6.361247006218946 7.655122756978012 3.012368812167192 -0.439112795378747 1.8606767616949826 -0.16668924593185486
P 5.049277277122124 0.16763776718899595 6.760068445413616 1.0277241838426752 0.3870140178009786 -2.6381133087578568
Ni 1.9148357116094712 3.346273507027827 10.455152113603484 0.8587515411932823 -0.8940849263872537 -0.27429068456261796
Ni 0.09643593972910185 2.7154574766763693 9.164203762591745 -0.8867361993316665 -1.3056630066808417 -0.5672180103898167
Ni 4.971338936487397 3.013254203485244 6.673004965805198 0.37999593461193265 -0.058496710684312156 2.28623341565585
Ni 0.6852193274145475 1.4228045405102505 7.112924008236536 -1.3954793534140417 2.294400524847674 -0.6456060606814171
Ni 4.994370143670362 6.6687435029192486 4.68887244315432 0.2476733390854057 -0.8550280695951081 0.22550785873196003
Ni 4.2797499402759 8.20999556524113 1.9474627954139372 0.35664851813524384 -0.697657787071334 -1.6524683134734186
Ni 1.8937996229728948 4.409772827294458 2.6332595119746283 0.8774889697017856 -0.626740591235482 -1.2678847594908036
Ni 4.808787342477489 2.8350082898500584 9.815336903375504 -1.200101738408559 0.1021643267755918 0.40961761413310743
Ni 6.9595343295790535 5.694426901085655 3.2611665307681266 1.0486650477604005 -1.3557812634934714 0.654125411006338
Ni 3.1669426902199507 6.860440377076861 12.210281803507689 -0.148586365683557 -1.122694821083305 -1.0819634048022142
Ni 1.6745848234266147 5.6794497208457155 6.159437547318602 -1.108666368014697 -1.0956059352863132 -0.32481517567473095
Ni 8.107352692190982 4.714336407790624 12.411388833574188 0.30634617033626593 -1.5389993603182852 0.20672157926339232
Ni 2.1150830938230336 1.7567708358052667 12.550704192089682 0.21675685201220735 0.649238772337998 -0.5432517293822062
Ni 8.039748513980866 4.794564078001622 5.332428730509145 0.9789745252427978 -0.5749793995027904 0.07664098569350672
Ni 2.377142374595907 8.316766586804311 0.2461755627971087 -1.3095713405963125 1.416940094390979 0.7251973872524995
Ni 7.011959057466186 8.482076409219365 7.82852614094323 -0.4717830319182585 -1.08797335844172 -0.6979537210451979
Ni 0.3024287117105826 0.6805036762512172 13.469943569719863 0.12704823450146507 -0.391671571177648 0.45764479274466346
Ni 5.603304228674332 5.058747194646457 11.019368880293767 -0.6196122077208167 -1.5630196344922822 -0.0058448888165512245
Ni 0.45093264845308434 1.1580421959003349 2.3173550156859735 2.826654617567796 -0.8458374042347755 0.5913881798781169
Ni 0.17627010268763296 5.417905309375136 1.353843313924803 -0.4186113329912855 0.5241417480256328 -0.19211565642475947
Ni 9.090642730435983 4.92824621470434 10.129881593060423 -1.078644110620994 -0.9532874048893388 1.471405315318395
Ni 3.5173296386202666 4.147695158332217 11.82016441375019 1.4512051862214361 -0.06640490978779531 0.7513102822894674
Ni 7.42969274942547 4.4667578261447645 1.3687395861315252 -0.9396746992019107 -3.234731883796978 0.8083368361861564
Ni 1.8147212145973735 9.18223430167618 8.087120167429772 2.3903836625132184 -1.5266395532013515 0.19256997035335865
Ni 0.7570730161875243 2.9383499140961766 0.7866366276433421 0.7771156733883455 0.9057119691032209 -0.5283575858791932
P 5.041618596250504 5.965827382057288 12.85278812524962 0.19761704585896286 0.2633663243406303 0.24455844760550788
Ni 2.910887153275611 2.406388789785133 7.9922518208442614 -0.4980748757352519 0.13286304141102925 1.3358909523274478
P 7.1347461919685795 8.45800626933713 10.143203836257277 0.1869989040234844 -0.31903713554037316 -0.534575284654131
Ni 3.0757372709564734 2.5986005332450386 3.7463536177847123 -0.7830991446652901 -2.178185890626603 -1.1615310772242124
P 3.4320176340491164 0.8980341176514215 2.3284026398580497 -0.47767265792981606 -1.2199195444654345 1.0550339274012217
P 1.8884026893934933 5.739018260302173 10.11867307223138 1.0348507675851275 0.6198310085998423 2.053505899246999
P 2.633905856830901 1.0587643615044646 10.33501287837003 0.35823488878575727 0.7851349441483962 -0.16570605608297911
Ni 7.936029931852713 2.0443529234204196 1.301375373792657 -2.6607531576445598 0.6100914127145751 0.8260383672309773
