# total energy = -340891.7031451547 ev
CRYSTAL
PRIMVEC
9.05577213232191 0.00000000000000 0.00000000000000
0.00000000000000 9.05577213232191 0.00000000000000
0.00000000000000 0.00000000000000 13.25403788713034
PRIMCOORD
 96 1
Ni 6.370400534899241 1.788569303639011 11.41305193009043 0.14965080239232936 0.7355093107014687 0.3200704619008939
Ni 4.669980115859292 0.18746715837672082 5.86635626565908 -0.7671840160969304 -0.591088389249511 0.25961431349736575
Ni 2.7382843358397424 1.3617888810599537 4.847916074211303 0.2524777024525845 0.7514162117397123 0.512973133003323
Ni 3.146400812337162 4.3526930324714455 4.847862645156534 0.6578398837434477 0.3284918531953698 -0.6258427620115609
Ni 4.900404234271363 4.668585526972066 2.4107234791236 -0.7480151564779633 0.23565343180639417 1.360512864641186
Ni 7.003453331979779 6.2244305461122815 2.5674662142757785 1.4766200267501148 -1.9530464709776558 0.10507558688511581
Ni 5.174776014175036 4.580327973109065 11.347391244086486 0.36903095095999666 -0.36378435784907676 0.5030383903881143
Ni 5.639889519608811 7.887523072988957 12.305075355642792 -0.7844471740527523 0.5070665377109009 1.478339837654699
Ni 1.9437218452288725 6.486567978050747 0.3738621133492369 0.5188103085103903 -0.005454595356668025 -0.569174105674923
Ni 2.944266925637384 1.728601981488304 0.5565885750865897 -0.801288156869491 -0.7032280820702599 -0.20190590304230388
Ni 0.563553369327923 9.000015606799316 4.871786183612851 0.04542702198454757 0.11444777212863516 -0.09895584714062312
Ni 8.40892725714348 2.582126603558439 1.3253882999489628 0.8196661451560465 0.23349781891597207 1.5310217414294471
Ni 6.64296116040392 1.0002281283886871 4.804628578498137 1.2762781257608213 -0.578855337518429 -0.742026028774064
Ni 1.100547970548991 7.464917361299581 2.7734469929190206 -1.024441142216029 1.1128739783381414 -0.8007651944864854
Ni 7.790182579814998 3.708519747381081 4.006523469882834 -0.36761941532445075 1.4882586394303077 -2.198989971856148
Ni 7.580921800555177 3.868109617248479 12.581859593205925 0.313506435530131 -0.012975329213745394 0.32418139874547397
Ni 7.984537558371096 8.934442761783721 6.6509157505243035 1.0300546317480648 0.8965611558418882 1.3564867742009283
Ni 6.77090110714889 0.8143357687618921 0.4614595014338041 -0.19618005630212018 -0.48211295308935675 -0.5185997351614811
Ni 2.0623071795030357 6.39715128537239 9.36539608409806 -1.6724043902757133 0.17831114644149937 -1.2627800912743865
Ni 9.123237496334903 5.321633468617503 1.3631644528259899 -0.6248503161913045 -1.2791173949818293 0.23903751778727864
Ni 6.301404608069547 2.1626632447513194 6.9125243253782624 0.7184112175686015 -0.7576495942439339 0.4924058503749326
Ni 3.3901640828978277 4.289139624610729 0.5767059725734208 -0.019942761670514043 -0.310101266503324 -0.16024837540251757
Ni 5.779448021823331 5.469849288859216 4.690815636065324 0.5509043608314577 0.8638271559439769 -0.2739937221474894
Ni 5.460485620616414 2.6810880799194967 9.253690419808478 0.2915844386460591 -0.40091957213847723 -0.2210266830321548
P 0.18216409829646502 5.684625033263975 12.410298898338374 0.32935265853376827 -1.1905410913033174 -0.04420831908609806
P 3.9344159797956664 5.899391721896739 12.576650713154416 0.46084401640825146 2.153862226279575 0.326540900116586
P 2.3136229639075085 8.485937542188724 1.2897158029063676 0.9472327140548267 0.8356355240011092 0.4447494248392341
P 6.46085864135702 7.936034843566023 5.785042677761825 -2.3808253294008224 -1.0994895866114354 -0.5342590389652927
P 4.684596131859177 1.042219743129374 12.616239831584839 0.46775925547084607 0.03803072952047644 -0.2961414618891222
P 4.073666585762357 6.023917642599604 8.164050126627433 0.3964291404672915 0.335780416436983 1.2292408218663604
P 4.733605969895967 1.1143851901573087 3.8526441698354654 -1.3223456095428454 -0.23124604676731786 -0.48609173523144666
P 9.276913947089586 5.712688870676394 3.5376753640783316 -1.3497576830072109 -1.40917973371927 0.4305636202571552
Ni 1.3816300775009382 0.8678897931857595 2.8929587326682698 -0.15042753265735384 1.189806784240454 -1.8937393485769063
Ni 1.6514196367751546 6.481206961029724 4.926300119868187 2.3195739387895085 1.1064261658302688 -0.4142360867417253
Ni 6.235234082102283 5.507783917746155 9.330074045431672 -0.6494094935879074 0.869676158525586 -0.7807201029101521
Ni 8.577989464517618 2.167707309752519 10.257220282666532 0.4520958379019762 -0.16054688047954285 -0.23741258058934597
Ni 2.4755582787216044 5.059170028887219 7.017058723825026 -0.38352785902459113 0.9419514110512295 0.15682186621947183
Ni 0.5939037891690728 -0.08283767432400967 8.922485520441558 -0.030063652154599833 -0.4430512112012047 0.8036687412865257
Ni 1.570397644736137 1.1160786195203685 11.612087837190728 -0.07954607515544365 0.5866838324239122 -1.2793714199741641
Ni 4.120756600136213 6.9033055494873805 1.741223010917697 -0.26553247875401365 0.24913783944607415 -1.4592537675575254
Ni 5.693046901219299 7.954888960859556 7.886073243892562 0.7382292807357931 -0.6898573171903086 0.41518868046298174
Ni 5.1723852903683625 3.1854493011794824 4.962788541967528 -0.23052562366152557 -0.8562591137887319 0.4261518643427048
Ni 0.7407730161151331 7.401554124650759 6.863802460890911 -0.19523569011097988 -0.37608374404172007 1.2562055233806622
Ni 5.2995102176337845 4.4759692566390035 7.168950281919497 -0.44797204554158976 0.6286226387495432 0.4403618372944996
Ni 8.238687799409995 7.055053120807131 9.299218313513203 0.013680325700569988 0.17827412255597683 0.05583047670605869
Ni 4.5311279638603805 0.47458493736331697 10.279116233773177 0.3489226102458959 -1.261299392963802 -0.03367193833114846
Ni 8.003953133528316 7.29494052095395 4.561178637648497 0.49173813488394663 -0.5227901190937447 -0.43356564030827266
Ni 7.1665296740652416 6.108471385716661 6.887698832031245 1.0274362202886111 0.6427729621079962 0.4367556080004801
Ni 2.2838294740440492 5.325925904543119 2.5870293985165174 -0.21995556145516312 -0.4333717791299117 0.500880463504847
Ni 2.438592617438127 4.9777948617403975 11.34399804631997 -0.8829613056702665 0.12239736599301503 0.06993863397266664
Ni 1.230299071692955 3.1534099798612703 3.8909745359585846 -0.786024288731885 0.163000484226358 -1.1014729355900514
Ni 3.467101921767113 2.701735240068034 2.7796366130775843 0.08652996267244452 -0.02965510386227151 0.1555270586674483
Ni 1.2154928844811752 3.608009734008883 8.30789563130437 -0.3693520817448413 -1.0570185619314183 0.07722436900080247
Ni 3.74494206234486 2.823254644468568 7.247440280108721 -1.2580973410867367 -0.9937388280361659 -0.5918311809528065
Ni 4.182743359441798 6.69195288689672 6.081721540820713 -0.23767740421495842 0.8257583740967134 -0.30407614335516664
Ni 0.8045002947981525 7.498695390840829 11.546255091518878 0.7587441128596932 -0.022479412049438704 -1.1386158631889358
P 0.305836059700204 5.645467875157714 8.101543566009335 -0.08521355785386615 -0.7506649353959846 -0.24981455379812456
P 8.348624871428958 1.5348718511998605 8.00292077552089 0.31131816962956066 1.0754166048226317 -0.04174134560284424
P 1.7510150171758607 3.0071502063704716 10.4046183666971 0.22739916221740192 0.6834642691797713 0.32591072273175486
P 3.8380535099971653 6.264185385170211 3.8677935708058544 -0.2681169516517382 -0.4073169910243888 -0.11758708908856523
P 7.015597122225038 3.7905016512515655 10.398534699070877 -0.25027555259494316 -0.1527610658865369 -0.01401328355995651
P 6.3851795547950365 7.704813817218393 10.39037001504021 -0.34174717554337913 -0.33141314060722277 -1.9033136225289027
P 2.4063269018200404 8.51033379194318 5.95983718880878 0.4489197541668397 -0.2404048304484505 -0.15584690390071224
P 6.8215047610567945 4.085402866267841 1.7177767116455143 1.0059554247070157 1.5019538775292132 -1.3015682677861777
Ni 5.265089228280895 2.7864248197650157 0.5856657533852465 0.12395879694286395 0.5625239473482571 -0.5104915042320498
Ni 1.3051903060913765 1.2392280628799976 6.994858498779352 0.10026428153940152 -0.5668472573139592 0.26778116557887427
Ni 6.971232895221668 0.4109627056354392 9.308575642715608 -0.37407725513465256 0.6068173699489937 -0.7768629339475911
Ni 2.4984331587809043 1.4276605665513824 9.136273280121667 0.9421409013542161 0.18226113222818288 -0.11846049283245406
Ni 6.021273357177073 2.5345204101808694 2.896948705809254 0.7371872126245239 -1.348275956255362 -0.9128521796924279
Ni 4.036266247423121 6.66898744911747 10.421914891207496 1.765090602357541 1.27695561144382 0.4549047681056811
Ni 7.908396627437368 7.227728581207265 0.23539845396891004 0.5094638342984839 0.9579074201598535 0.968039623497849
Ni 7.757907808424917 3.806448865734712 8.047546714334914 0.4546589706434621 0.0663030941026084 0.49141083345151493
Ni 3.2166826587901425 8.473603580731572 12.4446537805557 -0.252106692266411 -0.6185264308558057 0.2156875302074285
Ni 9.067816171725674 4.586395340345697 10.32113139352105 0.38997772841499295 1.0681583805983217 0.3008260118489851
Ni 8.641298366534471 2.3490853670398204 5.608777509342884 0.1275208032625094 -0.840297962473785 1.4453638969493108
Ni 3.8282279973826205 2.665765713704004 11.25092825521884 -0.7863256220223878 -0.5619644753003612 0.8797859932660784
Ni 1.4025760781253092 3.3443056535152875 12.728197246335881 -1.813472078984722 -0.06043198003381206 0.05500489548096978
Ni 3.387184733911482 8.21573141740274 8.046857570086095 -1.8235245781247176 0.30932505045893177 0.11686615176214066
Ni 5.507937865870069 7.7680593288312805 3.5101467227908154 0.41565944945181316 1.0078454426408772 2.529977594890178
Ni 3.1997302536155536 8.46613256883572 3.459316674583035 -0.14320684653919855 -0.37747959594798214 0.880191199124297
Ni 3.677494672526306 4.173687587446826 9.35405010736556 -0.7178628012642991 0.7812014134219448 -0.7810000960444163
Ni 7.218745255388253 6.1484345075304745 11.610895192018992 0.4539388046479859 -1.0910255150044823 -1.6111830815713866
Ni 0.5815734500207184 -0.012067721760500168 0.11082725440607025 -0.07359782799180872 -0.32733408544184267 1.2190399700739585
Ni 4.681028157693158 0.3571080295813385 1.6586099197391628 -0.7067962590374924 0.16570091387665656 -0.045418023123483066
Ni 5.882964551497859 5.686979533982667 0.3781599827380508 -0.0637085939025548 -0.22505303058272852 -0.14488886222731176
Ni 8.047611010316079 8.979223554298859 11.416047579466367 -0.14200099915655545 -0.25936748759388234 0.1843144152127858
Ni 0.2680064777684065 4.7995229342473715 5.660044045760822 -0.8425196527154523 -0.42663908839176845 1.0234852060606632
Ni 8.234386307712382 8.967260879493502 2.11765062447311 -0.03143353591893296 -1.0037681872477098 0.6336296050458313
P 8.32183789786783 1.5721635202751567 3.396201566086876 0.4664716470076741 0.3586051276409824 1.395083403527204
P 1.6311528190504065 3.424784299234607 1.6561585222601236 0.22325171570793165 -0.587985067733839 0.04038945956064012
P 4.685691880270569 0.9834477828820034 7.922270070133665 0.2029626264415924 0.2566292627271129 1.5785015321779654
P 8.48121042920735 1.7130803882889214 12.643808318269132 0.30753170600393487 -0.02872539295915053 -1.6271923125154493
P 6.28753116537325 7.926272721355443 1.5624122649909702 0.3506038546030607 0.2031279483748631 -1.6928713998808138
P 1.8215957041046753 3.0504549080504293 6.018804753731243 -0.09903786533146815 0.7217420817140473 0.5227258415147126
P 7.024018990180362 4.179202552591764 5.9577960178011145 0.6064072789947685 -1.0122366297300374 -0.3288088702151563
P 2.4519408253587165 8.53697587315239 10.258784214490065 -0.4188800132716398 -0.6662111385262784 -0.20043703180626124
