# total energy = -381172.2879389587 ev
CRYSTAL
PRIMVEC
9.18113951687214 0.00000000000000 0.00000000000000
0.00000000000000 9.18113951687214 0.00000000000000
0.00000000000000 0.00000000000000 13.43752572674133
PRIMCOORD
 96 1
Ni 1.9280392671547133 5.981741826347498 9.000011095621451 -1.0063243780106603 0.7912593118785792 -1.4734801955695527
Ni 3.9890397946281624 2.7368058340292785 1.3717962661248315 0.1908216202036843 0.04339070828080914 -0.07989754495759142
Ni 7.565525091782053 4.26109531636306 9.513391947514611 -1.9354670673329957 -0.941108860545276 3.4117366527222273
Ni 0.08179660685207035 0.49177304039197506 1.1138273665213412 -0.2596834761724044 0.4457128171937678 0.7413140903087039
Ni 6.60644491118436 0.8590709475825051 1.3071380921298932 -0.3034660205749935 -0.139802705953656 -0.2405027894788955
Ni 5.106191651714441 4.134570034740873 6.745825624148784 -2.4368257560258417 0.8380428478910212 -0.3641443122916568
Ni 5.261196827654312 7.713929028516762 5.108557631329421 0.5254126443182564 -0.2717445211019965 -0.183595020548258
Ni 4.941436105766387 0.2454715326965809 2.911387953442264 -1.4976495937269045 0.29114143757136957 -0.08257894844449648
Ni 1.6835363446613933 2.33226647122275 1.7468375462578296 -0.46591346051135885 -0.6674275274318828 -0.04000585096897626
Ni 1.0369913292694788 2.5867217487903353 5.556672517801519 -1.3197647361895464 -0.3114040444751475 -1.3669264814770137
Ni 3.06312188942553 7.6201987767149415 0.493060236131285 -0.867526716282751 0.39680889240421335 -0.6706676316357354
Ni 4.26636529035995 0.5336069019195487 0.37813624221374975 -1.5855833787254112 0.663452859054851 1.0779434850095435
Ni 7.864857778577506 6.036791937994449 1.62670692820504 -0.34645949341738397 0.1996199352216046 0.10791794142991736
Ni 1.6866120263494737 0.05549447879233309 10.614986363942824 0.37318045435199604 0.7083247798668768 -0.19008937002335005
Ni 4.795612069193918 0.9058975126980727 5.202673490984673 -1.2070177488021019 -0.3206528167669252 -0.3894653075549486
Ni 8.469243001994304 4.434471952177105 5.66485755542338 2.0463428058396564 -1.0595161315422914 0.196145603519759
Ni 7.131027671219687 4.117190137918379 7.39417289719852 1.3877303055962424 0.19600624972841724 -0.33054179374586296
Ni 7.839738181268291 8.479103545674896 8.412334627739392 0.962192934909085 -1.2561654141713463 -0.16433771498054278
Ni 6.370810969319952 2.4101133519189633 5.601015584718204 1.5368231786025726 1.5725139471359628 0.4657918473318301
Ni 0.6747907906557311 8.419279241556895 12.582012421307278 0.7462878893742114 0.6755966935062365 -0.6961686041203172
Ni 2.1293449289244 2.602035889255164 10.216309158622382 -1.1201088055236839 -2.1168182861524 -0.4866216395929877
Ni 8.424328868208967 6.368102533206567 4.070387443765167 -1.558956263056186 -0.9168990960682918 0.05995838283150319
Ni 1.758426898481303 2.058172736548289 7.844262646748547 -0.7104590526010603 -0.573552951468909 0.09872033409104933
Ni 7.183433614728826 4.167089630380216 3.8275316176743592 -1.3865956777711668 1.1084380540539749 -1.219734425037822
P 2.139379914252972 4.85045101463542 7.0735133417665255 -1.8506096072669678 0.23436762311543508 0.5613191284068785
Ni 6.477459084211709 4.696152786426837 12.280353233796125 -0.03568536921675145 -0.3231233897946048 -0.029677986680406953
P 8.462825385576489 7.178852226184492 6.286678680612813 -0.20216944111633567 0.09416253951703783 0.06661831135018205
Ni 1.725585962964101 9.11879024995936 2.8468876950444453 1.0012580192313467 -0.05709674501299199 -1.1207914334130054
P 2.611565911918529 5.3671288136754125 1.239384956054203 0.14157805268652393 0.3919970728378668 -0.3476154613986981
P 0.049556117849496574 2.9575387867003906 10.822461751367406 -0.7577956329034949 0.6630569091680129 0.43923826521301773
P 3.4617669607581854 0.7153833621408318 9.326301443827475 -0.5553541690726951 0.4552726929680611 -0.20606620506758058
Ni 5.902031174359702 6.867382073145332 7.702161562189561 0.35523518272748494 0.9321094852601431 0.4662991259855518
Ni 3.020493859342676 3.6165793327713414 5.617087169180843 1.1042024187060724 -0.6811788155797043 -0.2167887336914073
Ni 8.441056904136376 2.2751965089149704 7.179172647948414 -0.6627540332156134 -0.8615514725359227 -0.4817648257213187
Ni 4.593434199184328 5.713753549352361 0.24596180553880023 0.44426220079017037 1.1751047021435892 1.1303669929165823
Ni 5.715075633421266 8.003814322903157 9.957905073012878 0.3217915583570587 1.0034066901432332 0.2894933604449853
Ni 0.19460802060116608 5.218146465160558 10.656132558131779 0.9384161442044613 -0.4437410381793777 -0.7884110437965067
Ni 7.825378879297672 9.014712854090476 11.082625861393643 1.2443943896783471 -1.2090422354312984 -1.2447404601638563
Ni 5.6255228000316135 5.724568931527162 2.7657117332136116 -0.2595821747078497 0.14397869170821656 0.17941286414611038
Ni 6.666370207835402 5.76725204844622 5.822278289130815 -0.43117194326511554 1.45502764529132 -1.3326801586996337
Ni 3.6999073536698948 6.285444735481835 6.972920188287571 1.305965625522925 -0.386198978098851 0.17071070838642213
Ni 0.8886645141054565 6.8917488170264205 0.8021423748209837 -1.1120406838035688 0.646299487204016 0.8054356033789613
Ni 5.814140127195549 2.7717676127403506 8.568156006969025 1.2089499328278082 -1.9567468026473782 0.29139057746769814
Ni 6.558051125578777 0.7405819172486071 7.186039222081296 -1.387358266968804 0.0580591089262613 1.19037422670815
Ni 4.026636560337679 5.75512376334188 4.584991223422064 0.39902029823323537 0.4660147619759135 0.8334526574171774
Ni 2.7036251963554827 4.722603648944326 10.734110729120946 -0.7800693567000307 0.36821051194123033 1.4633467066799766
Ni 1.3505364198056724 6.359307001692595 2.9391361109523677 1.148107604729455 0.25205964107855944 0.5290708098961341
Ni 1.326839899098404 5.209883439729895 12.729811320957674 3.6840442454165454 -0.9700016323202262 0.4634269466440793
Ni 4.747108109915926 5.925057471893149 10.898101486159694 -0.4460156931461674 -0.8697404361046183 -0.9085625511781384
Ni 8.952253562974029 1.0256709844294705 3.9318330333438087 0.37377720739573045 0.8400722196162241 -1.164973527246858
Ni 6.559667006107439 7.920578113398278 3.157979585141668 1.594136667612061 -0.599600283375264 0.2595443794913788
Ni 1.6255482684168734 7.124986481515936 6.548468770421017 -1.483798032555793 -0.3555881951915295 -0.21550035389728692
Ni 7.180725178615442 0.2625392707805838 5.125125915431836 -0.23787486493774518 -1.3843089386195193 -1.1175397592449268
Ni 4.5526883026717915 3.252097281024794 10.257750067385032 1.3187905452017352 0.5787092988588679 3.044938190637175
Ni 5.716921042434115 2.397627002379295 3.1721965794520925 0.049432286489198736 -0.5841345836394972 -0.7793525331386643
Ni 0.15860785502764063 0.24470123510365574 6.351044894375869 -0.12041890211040551 -0.11195328784155557 0.48184093037489273
P 8.644657850747913 8.100858966016611 2.392967574150338 0.20584920396076806 -1.170049656218185 0.7189539774459489
Ni 7.425384180478008 6.5947940453271245 10.687871756924894 -0.21628274058926625 -0.29174693236585236 -0.6039012247434631
P 6.614606944081982 0.7544050406801698 9.48177302164721 -0.2496484605339055 0.41933124187644555 -1.1257467205357514
Ni 8.716013665911374 3.8399013667440616 12.945026408868978 -1.422036792187596 -1.1330859345096422 -0.5124457997449433
P 5.848238878806085 7.072718255097309 12.33961289784303 1.0514816912735891 0.5623753375855347 0.43504196774348297
P 6.09109837735264 2.393311866876615 13.065212113757973 -0.27308380873871035 0.8794023846744146 0.7961549494079836
P 9.001877621254845 3.2442015011688268 3.6174487866694345 1.6668942590907614 -0.5254041596778242 -0.03397635694544471
Ni 7.6742481441708446 8.143587988632506 0.028422971253607435 -0.31086822657633556 -0.21426159639417935 -0.03850175561962401
Ni 3.7849063419333153 1.4290443425363388 11.489890186364416 -0.3610790431027717 -0.5123864072619175 0.34323095917775726
Ni 8.31301673451857 5.926976330020937 8.25663352143547 0.8728956939041482 2.956269584355173 -0.8249970704506566
Ni 4.047743999743339 1.9608251158357108 7.347074570357678 0.12395365473654134 -1.382816670344709 -0.14102346573463453
Ni 3.789313288829669 7.392534063821438 2.6047296355455605 -0.005095155134720257 -0.8715726042173506 1.4193227356905427
Ni 0.6307718179587155 8.04128255266153 4.507725508847807 -0.1937393080711115 0.18475253119146892 0.6456644247231783
Ni 3.8545728274531723 3.9946586519210134 12.58957768014602 -0.0016164525575004419 -1.6849395466282466 -0.20114099985182132
Ni 2.217144164694879 6.96193862749022 11.13943966991307 -1.7092392997158758 -0.5046075346474471 -0.12999549005524708
Ni 0.3039205021373444 3.9169127637578414 8.33809226235882 2.1514217351588822 0.3819510014557745 -0.14667269360061194
Ni 9.074941128340642 1.3556227710152138 9.346766203477417 -0.3165871313379838 0.15768729954356067 0.3028810946058009
Ni 4.281899778169596 8.59467572803177 6.982487853622342 -0.7737860947944802 1.2038532350311912 0.5375431090332032
Ni 3.057842734289273 1.946282191077744 3.644633222222379 0.3908107658392495 -0.5067160963500176 0.7640994636343357
Ni 3.6317557561456595 7.734724309183931 9.073151724277935 -0.307416006361677 -0.2965785494265408 0.5774857108644119
Ni 5.832456500233518 0.37736043593720414 12.241075401468438 0.9626747596415097 -0.6490163719145468 -0.8516951485671332
Ni 5.58434538996881 7.864619068953954 1.057883930013942 -0.38336562241511396 -0.8429037755277482 -0.7315801508503916
Ni 6.933798435329128 2.23103522855776 10.956501795561811 0.022694356273722207 1.5975657478982679 -0.5785627459786745
Ni 8.623449418809212 6.188602077434464 12.572538403594056 -2.048614632592969 0.8129177706886194 0.8142349468381461
Ni 2.9197124925066893 8.207956956737371 4.8278883646400255 0.5469895991580838 0.6049839162846807 0.031090550757217426
Ni 3.9294082944368776 8.11369419885224 11.805524904220631 1.255170911468561 0.8907774592805755 -0.13192870252221794
Ni 3.00280180378169 4.365943927938807 3.1531420428089834 -0.6450787274230374 -0.737505258085575 -1.1046109669984008
Ni 0.6047083995225307 4.344074453965652 1.6038091666227359 0.09680640489778812 0.5398817844687089 0.7241362929778368
Ni 8.105265912912964 1.3694862914599928 12.740051045694141 0.9400189699152068 0.7905926248288578 1.2383348137478287
Ni 6.011112291183821 3.9856427730622235 1.2575020983679002 0.7300477733662653 -0.510843745365146 -0.6773224179480916
Ni 1.3624443575651943 5.214400560298657 4.998625422885942 0.3588388409183433 0.14794307567260329 -0.17204742491997466
Ni 8.00812027726647 2.6337291823514404 1.7329565816482524 0.6240378475923383 0.69642211489202 0.3416404747621858
P 2.053527080028383 0.7990924003231322 0.2062717400535154 0.6223267784385024 -0.17227291066721942 -0.6151814256429728
Ni 1.5737390989666162 8.705069747785428 8.213607029904072 -0.10948837124083079 0.5825872937570353 0.5805584362524647
P 0.23022716889094433 7.747128028469293 9.809232128894703 0.31127548931708326 -0.7022250947270422 0.6522775591643217
Ni 1.6847482550578907 2.7061500096815183 12.42180980237152 -0.2431299426890974 -0.5316223726733941 1.7242121189756239
P 4.932282509817085 3.6665155497906485 4.590756060830857 -0.5539554889529557 1.3206486814563962 -0.5707208813367526
P 5.321370015068274 5.159295361815502 8.786918687131893 -0.06799873663747644 -0.8628920457242171 0.8180198678018751
P 2.3340751556781285 0.8971350332858229 6.1216256657492565 1.0231838727701605 -0.8000203459006608 -0.9863669610521272
Ni 3.18288067133394 3.8333276709570008 8.739269491929006 0.1630822453068869 1.8544058410846063 -4.179050509528803
