# total energy = -340858.3976598976 ev
CRYSTAL
PRIMVEC
9.41979464792227 0.00000000000000 0.00000000000000

0.00000000000000 9.41979464792227 0.00000000000000

0.00000000000000 0.00000000000000 13.78682163467157

PRIMCOORD
 96 1
Ni 1.3124411398177185 7.471489050500114 2.4616372394924575 0.8483347167353326 -1.318718297202903 -0.9688649476126218
Ni 3.575471430298371 8.360990833284962 2.7699791435326313 1.0444520381203175 1.3029309524616592 0.5883560779200125
Ni 8.579068497702165 7.352554724080884 5.5674904626757575 0.03456745356222434 1.3097140368217637 -1.3066924763866206
Ni 3.3268076928664967 1.3468139702552102 10.234950638159985 -1.9359144392830592 -1.2381345248115645 -0.6659990225154724
Ni 9.025491402633273 7.561504607546064 11.704998129082623 -1.0407293378530917 0.1671384176541315 -0.5141134172553532
Ni 1.4190732145100744 9.405325779649162 12.291833434064236 0.7470453363655263 -1.9645128197460426 1.4691625420308052
Ni 8.44144529882802 0.2994609217062555 12.381503284648948 -1.2353813875464594 -1.6113273204587348 1.5570122519559377
Ni 2.3617214783385867 1.4729167603529638 0.2873282262818955 -0.3056537722549317 -0.4503695992394888 -0.210189997427967
Ni 4.815822882163739 5.808433736466478 3.770392413689406 0.5500666954215107 0.16574307996850166 -1.2081690887977257
Ni 1.760625546336058 5.231631454696423 7.471713241611217 1.2714164267931458 -1.3926074311828855 0.8001638134570607
Ni 7.439508847886992 8.09424109025156 7.836332766414818 -0.402222607220617 0.4501525981326764 -1.6367033373296782
Ni 0.1264287149903644 4.967048264417368 0.26389460329495434 -0.6163991001001577 0.35383753104900995 -1.560719782714512
Ni 5.253231043677833 0.44209921921699147 11.131051929030475 -1.3051521284826941 0.32389446363267443 1.3975120675733543
Ni 0.2501586588323754 4.460103179283224 2.4323812414730654 -1.016006638295431 0.6744435537383998 1.5169783759625037
Ni 6.747606096093446 7.559196757872952 3.3403674871703526 0.4574635299717928 -1.0229087647319028 -1.2250059578494064
Ni 4.717630943418764 0.23901880975718284 4.382843908063102 -0.9419568103678682 0.5026426976115924 0.28684923795391887
Ni 7.16396101671201 4.162805042413485 2.909584267187277 0.44188624435882606 -0.061646826277519634 0.4158036883391613
Ni 1.782206295728301 3.413808915645525 10.152587722234182 0.30259698770647886 0.8741264809874558 -2.315086078221484
Ni 2.1359761011299017 7.451594444338431 5.290306413181512 -2.317151445390945 1.2254044788394056 0.2897198746334946
Ni 5.557933139090699 8.612668904983758 9.307910973957378 -0.35475412932600836 -1.372743859489739 -1.2901610543905004
Ni 7.038272697575958 1.362545027210708 10.264577776085993 0.39184023554502845 -0.7879593009710687 -1.3509319058209703
Ni 9.17586900337433 0.9707569308675569 5.446911440122139 1.0715812902369417 -0.6657395982064986 1.4690216455775669
Ni 2.004683004216292 3.695630330013538 12.400349467673419 0.4920389539538172 0.8191532100753699 1.249102336676978
Ni 8.601101397234446 4.870297554243765 7.541102274456296 -0.916563309995428 -1.1265057101889633 -0.6688352064126868
P 5.207545039944802 2.1440488650885015 9.347534397896064 -0.4050387365131734 0.4120228811404904 0.20671052351979882
P 1.4297646813630625 1.881198917012927 11.50701853839012 -1.0503208381962685 -0.6298333712281927 -0.041114767762438865
P 8.270447767742303 0.4745767869841562 8.693956080368054 1.5115222379439388 -0.2965530955052441 -0.06254722660460196
P 3.26925274795746 5.144074464036931 11.085417734167656 -1.1746071936818805 0.887087412023498 0.390519716961392
P 7.5792420807479814 1.5387046057285303 0.12339554113427441 -0.6462958876595901 0.258077050917233 0.590538173172996
P 1.505528089203223 7.068821091412293 9.153456486120309 0.9083278094595131 0.11531191990114334 0.3808125169759571
P 0.4161090639799173 2.7830688900867386 3.8648597656558157 1.2121589266834092 -0.08520995830944035 0.4386337988597994
P 6.7827607694814205 7.61641259017696 0.7392946803257635 -0.17948305526241348 0.5005382496740799 0.9188942721214498
Ni 2.1996068135457025 5.419245503428548 3.7924921937632337 0.5159026479452922 0.9012750163777897 -3.840011734055522
Ni 7.6606102663657 9.26631787097115 1.9914237013596703 -1.1994003414661603 -1.6046236831863139 -2.9585632654853566
Ni 2.7598961954097776 8.311706468020793 0.4854142606531982 -0.5924952968993668 1.0586540406523122 -1.5261816397283263
Ni 7.499296284112467 5.38428864572684 4.937323160627687 0.24104940601098485 -0.7992379592086816 -0.19974206262176566
Ni 6.579839554550085 6.5185449511911475 12.533833608807296 0.26799276736904815 0.26315703654330164 -0.16024940384378208
Ni 7.599419280747189 3.768369983792193 13.354962754582692 -0.17091253998458308 -0.05637709323814807 -0.3240872963697709
Ni 6.1314102333725575 -0.04252001077330615 13.38192974251814 -0.26286804454797313 -0.44432570703825414 0.44332606212914616
Ni 2.351953151354843 3.3961373810056967 2.706615011303561 1.5658463053078 -0.26247466576429634 1.953456561931881
Ni 3.8463376235650397 4.7158600220369475 8.70978321922831 0.45438257705362395 0.5159018766143437 0.9150098494653789
Ni 7.436004684301696 5.6268860354465335 0.8160547024329252 -0.9848363833402134 0.3029510286117879 2.103222806856152
Ni 5.248897938169134 3.8445478625940552 1.7387801007160013 -1.1219898245964806 -0.4713539148006398 0.3833303983018043
Ni 2.2880398451015185 5.644859003513054 0.44395209281168985 1.125557487343081 1.5363734926596635 0.6362832406185945
Ni 2.7637677309838553 9.002893315425943 8.585563446067923 -0.637583961707889 -1.1765599465328769 0.3377953899844827
Ni 0.23422507629331887 6.833514622700716 7.410844412967482 -0.5389852407963686 0.054987154869156916 1.961067027289287
Ni 6.5327594212186 3.818257215909747 10.2747115910996 -0.38739762639264247 0.9968346933526704 1.0463384565097527
Ni 4.0707548097373625 6.7298497833023605 12.823287882726829 0.1145300474297963 -0.7053543843846434 0.7045455153301027
Ni 5.4549088457240655 2.173061832407623 5.721696267935806 0.9800320199730348 -0.40370844773752407 -0.7038731718534265
Ni 6.49994085688749 1.3719554020002542 7.8423435373389525 0.5517445973445659 -1.2763568015175568 -1.1714763613623826
Ni 8.40623410667254 2.3396038006550484 11.628949301466564 2.128022382398335 1.4861318228952922 0.4823109280327758
Ni 0.09996945398300054 8.999718844651092 3.7184026834206736 -0.2148822606973138 -0.445131233658685 -0.23582955237294223
Ni 3.7994364663306546 7.0244255995372855 7.236785448641921 0.5849676210637539 -0.3299784650432252 0.3349684620586489
Ni 1.0604710544868148 1.0787831351583643 7.786728128134788 -1.8730273128405357 0.015310919325457502 1.0352330906252107
Ni 5.173652619031101 0.9345915135207052 2.121322668674828 0.16523245888067026 0.5741594747046563 0.08478804028067333
Ni 0.7868608750577883 3.144562927047326 6.092231423738242 -0.6340335253524694 -0.5379442011263639 0.6642858964791075
P 3.646713336738149 9.527180242389473 12.376016254303693 -0.8463570241836713 -0.6309723699286424 1.9254598196086388
P 1.9576499698577294 3.6541361348704435 0.7822932166639436 -0.3123329840473202 -1.5853021000395664 -1.2218949230242504
P 5.506359763742585 4.588702214945772 13.547054973660114 0.4132582962094883 0.6685503281824163 -0.8944351106378208
P 3.681538317315679 6.732920636336788 1.5932461583501039 1.1866939496430853 -2.061975884391223 -0.03198375199544814
P 5.831229639360075 6.327059366884945 8.212768481544755 -0.6971934458404058 -0.5212934799435602 -0.16270609291439075
P 2.5349044017678235 -0.1451769321511591 4.340188252247785 -0.639987171832743 1.7580812609192433 -0.017833171526678966
P 5.426941475603782 2.839408681494422 3.7800571229327233 0.4018755082938434 0.20792279866034513 -1.7010675625383607
P 9.210109956687644 6.541557509360178 3.5930110878140216 -0.900557678595791 -0.7765909112331271 0.47809946105458956
Ni 5.1769307075463775 4.902249497473136 5.977042407645662 0.03547762408131954 -0.012553925405610638 0.7024408102822741
Ni 0.7457001406429722 5.308826671313372 5.3300268610044155 -2.559649410922998 0.4371063064716795 0.9036100922688695
Ni 4.213690772756957 2.703735380099192 7.447944273937081 -2.270904755718579 -0.8078195302301054 0.826469541231125
Ni 2.5655375737554156 1.3337769745507737 6.037400683422936 0.7352750832034757 -0.5021673006370706 -0.5870584421545115
Ni 6.198460331222397 7.273663944438792 5.537628771864607 -1.165693179021702 -1.8597172259951906 0.9097876818344911
Ni 0.15839384593215244 0.3110444431063606 10.433259921662932 0.471808228729239 0.498649003071167 -2.3944318644406635
Ni 2.9861314019368375 3.537858190523938 5.171505847845377 0.8649635835412652 0.5183421106247202 -0.02975023467923909
Ni 0.42189281785457333 9.304232544172276 1.2678007332835244 0.07280669954908106 1.6937160072692958 -0.6426783455116609
Ni 6.20542155942007 3.761606571280787 7.808331485034032 1.375856951197424 1.4116549347326397 0.44454502213791186
Ni 4.433690075269322 9.537636214377857 7.033526063085015 -0.18302963496309124 -0.08672639495396677 0.1154042225046335
Ni 7.503431573934901 6.6521364779832854 9.637346624009794 -0.22552739911598582 -0.6034564238965607 0.9496667774176162
Ni 1.8384518891901434 1.1932147997663802 2.6776623306697775 -0.20716663722061096 -1.0265605025518771 1.037047003905498
Ni 7.795388687275437 2.573214706341482 4.7691506259377485 -1.4990019939897408 2.161000637096569 0.05167583110773681
Ni 5.891488065314757 2.4409984695586275 12.425593575179429 2.279452131067958 -0.837608845677396 -0.32693762133437243
Ni 4.093296378177186 2.8322590574050674 13.458874392599151 -1.0187479484859936 1.1490378298532082 1.189858463413996
Ni 3.1102277757881707 7.9779914052888055 10.899599098283266 -0.21502315715055229 -0.29013742178688745 -0.7519312037029179
Ni 5.085379723983214 6.121896240842585 10.716427424677017 0.5286283230420767 0.1942879814857299 -1.729741019213653
Ni -0.007529241811095417 2.5838213950432127 0.5925097892390934 0.7640837799050518 -0.5952304364423426 -0.08331068440419846
Ni 4.284640665564627 3.266784761776418 10.933694044780525 -0.501532238156233 1.0971622240298395 0.7465455139109723
Ni 1.1547914576577123 6.051106484542846 12.259144862898387 1.0484313344830396 -0.0826015741523158 -2.0449970904450394
Ni 8.416426324412571 1.760540768184801 2.635846920531365 0.7922599852289517 1.5018870288470199 -0.5662157943775474
Ni 0.22371164355797094 5.279512270567558 9.733274986116204 0.05423407875321628 0.6909770326170487 0.11695742592436631
Ni 8.41952543683075 3.1226336452554704 9.264882294276529 1.403311704974267 -0.4085614049544512 -1.0203271200476558
Ni 7.033722936791823 0.41341217679048076 4.016514690542481 -0.03969731858962195 0.5163757309269688 1.433589272911886
P 6.18418934242744 9.239377258460538 5.916228213810517 1.0572044526899793 1.6199436013728359 1.2139227034520514
P 3.3506962919318517 5.840997966343817 5.3660519234119635 2.3272134576126375 -1.5963064215698703 2.1012381723259557
P 0.8737744937471842 8.613168154096718 6.739812158054537 0.14189172727220078 2.2564811240940816 -0.7784487903774723
P 6.806442133065925 8.37736243627218 11.154820896704612 1.1532747507526913 -1.1886963247850948 0.630887780634636
P 8.676770607128764 4.437392054540886 11.479569256971965 -0.09113198022083015 1.3708091043608714 -0.14723602230324967
P 8.13598020005384 2.769664522393521 6.913222098533252 -0.44229607820273503 0.37375072503316925 0.5625650849988375
P 2.0496248441771785 2.947171131536874 8.027087374661292 0.882766416050641 1.463149503067506 -0.6992377299639442
P 0.5851190184083847 7.6018966867228155 0.1522370681919648 0.3065464592725301 -1.6243658988102478 -1.4141535327847774
