# total energy = -340896.4207637275 ev
CRYSTAL
PRIMVEC
9.02613082973360 0.00000000000000 0.00000000000000

0.00000000000000 9.02613082973360 0.00000000000000

0.00000000000000 0.00000000000000 13.21065484460907

PRIMCOORD
 96 1
Ni 6.514212656143801 1.8538318461840344 11.185355321692853 0.2410625186371074 1.355160342080021 0.6855437774166193
Ni 4.745984633165986 0.21016893941851716 6.108249793000381 -1.1713382931226213 0.681624130647239 -1.6268809519226175
Ni 2.762167479306629 1.6808370259003562 4.843065181509987 0.17710761305170145 -1.0347391817079277 -0.36260447860836265
Ni 3.0505523539838446 4.329275258855407 4.805745741671476 1.122102953135577 -0.7874574216339857 0.5413249446731386
Ni 5.142556709967807 4.493532784657472 2.5224821900076124 -0.196559551128726 0.9005656490155909 0.5503132642146781
Ni 7.369321196747726 6.336072941382314 2.7892449686820338 -0.2177706379887024 -0.8738675708991143 -0.318295115168026
Ni 4.927102971046206 4.60745157975297 11.330355597725783 0.6559850899228961 -0.6286982291824851 -0.34222102985600417
Ni 5.699062795984198 7.771570709736461 12.237676693761877 -0.3490079708708505 0.2993774523279167 0.7010207900062959
Ni 1.7486593717008132 6.573658752689159 0.2858232587951061 0.9966094647157416 0.3291667677752073 0.6889458611196329
Ni 2.8130297255916403 1.5168863885408277 0.41653607260185305 -0.22713690969495076 0.4502860383867471 0.1566334043577496
Ni 0.7554077065285062 -0.1023996471436017 4.49725064787749 -0.12637126303909846 0.4732012524220238 0.7699392102445644
Ni 8.637185666431911 2.439266680974776 1.2881136912131645 -0.006446526956292124 0.13120570831326436 0.3046109328127141
Ni 6.981666937040775 0.5898531257501939 4.757288959208107 -0.8732127109239348 0.012163631945727438 -0.16525148504406378
Ni 0.548758055455424 7.386488897268416 2.411366911095988 1.161366012401258 0.09156032600750037 0.6488471933265342
Ni 7.506283703425412 4.066632908828565 3.8365857218513115 0.21723559142083876 -0.6068181412799419 -0.5206188224740388
Ni 7.619733139726441 3.7992157356810887 12.57421778075139 0.25541313093182466 0.20200720450685855 -0.3325210289594209
Ni 7.8983427148958185 8.614530078468224 6.957998617216719 0.5725206535496528 0.5730317888581163 0.2230534836541965
Ni 6.942592817401412 0.46349361476212675 0.4051116990219171 -0.35557122591066503 0.7957394591371199 -0.8081126359904921
Ni 1.791307839082655 6.599951871309964 9.262994383677464 0.5688871705621235 -0.354887312469763 -0.5527478417980997
Ni 0.18520807768354464 5.025857866628159 1.512792135672171 -0.875932166737627 -1.0117347503929544 -0.06978822443773142
Ni 6.485067280233545 1.7685619898123395 6.820053164909852 0.28841118312440006 1.0523520096936843 0.8517090325242042
Ni 3.3738683543261874 4.404733711196613 0.6114643903961925 0.34532615114388915 -0.49659880541035767 -0.38102746120024056
Ni 5.952516544996286 5.694838566833997 4.87413673370369 -0.9027937670151613 0.09743786783419993 -1.3892678252866912
Ni 5.286731095045088 2.9780725247613704 9.165617778247722 -0.5252583781285793 -0.8025621384859082 -0.06795322811152169
P 0.08344477275167203 5.6326936572204565 12.535841381012263 -0.2135702267541096 -0.4648377109486769 -1.248584516500295
P 3.8986836955854054 6.0273070636684425 12.498521038560686 -0.41484003887431137 1.444850961868634 0.9433328647797884
P 2.2015093731853383 8.482856884358952 1.3831028850825884 1.2662770486840513 -0.1826506543571177 -0.6709411970120961
P 6.2867631895713085 7.736874263468567 5.733054301447325 0.539811850462722 -1.0512042692424863 -0.342162665814243
P 4.979292058538652 1.0611751036361876 12.5819459538249 -0.5463506800225042 -0.5843194459567936 0.755518406833544
P 3.9632115036939313 6.126829180356736 8.30057146778403 -0.7297379554353304 -0.168956958920109 -0.4043931325093745
P 4.6871071828523885 1.0449641729657562 3.7950772547721843 0.8124863395781555 -0.11708083887610804 -0.11995533221042566
P 0.31386473892530037 5.589043289335041 3.7145984685563165 -0.044423520420697686 0.412266107499548 0.2540946692307172
Ni 1.4555087000336269 1.1197817700299015 2.548427802597899 -0.5388302032757429 1.375378983119741 0.09461531078374028
Ni 2.01057963127463 6.506414079251122 4.909898263389797 -0.6113533101461343 -0.08591469768594881 -0.908067613819591
Ni 5.908450975100381 5.601652793871006 9.175909372429475 -0.4696904110552879 0.05416363052659704 -0.09168039652513242
Ni 8.699971431322512 2.2052552174104103 9.971296519502825 -0.09610063708001514 0.5787998016901451 1.1112210161157507
Ni 2.3449075110256175 5.170790446681118 7.048042394095981 -0.5838018828904268 -0.11928196029248488 0.3319116775101961
Ni 0.43309721714200183 -0.21188570947058624 9.125669026547131 1.254572872873246 0.6379817113669399 0.11998695677930948
Ni 1.5108118026047475 1.1352706102473067 11.554263210626184 -0.26216459072304527 0.047614773664485736 -0.9760897474958351
Ni 4.0217188826503545 6.813203234349835 1.4506093163098461 0.0025168528845827625 0.6939790526681661 0.24059252097922432
Ni 5.623983441130831 7.85483676510101 7.881938625029203 0.05928012581755596 -0.3871006639775139 1.1197190262844328
Ni 5.181558620561867 2.9971718172439052 4.753629765837398 0.029920184598200086 -0.3209474651892085 0.23962475774931635
Ni 0.9808605929983827 7.361973926388187 7.032850513577383 -0.16799022413146553 0.17512169296992422 -0.1899926965444857
Ni 4.826299143803792 4.419482408699667 7.006574544604836 0.6429755650371055 0.29881900872128536 0.0020651100591448307
Ni 7.999299986359501 6.978209928996914 8.93107648081345 -0.1969051073936028 1.2609245261228865 1.1281653572795731
Ni 4.806983224185349 0.39117715850465 10.470659074905948 -1.1491015932116082 -0.9656472120062723 -0.7194021207269611
Ni 8.357971340508124 7.1336398990107375 5.046258727152273 -0.4290345852071385 -0.47127883858833025 -0.20385685612108762
Ni 6.962639853603544 5.918659528880035 6.988872497148907 0.8993397470282899 -0.05861189610593776 -0.15614258076426013
Ni 2.354439105005559 5.174418951207573 2.6854886940998095 -0.4994820404954237 0.14437875536011263 -0.300425948197089
Ni 2.1082965218303586 5.352991920240877 11.387571337384356 0.3010340140947331 -0.533301817258346 0.47962978165618686
Ni 0.8752404224342855 3.3935272669098175 3.8525836358381 0.6788488818949471 -0.39848756565821697 -0.7021883279518358
Ni 3.702085543618444 2.6832159143989105 2.7506032007014194 -0.9230700007656942 0.03595147839394453 -0.8459507898841883
Ni 1.2234829852150824 3.334604685942905 8.304415696833328 -0.888542656412786 0.20099676096447316 0.04968939680532733
Ni 3.5572973816560896 2.452887112144977 7.176608794031109 1.226254999765159 0.22313678739662215 -0.16853092712628398
Ni 4.136034827495016 6.761149538817331 6.203498939432893 0.04070082015347184 0.06478717167871423 -0.6835905103449904
Ni 0.7501526932566104 7.525030976812096 11.34708011523093 0.4057959263941721 -0.5991084313405101 0.2925542587584961
P 0.06681864007075088 5.549860856127723 7.98298706041258 1.2643878020811385 -1.6658840726586923 -1.0724960887417272
P 8.654136739816694 1.5408958961039385 7.968111997080247 -0.6957695689096856 -0.35068175902884763 -1.1188260821565181
P 1.6379990097745953 3.134035036484301 10.609410560681004 0.9959456058794977 0.758505514486326 -0.46640788364927416
P 3.970865662496006 6.144457213541231 3.758721805688463 0.6976806698894694 0.2640620648560743 0.15628784809287277
P 6.850219396198075 3.9845221981888583 10.361288547051446 0.5289078019557085 -0.33995948751533706 0.5467605138664132
P 6.253565080993443 7.640565449296238 10.064114026334773 0.2401695745091928 0.2158060580631638 0.9407586762947089
P 2.576581206748312 8.393796053108872 5.754494972223797 -0.6755534989731268 1.2607062394644932 0.6224311652268506
P 7.021020866730686 4.166028659687579 1.5798626047884146 0.2669455570514564 -0.4641028896651814 -0.350690500779596
Ni 5.3993862318477905 3.039928598193701 0.28293760482220137 -0.07829909012221999 -0.3802952110199063 0.2168787223020523
Ni 1.603474059989295 1.0424278302495027 7.048121824045814 -0.938299673231255 -0.6626879558643683 -0.071844849856444
Ni 6.975727743064637 0.5720824797012266 9.147440053705862 -0.7251706477796221 0.3243261518534543 -1.0881183686600164
Ni 2.9607333277580863 1.778093583792281 9.355640394026818 -0.48375640223005073 -1.08599026657342 0.3482222417447616
Ni 6.4501181023070915 2.09941480925814 2.4474326213854325 -0.22973758054259144 0.11956015365453602 0.788859444187835
Ni 4.115518432498417 6.869165244459341 10.452666386042674 -0.2615228433739883 0.2934865407647784 -0.5544185446323032
Ni 8.187882934297877 7.280034712231074 0.41577787762617585 -1.4094545846472115 -0.952201885134644 -0.3877781496605128
Ni 7.393276547526859 3.782824282397401 8.243461333854212 1.4369594749356995 -0.2764979766265819 -0.6585317676041498
Ni 3.168596090792252 8.362628823930141 12.351539526847265 0.3258976101056323 -0.12070275189941149 0.5783205480608814
Ni 9.112510733266868 4.9081751750462645 10.17067201187474 -0.46373290792027233 -0.7943616049529868 -0.30856091859939766
Ni 8.753243654494499 2.179278013362804 5.741509078039193 -0.047180000119912295 0.029220073207381937 0.23449360717033807
Ni 3.803205285434057 2.5440781102314842 11.549612948108699 -0.797205245049369 0.3409192803254451 -0.28072358467215525
Ni 1.1615005459534722 3.518638464027216 12.796064728021468 -0.3694631534014089 -0.09446490124880506 -0.798928912608695
Ni 3.2069661722399156 8.496269714523908 7.998100413594412 -0.2825873773537714 -0.6488502786503277 0.8394757236828058
Ni 5.530806694298503 7.895255778209133 3.4139768685395104 -0.7444798896311953 0.36506605277497767 1.6706557830157227
Ni 3.0328430856233846 8.47079797379342 3.429379960515619 0.46962176260088156 -0.4900442921212916 0.42053426104561126
Ni 3.22654384964758 4.361245813663129 9.479357956569876 0.3056193194725704 -0.17440255541571253 -0.5174566226959734
Ni 7.229786242831135 6.0073502887729395 11.321570464751659 0.38130205501786585 0.17666538330796025 0.4221185748135956
Ni 0.46302064551539474 0.1027164643298668 0.29085622925269655 0.16468661367952928 0.6396603846209435 0.007885573395663838
Ni 4.692234025068872 0.5312175757383588 1.54277964957327 -0.04744019575983443 -0.8983254468311626 0.2500847767403757
Ni 5.934076160052138 5.582824285308355 0.248246574232705 0.14565787918285236 0.5620266959968643 0.5782989507943266
Ni 7.9394747923263065 8.78966409171899 11.129804903141572 -0.511925408465099 0.28913006356829557 1.089651260364775
Ni -0.04687901482350716 4.695158491403627 5.768815831133432 0.23339317501730772 0.41371826656504235 1.254863150420155
Ni 7.751713222278249 8.902508777265613 2.561704338189846 0.6128118969695316 -0.12919124898639686 0.11625731453354816
P 8.416126700368697 1.7429548571219087 3.544154432797952 0.2536408695227503 -0.2904750076319642 -0.17678416827401167
P 1.7736166229835206 3.2321581029198563 1.6367344488687336 0.3593173232166586 -0.7048756449760119 0.6393125143632216
P 4.887144290601886 0.946037780901209 8.220118857347085 0.24936512496553187 1.0129084589860815 0.3756769955216046
P 8.416632163685815 1.6913705203838716 12.296648918447435 0.5723789857654659 -0.39015204920932806 0.47541908600894894
P 6.1829446346875105 7.616799647261024 1.44820475510127 0.4515217105660611 -0.06450563588255342 -1.8491165676612087
P 1.7868218521432315 3.0938416766427466 6.166693989042164 -0.7730312189063266 0.9619671920515239 -0.8697247523753344
P 6.807471641378942 3.864727392031863 5.951016402080124 -0.04854242768507769 -0.001241842826901087 0.5955315126225292
P 2.4807959081544273 8.469335740626043 10.247147709141645 -0.5425125372233366 0.9642228208549201 -0.2137895418537673
