# total energy = -340874.8503859973 ev
CRYSTAL
PRIMVEC
9.17631381677162 0.00000000000000 0.00000000000000

0.00000000000000 9.17631381677162 0.00000000000000

0.00000000000000 0.00000000000000 13.43046282686021

PRIMCOORD
 96 1
Ni 6.1808438049936525 6.059055768234208 12.461079017654015 0.641642705158295 -0.16347742386277653 -0.35003075570841
Ni 8.458964645404793 2.9123601213561803 6.533450086195236 -0.17254673315389638 -1.0945350708196375 0.06258476471075672
Ni 4.912209245768963 7.9472566826370326 7.138908776536576 1.7182404747732214 0.5284712286389222 -1.0564691171858516
Ni 1.3422010669628197 2.9458261377863866 10.026364382238361 0.6861096772224183 -0.34808263084310376 1.040804671175717
Ni 1.6530211680113376 2.8327005412545567 1.0331061129087844 -0.18419408758483763 -0.11933158258349771 1.195411017801109
Ni 3.47865797492276 2.3686084707972825 10.967678910569958 -0.8719528703749047 0.3762081854347263 -0.5646870164378468
Ni 8.902859649187297 7.123645813792303 11.638328887043768 -0.08144483484005327 0.21714097482450345 -0.46183157713250145
Ni 3.8794793617259975 2.2872237437011766 13.206537057123155 -0.0758673407522758 -1.1328149402364425 1.8791056578241314
Ni 3.9510546093694328 7.09774107993366 5.065581236998145 0.5180191800676628 0.1934415743250346 -1.3914527487531518
Ni 8.850765715742197 6.214447466130866 5.413483739745623 2.0752016390528776 0.755850593361982 -0.6085770329525777
Ni 7.44923060374573 9.131102102345652 12.661649378915762 -1.609058836139532 -0.5786928437986357 -1.0555401776136788
Ni 0.69756685774464 1.4292292270461966 4.6510898955263915 -1.7554101418449832 -0.9331093872795672 3.1520092106857653
Ni 0.5654215155986377 4.356555916210895 12.846532831735656 -2.15825572736158 -0.2111132805731848 -0.9600350080258176
Ni 5.726460274537245 0.25262850708302503 8.933272706016098 1.2589339780554187 -1.7384974252500447 0.12621596840815683
Ni 8.334763238115832 3.258178683239578 10.732565233637835 -1.1339457114067761 -0.15104279764384954 -0.16179052307865685
Ni 5.092064996257596 0.35642362774256675 0.6726283897291832 0.7872105957305024 -0.6093586483136086 -1.098383240921134
Ni 6.2159340289665375 0.2720198934061157 2.8928677955812843 1.6964909989112718 0.44907504879778143 -1.5417201016835578
Ni 2.8660839708605588 6.781543658998084 7.083669202720684 -0.10340334138901547 -1.3074075001757743 1.14964538153022
Ni 0.25287718518701696 0.40485529434991124 2.3388478498796945 -0.7668811401445309 0.8740292932879593 1.1405850711001646
Ni 8.262343769602754 6.450223672919382 0.5674962801489173 0.7924199078455837 -0.6149191731205217 0.0703430684999369
Ni 0.40407897820239397 8.791202262863537 0.11153625898159324 1.2508239473537748 -0.5970158104775395 -0.8690097285861808
Ni 1.6799169437604287 7.709700270971231 2.0947221151641573 1.396717596696517 -0.5266395747468221 -1.4030049723671256
Ni 4.682269174557528 0.9911061246441687 5.495731957970351 -0.9582169809804721 1.284125389719382 0.2288556921582704
Ni 0.5259174846877417 5.583227192426169 3.025883052275569 -2.2416013787687716 0.2017117847536268 1.0454385704033027
P 5.024371329351748 7.913570434675616 12.363036528115972 0.13858657415836775 0.6941775418322174 0.733270394068621
P 3.041287330252368 9.3237771632135 1.2127654902820872 -0.6731045232120021 0.11033529262215837 1.0972738099070392
P 4.570107090974744 6.081757968576497 2.570201073416398 0.14466491914196375 0.9790151486727462 -0.4913673818080893
P 8.902107191455661 4.221755866482425 1.5235378744988428 -0.7360721251834743 -0.4574786994804444 -0.6291630846340455
P 1.7201550797753598 2.247600420710875 3.154170672099866 0.8383866043836852 1.327282127612514 -1.8501450089257234
P 5.811506350839726 8.566465161576952 4.981358276043563 1.1233298835641428 -1.6688534396996613 -0.5607866529421762
P 3.0940052530358986 5.7757095507042076 9.150107165857744 -0.8171770601856055 -0.0987046503617655 0.7884827775747066
P 7.942273944243394 5.157648110989344 11.532389261849064 -0.2226732174966423 1.0168054800476425 0.28904830248776675
Ni 1.7603565105350893 5.304799479093206 1.2141878189211557 1.1857326141710804 -0.23562643522320065 0.11181547671211065
Ni 1.925823800984631 7.549133132091124 10.490682190015125 0.2726600909377304 1.5445092343929208 0.816518086445368
Ni 3.8267522626286667 7.82447760398714 9.130485454058263 0.8140125464146949 0.38967639512449015 0.60067577582763
Ni 1.2434455778424798 4.407053171054719 7.094897340286903 1.4694193952366177 1.1208562252126697 -0.21538285448281616
Ni 3.8102440741016745 1.0250401330781973 7.892464912934603 -0.39003146447106374 0.020592479439370988 0.75612235896613
Ni 3.846343692592607 6.317222180695798 0.35882323380138187 -0.6527239026731211 -0.2653270476114269 -0.15823751562007585
Ni 2.643751063789688 9.04543203670474 12.52287231478618 0.56846036743735 0.15233709097524087 -0.6133297171462148
Ni 0.13250872417249981 0.4848498099052506 10.720262549725584 1.5791522783880867 -0.6925520904136524 0.7705701589603439
Ni 3.491110232749958 3.0177592616680387 4.240843516818721 -0.6614995919832221 -0.47632411432172156 1.4437104205062876
Ni 6.1594262885834254 4.416128545403354 8.832369041835074 1.2033973784406953 1.422720448518182 -0.2483425972382884
Ni 3.5755965539106125 3.209755275314654 6.766589938028885 -0.2931003610699533 -0.17119459000137613 -1.6241057031703254
Ni 6.184046338510006 7.266787132765374 10.305623469601644 -0.19860692057605794 0.5890176227634115 1.0266368643157673
Ni 1.2213765431524206 5.371171756811792 10.60869600890845 0.9211583855652782 -0.9903861095138492 0.041134822367096896
Ni 1.6230605034528998 8.78186995172849 8.103524718501633 0.5836897827925948 1.3114256201962318 0.34271211055980977
Ni 6.896568752486604 2.2202366529579614 1.4017369909000772 0.5471261247359481 -1.4169611774369015 -0.14080517907624135
Ni 7.203663270132143 3.9759866539652298 -0.03081039121635876 0.5767213218945616 1.8175691318722311 -0.5143054786615014
Ni 3.910743062844098 6.400065941686175 11.332369479415343 -0.4528838810209103 -0.8043662815741824 -0.9055430476255243
Ni 7.589554794382064 7.922875216869262 7.434204389897508 0.41284974791715995 0.2611927137280792 -0.21392221077688964
Ni 8.449678215838746 2.9409351625307516 3.418053010427751 -0.8991140041707291 0.6655133411283054 -1.1769877780989149
Ni 0.5562653896885582 6.656140154601265 7.494722179411413 -0.2131485658356587 0.3100369889242918 0.6067993722268646
Ni 5.839044468554848 2.249958733357588 9.92885870705764 -0.18400665416437986 1.591973084301839 0.36658068964729124
Ni 2.6957257051553825 5.240372579900314 3.6348342476493554 0.17212661489734227 0.7433984836415584 -1.3615960704030354
Ni 7.0756628689298 1.2775080546697146 4.6391239823306165 -0.04515602771134804 2.6424199065530103 0.5192355689732671
Ni 2.85255808431871 4.201843265535469 12.510073192297329 0.4884805471785975 1.1842845688706443 -0.7046082502472382
P 1.5311046628586862 2.2277337013329213 12.377689265992514 0.4985587573502059 -0.05020258899632 -1.3742458979565624
P 6.324177826556532 6.53999555082909 8.385268751642075 -1.161036396975981 -0.04938857773545688 -1.2223638922408688
P 0.812827782497832 7.476245671574227 3.933097480893351 -0.01315839175882895 0.8960860159776826 1.2022869189853358
P 3.0862971494435283 5.033290706365776 5.647844958946112 -0.3096716351650732 -0.04726870317897666 0.9967398196460188
P 7.318403897892851 1.1269706267734896 10.762514886619712 0.0918572884226289 -0.8342823524073245 0.8209545249501669
P 1.5299300946922298 6.445020702994532 12.890141427809489 0.41885584490192385 1.1678400501613757 -1.2552956099718835
P 7.760280112639259 8.535926389249086 1.253622109847168 -0.438898879595728 0.34453373714958085 1.1635643056041574
P 5.411125427098909 2.783019978338973 7.984947473940961 -0.7087626387352438 -2.428360398867308 -3.222455123312154
Ni 1.3805305297072592 2.1508820732542326 7.857089305602526 0.5571824805306855 -1.095089657771527 -1.1437544699670819
Ni 5.468091983172044 4.260470734406483 10.834730640966418 -1.0767404658403779 1.03189657005281 2.963306950817929
Ni 8.335010998588443 1.64515706708436 8.841152609404855 -0.23678934518305023 0.134422158368033 -0.8576379964141294
Ni 4.86108800158671 0.6070287576325946 11.150305907826326 -0.2887258861513415 -2.876064278349176 0.9105428148329608
Ni 6.761364944950915 1.0480451517759015 6.973606659735442 -0.6446457536506769 0.3069732623973036 0.04102400782084548
Ni 4.367246321788408 8.349500398079337 2.891605134802344 -1.3922973561416343 -1.8740822364676113 -0.7456196596625932
Ni 5.985819607792893 3.288240287249821 5.871959906157028 0.028747247336021457 -0.6799608840122031 0.16770354612898214
Ni 8.38226901466071 8.651786527293448 4.794098157949356 -0.06373481915479992 -1.1009522871998911 0.2853675112020698
Ni 6.098559799145104 2.06039444286809 12.521637182948641 0.507134671944675 0.7557143248944339 -0.5086755340692336
Ni 0.7380821184363446 3.8711656214227985 4.940220861276189 1.293726917364888 0.8559876052949 -0.9388614592719959
Ni 2.6071192190983297 0.34102944371094784 3.807724258332074 0.18081437247932733 -0.379586614988656 0.28131622395083167
Ni 4.0305948973916506 1.9614829564131424 2.321280714740131 -0.3438210273532724 -2.916371976829287 -0.777826583412441
Ni 6.618829262688674 6.495985949842178 4.972535250324439 -1.3668102676141236 0.8508561976056055 0.9558348539015409
Ni 6.731018875212858 4.8798627396224115 2.3368336490004973 0.21667431960073008 -0.19958985331461754 0.0889336870179307
Ni 5.05483669116921 4.80357086668555 4.249922561692878 0.5571107467524856 -0.049046878125321984 -0.12260716801097594
Ni 4.987023732183955 5.459108371961413 6.814939017812026 0.008843309323242832 -0.5189872004078868 0.1475293851739524
Ni 5.911032650319303 7.171234177161387 1.060368941209893 0.2195318436541832 0.9436979614286909 0.9270364416126099
Ni 4.121247701426202 4.06578606081634 1.7337387770941517 0.11028515611051327 1.8064794497169727 -1.155251414863088
Ni 1.6991413211723512 8.323962716772712 5.821339688708279 -0.8930837388162489 0.3226564774605153 -1.2180323547450507
Ni 8.374175505888722 5.776874942556865 9.362885694999596 -0.7105570116315053 0.1836119898291225 0.6756514580035718
Ni 7.415773763629323 7.187503781529569 2.9291839750779074 1.138975817631516 0.2756196877866866 0.029012842292582292
Ni 3.5855528543840904 3.667946975998245 8.977928319494561 -0.06230142914238303 0.6394744938623826 1.0322120444107
Ni 8.583542281559572 2.106762356501715 12.98705614838146 1.0013503218348367 -0.9566486080520878 0.0012053331620108273
Ni 7.532735059329737 5.112886052270795 7.069701935485035 0.64784729130711 0.5748500730137778 0.6731855129615826
P 2.5768924414396794 1.2687263223626932 6.107274544361381 -0.3707888141913679 -0.2520637548436175 -0.8998837924572181
P 8.913458291626807 0.463272625634895 6.755066323158292 0.2274271872418599 0.9433259228012528 0.24445688903063706
P 5.072290040017648 4.251211833781839 12.976969544252016 -1.3555066696758462 -0.6007647359970105 0.8070397146412875
P 9.076301156329421 3.799792252682973 8.558186291266194 -1.258696151013 -0.343982235521485 0.5531628178483312
P 2.8058139418192667 0.4924459624692552 9.94947513127309 0.25925693015794704 0.03346033654097463 0.2112210097956427
P 7.619341108978294 4.543743541426079 5.004579855746957 0.3371186756324323 -1.6388440378217644 -1.1754988522582142
P 5.906894132795305 2.829608123503809 3.0721784730301707 -0.720639849788804 0.2370860504878627 2.113006111495161
P 9.360390655277257 7.881600157394881 9.321640917360757 -2.194319820073989 -0.7844142639322877 0.8552900650072431
