# total energy = -340897.52265511104 ev
CRYSTAL
PRIMVEC
9.03491776960348 0.00000000000000 0.00000000000000

0.00000000000000 9.03491776960348 0.00000000000000

0.00000000000000 0.00000000000000 13.22351541930443

PRIMCOORD
 96 1
Ni 6.199995399541675 2.22172238989618 11.34532679192055 0.8509297311560183 -0.3324528947256468 0.6091190214989768
Ni 4.613978850443062 0.3983693960235716 6.038386020546006 -0.895740973933438 -0.4716848157774974 0.0359638196891187
Ni 2.710213282498646 1.6388888871885676 4.568460031828741 0.04097618530204556 -0.521428719969844 0.906024358137317
Ni 3.3583963445713723 4.252681528522483 4.752068531811292 0.4912915342648313 -0.5047546017482726 0.17013786660208766
Ni 5.193595922467144 4.648347677185064 2.5732168261661106 -0.12249146836871808 -0.6532970015677717 0.46662899852114476
Ni 7.259339494047364 6.1545045891720696 2.607055303242035 0.22638126247584883 -0.2552362390343282 -0.48541939175477045
Ni 5.086640567322083 4.548629291077948 11.365267758666679 -0.08429618824591933 -0.19356858682120212 -0.16109966765921932
Ni 5.734335743841689 7.760687074466304 12.494344251089677 -0.6317627270404216 -0.2052053997291821 -0.22791415418060745
Ni 2.1736927676668216 6.277659551664241 0.4206648623093856 -1.2338952899192364 0.5628270804109725 -0.09335418468312955
Ni 2.6872103821608078 1.638229338200091 0.4484065769548416 0.021478224478433977 -0.8848592940239277 -0.14629551276685127
Ni 0.6277216840699373 9.105299658864723 4.7039214556524795 0.19779522330804 0.17552509905592995 -0.05535713661406595
Ni 8.410893958092712 2.2146028747876896 1.3864587089878662 0.9143107665158254 0.7797338277374829 -0.21796861293212139
Ni 6.742063353810825 0.7825106037313431 4.828990013702998 0.4316324278413018 -0.41438983871077023 -0.2552593789627797
Ni 0.8115108824054954 7.188397320656672 2.3166143229944685 -0.11822677955509314 -0.3120175096894304 0.6993778550862342
Ni 7.470711392477732 3.9579625147674666 3.8033344166402374 0.35918259741100717 -0.38735623163174576 0.280965011259
Ni 7.899445339740661 3.9571855118495347 12.418070572793502 -1.1521015563801966 -0.392203275311402 0.5251761028274181
Ni 7.975645835203869 8.686395702005395 7.0063337915923345 -0.3186951788199221 0.6546082641800275 0.2116303294189194
Ni 6.59258967620313 0.6487070872964479 0.37704970084399736 0.16989464024303 0.7145188244927307 -0.0012241022150882145
Ni 1.8542813239733493 6.528613424320872 9.245405933852517 -0.1624636378862815 -0.6093110829051248 -0.3587897328479628
Ni 0.31562129573914294 4.744587619996787 1.4545603042692827 -1.171321580952073 0.21974370255467315 -0.42337430159756767
Ni 6.35463705004538 2.0425870776423265 7.065721208799971 0.5256581846701592 -0.2871788533791958 -0.30362440052972867
Ni 3.5001993770939035 4.231169389596955 0.5387178068043935 0.19101393872014844 -0.35460629089423445 -0.6416817859263464
Ni 5.896982331383621 5.677018226267752 4.87230973336122 0.8294247672047071 -0.26637425792901864 -0.35082111282018935
Ni 5.361500832081589 3.0159458608694605 9.111517489191709 -0.2128994259393301 0.30844830428093334 0.6009825084347714
P 0.37184107081856 5.601395965534169 12.517246863841596 0.44287020553865014 -1.5666137796014439 -0.5664222539613987
P 4.061466531370087 6.024727032042178 12.593586497036616 0.4260770452407114 0.22874642027391573 -0.21929787326650618
P 2.2023153867831886 8.516656704107925 1.257860208611348 0.41437184098864116 0.03146696026002968 0.0908481304318242
P 6.303671079579652 7.943626087050963 5.933430996168737 -0.3174008854885308 -1.4299439628498147 -0.6386214018334678
P 4.546966866230281 1.012877513029845 12.677159485302523 1.266766072505328 0.08939108627032347 0.1832692617777231
P 3.924099643413886 6.081339826039388 8.265305295074677 -0.36919678711389964 0.5942325913054476 0.12610823918569894
P 4.620989946539749 0.9953407378704802 3.7971057444120735 0.8473497271142438 0.1602874561705691 -0.07297664946804205
P 0.155603869233469 5.495064019706985 3.620347518992032 0.21472439496321086 0.7451576324245103 0.8383675782202916
Ni 1.3310150333346158 1.2059265984652658 2.536640769042124 0.19679377862671912 -0.2116714670695 -0.1802687843885024
Ni 1.9433836818412822 6.233189686989127 4.882069251407148 -0.4040966843148782 1.1037864142145764 -0.7566239811928969
Ni 5.947460416296229 5.737127533395653 9.17374729149215 0.4714565018167752 -0.08534468411509172 0.5479725318966434
Ni 8.622383310452536 2.35172581996733 10.051524777404273 -0.11427859354062254 0.37633185549678416 0.7823738364634913
Ni 2.3675007861848734 5.054720203263331 6.999338958347419 -0.35253501018750255 0.34137642246752176 -0.32948095658151644
Ni 0.707551505953297 0.30555459049310246 9.101573658825714 -0.28537522451155367 -0.8986023546416331 0.4442156638229511
Ni 1.5024345259150544 1.1470099004672138 11.46499969715027 -0.27869292739537166 -1.1373133423274284 -0.8508903932776507
Ni 4.276858968154868 6.794384561924107 1.6056259343669714 -0.3040764004654828 -0.13397735752113057 0.10215764190737245
Ni 5.394062675293517 7.887654772206931 8.08632538340441 0.6510611702587176 0.34440466777088424 0.13448746438832967
Ni 5.365340672082995 2.8569222753053274 4.821332920994311 -0.2725202229257565 0.29519375326387226 0.049643631169056436
Ni 0.8602117990162759 7.452397614400436 6.8823900807892855 -0.3101490890221239 -0.6966964515993291 0.5829801583200799
Ni 5.107755169870994 4.602125038485779 7.1358719234044905 -0.1786477038453117 -0.20973954015410973 -0.6073238772717668
Ni 8.270175115688225 7.367487458322273 9.3373624222062 -0.23004251337751996 -0.26002003357621667 -0.35137338577923355
Ni 4.5872625989509235 0.3591171962915462 10.549773381069135 -0.2080158725947837 -0.34302964180022855 -0.3676142731181282
Ni 8.137416035733713 7.409951571279005 4.5941932842805215 -0.7271696804875218 -0.9475520450674584 0.3231182475882822
Ni 7.256321831552142 6.158823279808946 7.05957204384713 -0.5911539523801238 0.48590661580383415 -0.5641542838628285
Ni 2.4933842938074555 5.187822610088558 2.5700961656096735 -0.17418246898510648 0.1721790654018325 0.8070427999650811
Ni 2.3369989041972294 5.0968048496787475 11.370319181125 0.1564505989229822 -0.08751340963163638 0.046213779551901056
Ni 0.9129964984050231 3.3462443803316266 3.8010332231146884 0.11125369067136968 0.3110497464595223 -0.07899097398292203
Ni 3.7375014891808287 2.5814928107338475 2.53898081271357 0.46992746676675845 0.6823196140523669 0.044103675187433716
Ni 1.0638254136602723 3.1911961585336552 8.173177143285637 -0.8469375792774898 0.04146623756458665 -1.040076534760441
Ni 3.7709306844871913 2.59846942099889 7.019094709281714 -0.8427677641705162 0.17470234604431847 -0.570173750584031
Ni 4.212918855943212 6.826386240241713 6.037037107340805 -0.5674460672402227 0.7427770480074756 0.5986127226510142
Ni 0.8552724095368196 7.409246847702276 11.526038697304394 -0.31920811390059867 0.5626638153602309 -0.23233722294896758
P 0.10889786243988978 5.692657668720541 7.961124915556196 1.1821937477798867 -0.16428346470383967 1.4688699504910507
P 8.397946921099734 1.5588304818886536 7.894041555493977 -0.03592551025201555 0.7684176313937153 0.9037201354841726
P 1.7155501634519432 3.208398641739957 10.283041831719665 -0.6302272642325017 -0.18360736184343218 1.7741506556772804
P 3.9650458902053556 6.239116592967769 3.855726097111193 -0.002355901826686265 -0.6986666879518225 -0.4353242748705922
P 6.980043084721527 4.100226328090167 10.290791080588386 -0.21939608940726732 -0.23418995988699023 0.375389803298489
P 6.2425679315102105 7.758292821288957 10.275451597401592 0.9799137492276156 0.11453467541548662 -0.09371773867013537
P 2.424872513264712 8.310814175279583 5.8103998120483755 0.9581771288814723 0.7725362815477792 -0.5076504352388289
P 7.1650510934481195 3.988780618872873 1.5004856941778701 -1.4849593998537458 0.5477745569532244 0.3449847086440704
Ni 5.452753500350309 2.969479279393616 0.444221603099191 0.1896826215032346 -0.3966759663707749 -0.31661258525928054
Ni 1.4471679346477513 1.052387207914906 6.9002421745746485 0.5867725354829766 -0.2633938351444561 -0.2260511328299397
Ni 6.858541512159373 0.7558819909404124 9.384821037640055 -0.7990530968913852 -0.4164402934818957 -1.3549615958056536
Ni 2.7819685984778713 1.6243878443597266 9.249584583265813 0.5578761641636005 -0.5328801563398952 -0.24695188753834885
Ni 6.337317112909623 1.9615077266479208 2.5537384472036813 -0.37327969893402163 -0.042287190803985235 0.52460814613909
Ni 4.171475688680972 6.910925964696209 10.465275217235831 -0.47496014409465953 -0.2526522803572358 -0.4142589695598607
Ni 8.25187940744623 7.047018929263708 0.27902445830456085 -1.050787750530358 0.6644874709669525 1.1200015905218583
Ni 7.71593712734403 3.9479970005991105 8.151609891362442 -0.02112006980806685 -0.21905670378997757 0.22212762940581746
Ni 3.2099436126581695 8.125508014270528 12.463162943294725 -0.09259468080928569 1.1640957526275952 0.2653386175756527
Ni 0.02569891976470775 4.906972194926858 10.313587984803796 0.6387090764512677 -0.29857295414875035 -0.8086947337462072
Ni 8.645106128343212 2.262018122616823 5.8190082815856465 -0.34320421970487985 0.6041735045682434 -0.4759366490753159
Ni 3.6263448973283468 2.5435642264376015 11.476689073606316 -0.20035578494636463 1.0348651657628305 -0.1511150456426817
Ni 1.0643404039663433 3.121247826084504 12.592952245817562 0.5418461072839313 1.2025239746968064 0.5422114610431501
Ni 3.015476045151641 8.453909201026118 8.126101608360157 0.2040761712207453 -0.06816791522548905 -0.3736573939884145
Ni 5.4491485682078125 7.893419049667866 3.6348666316561737 0.1869269131349684 0.211593562643713 0.6953386520198541
Ni 2.7766108923112025 8.36153620296875 3.464931576045691 0.5435443209219607 -0.3618192637029059 0.4146050400453698
Ni 3.098922544570444 4.105267812139072 9.001074655833605 1.9588975304417942 0.7830019569657934 0.6103886322400197
Ni 7.358967530977976 6.165491049034918 11.468728407664578 -0.6683029880583007 0.17252307900481256 -0.927720355053512
Ni 0.3161841711087609 9.136741172288005 0.28920048605417076 1.0026129905973444 0.00855046067317237 -0.25156238972716677
Ni 4.414298135452272 0.22449511631752772 1.7094832162497209 -0.038669134435423726 0.18782525657952168 -0.7582527750455716
Ni 6.06029750283168 5.522747007387713 0.3416680598333898 0.11274493050491552 0.045838398490353316 0.11747061811535899
Ni 7.947583380981824 8.990511030116794 11.34604055041493 0.03840225392728225 -0.6751403226951082 0.27710501408296145
Ni 0.14072697383037247 4.836761849865845 5.8937342784883135 -0.5469245502481032 -0.5399951701181216 -0.3780902329487876
Ni 8.094247199200254 8.75619044085449 2.250100162744222 -0.8457679844494209 0.4467008921386501 1.1614714276308706
P 8.366541547347055 1.5514399192506525 3.556199603674417 0.20025345504054543 0.2771916602594968 0.4692921471756047
P 1.852040664396058 3.283623366096924 1.6720867886030812 -0.03461321919849523 -1.1714059131357633 -0.27773699124000556
P 4.722876712882952 1.0793654720189059 8.274230890221476 0.18945379332188017 -0.511745688354125 0.2062320412214835
P 8.317897550717472 1.7104092953088836 12.493669342741194 -0.12746295344138048 0.4217444793036285 -1.1558360837219643
P 6.2277506665636055 7.7952908090672155 1.5345626930797642 0.8479750194030686 -0.1353734665377088 -0.7611180124085085
P 1.817527278971651 3.06695700592344 5.921807574611537 -0.1490630482096594 0.765587875254404 0.5221123763004297
P 6.945827851579582 3.994075080615989 6.077593949181544 -0.33371504926752205 0.3659620822266859 -1.0735263297784543
P 2.3694161887267513 8.399609345947404 10.325753501420017 0.43139614346077965 0.7615245038183078 -0.0853534258658401
