# total energy = -340894.81936126977 ev
CRYSTAL
PRIMVEC
9.04365469362468 0.00000000000000 0.00000000000000

0.00000000000000 9.04365469362468 0.00000000000000

0.00000000000000 0.00000000000000 13.23630279075067

PRIMCOORD
 96 1
Ni 6.29635532386498 1.8335286807738866 11.387853445730737 0.8325286029410114 0.8138729355130371 0.16346868211202817
Ni 4.528076613160362 0.45421123655577983 5.9583749487540025 -0.732488521597274 -0.2168167587158653 -0.23428740469680295
Ni 2.457070598491961 1.5007312242833803 4.562910963085907 0.8999681246409081 0.4205427456860435 0.5751758317843126
Ni 3.313278625700274 3.9218261636020153 4.6798408990541125 -0.6133675123626856 1.1979389264292852 -0.5027648250117535
Ni 5.02129042018291 4.667140894484705 2.548279475572571 -0.3064772965974915 -0.8048650755874719 0.3161824397003974
Ni 7.022560811953996 5.919044997980026 2.8645478440110193 1.058027719922223 1.5355713084733427 -2.045979508962967
Ni 5.026092600932291 4.538413510705639 11.418786362934469 0.46766155355071715 -0.5572768400167047 -0.14581291670347793
Ni 5.676385649830531 7.841979251048409 12.41366708121016 -0.40346753537131164 -0.2771682632207291 -0.25420162712222677
Ni 2.027885868127822 6.36448117619094 0.3288462836667693 -0.39673664440538126 0.6467036646209702 0.9928996199643223
Ni 2.647936935056329 1.5100914070999696 0.42792133177527214 1.3740610356392657 0.5616965663509552 -0.47092993988934384
Ni 0.565970915020368 9.098821190116539 4.636531740126224 -0.8352817402061163 -0.4081847383413228 -0.14454870527907362
Ni 8.607569856206261 2.372837996797552 1.394087541393038 0.0692673189372549 0.5415979958288673 -0.39511710652408727
Ni 6.845305176006987 0.7292830438498705 4.858768706791253 0.5902283552420609 0.0754294818839088 -0.31727850097805355
Ni 0.6513222168253207 7.6079204187043015 2.5478824591226696 0.3736802768065499 -0.5189203517256934 -0.46405378159480076
Ni 7.3820099194208195 3.830376725301192 3.82498670698362 0.916641214421215 -0.7696157654668745 0.7010678411941474
Ni 7.702833576830008 3.7354906981401714 12.615666156950587 -0.42723404166329004 -0.01998698464488816 0.28090973254103235
Ni 8.135364459505391 -0.33673235073543206 7.134962589916146 -1.3025612278270666 0.650238417247106 -0.3851260567496464
Ni 6.69477354027546 0.6427913371626262 0.36952826084758655 1.913847432180691 0.39926301037166073 0.18354976913261936
Ni 2.112615870841471 6.496826021928109 9.021242005328569 -0.48547158514894456 -0.22308716510560936 0.32377567866662305
Ni 0.0436075995394324 5.022936365373846 1.5657089803403013 -0.04329866278763511 -0.9665789797919224 -1.413051300859534
Ni 6.349007482665158 1.7588823532684479 6.982493803306055 0.136041696249327 0.766125492925429 0.9452982160362752
Ni 3.6029740229599927 4.234492444295683 0.2297649049998398 -0.7285670750556807 0.14780809275663576 0.3719591803503852
Ni 5.949214630710599 5.804362410253292 4.876333293328818 -0.813849024253637 -0.7646363099744121 1.0566596359301026
Ni 5.406513944101213 2.9252515687644425 9.291540571568945 -0.3233398766807851 -0.7146918597354852 0.18716345462580672
P 0.17062301944682706 5.489742700102249 12.53234334693864 0.46235736772898434 0.9270007032786679 0.0864767408370059
P 3.993072076866838 6.2064613942061415 12.443845757595627 0.33471289440441715 -0.44301393020536606 1.8157169091548409
P 2.4938240119862796 8.25389060056261 1.5045440291872199 -0.31942742900025634 0.7780872932729954 -0.6287393668330656
P 6.207854117060011 7.951950094574715 5.977792580179607 1.324165179250087 -0.629258215451013 -0.4234552913471482
P 4.817003299753984 0.9607707651072565 12.651086535713345 -1.8633424814526038 0.12606710153511838 -0.156600237126969
P 4.1248652596553965 5.950118996200124 8.180127838140438 -0.4213210186129647 1.751454756741661 0.09137906323462971
P 4.6405525490926545 1.0150688690983702 3.8330084288757114 0.7369023343942535 0.39399919086956015 -0.8634939409742742
P 0.10690594888230455 5.741111087915875 3.510016103022641 -0.22146839855526373 0.005641257446177381 1.2365710369791865
Ni 1.3489153895567265 1.0240582620642544 2.410714632229861 0.24277821577663353 0.29009602702599074 0.5719025603496796
Ni 1.868871284104545 6.446199641824467 4.58692186683281 -0.18883390034969413 0.9016719947058922 1.1462008746250454
Ni 6.253470312351679 5.644289718607269 9.356650364987335 -0.017775321705550032 0.14795361719556455 -0.26037715980531934
Ni 8.643328467662101 2.130540394843867 10.30476634379966 -0.315499811811076 1.391870553016861 -0.9780877517624705
Ni 2.5784002725667095 5.081096110005235 6.7202169589577725 -0.7499627671226374 0.876919984572193 0.7280513117615267
Ni 0.7448697830618434 9.150641332666353 9.045239343593128 -0.37008176082201427 -0.4493185322671552 0.013144507801758009
Ni 1.553862696793006 1.0993828636868372 11.321618621643376 0.034850789130598046 -0.350140541813397 0.19927052230198586
Ni 4.266787335926641 6.860408079682065 1.6270195343371963 0.17128046484696308 -0.006605935352291849 -0.20161202595096891
Ni 5.414291487311132 8.032194444460318 8.029749944542129 0.1329319469757517 -0.7727589390815465 0.882696224934338
Ni 5.137130595736237 2.7504105886744683 5.023322529437874 1.1789559575688793 -0.03736558513265178 0.008320089829921154
Ni 0.7406762402869134 7.161896402925196 6.789402727637455 1.182446230110325 0.27102152689304293 -0.2740379451218636
Ni 5.292500586836726 4.397269188755387 7.42041741739548 0.08532874327549175 -0.16181700544121808 -0.5416864417776155
Ni 8.486909412593763 7.136818347900653 9.201308409217022 -0.7125169635713535 0.6932601722242705 -0.1261285509006731
Ni 4.505774960188662 0.3226115879819802 10.393291064107359 -0.15109961902371397 -0.47468323628418896 -0.40088074848074184
Ni 8.079067707782427 7.28838096029024 4.900833458805555 -0.25353545429313756 -0.059602542153981225 -0.3825215292472638
Ni 7.2057309982025 6.160781893330205 7.12449275064391 0.3241988822469707 -0.2630991867221727 -0.3631608653324649
Ni 2.4782237072919644 5.167390665015762 2.5756121137625017 -0.5511776690975023 -0.11940074525853629 -1.26352699674274
Ni 2.2056660360587546 5.256407360149762 11.471242274423421 0.5634377174117781 -0.3827069057851925 -1.0371524191351105
Ni 1.0166334213952495 3.4646151467174797 3.6165548795161984 -0.439502831728314 0.11192449148614918 0.241221669922791
Ni 3.65067025887757 2.6207697957509812 2.6447192026445965 -0.5704087494129725 -0.08632864529491584 -0.25054166177213627
Ni 1.0513520125381353 3.374413732792201 8.274370861438406 0.002572645823182666 0.36419419169298567 -0.460521085851194
Ni 3.539433303665928 2.8987355726115536 7.095466235892097 0.14855962621067964 -1.2135159549319359 -0.028831065299079375
Ni 4.154908281217435 7.096863480573415 6.089612851131993 -0.693092793408471 -1.1254070778081455 -0.4443267354795187
Ni 0.8031687999786183 7.3965430728374955 11.474326160742702 0.8755218186730858 -0.28332862639517015 -0.5240317048103298
P 0.24405026227238535 5.474350399470524 7.976301944111169 0.0173451761466669 -0.31801692180597485 0.032041344706260945
P 8.37887391121504 1.5953007235230667 8.116832201894034 0.5247801529405801 0.023947769064849078 -0.66734602346167
P 1.7044395507990098 3.2023943730295463 10.421219679154888 0.5675748795086032 0.295475289060033 -0.08638058157877382
P 3.8484911660563883 5.943508084471691 4.013895996628653 1.9185492085317346 0.7586870343695128 0.011335479617477252
P 6.9903382695622 3.913062862008513 10.54610350960347 -0.2109785547675334 0.17774113287064228 -0.8524060585912288
P 6.532846899375911 7.755956005684738 10.123945699092944 -1.02535825471366 -0.685188965180362 0.26567054699377474
P 2.3606652373085377 8.441419828470627 5.6890422448564415 -0.34456459038751625 0.12264907699250491 0.5805874897181872
P 6.927186427428631 3.9297936235647355 1.516880478829838 0.4584397778421331 0.8194635422269371 0.8643976837354661
Ni 5.32289631093968 2.7257666290848968 0.9018016133627431 -1.6751870952271728 0.15618217575294394 -3.279399401907681
Ni 1.3173530339722848 1.1107326505803827 6.750276259098622 0.10117625183070962 0.07530632604248322 1.0670759461674204
Ni 6.72239286232557 0.6868701111221014 9.246828741766802 0.19067121066874904 0.11678619045382468 -0.16254797006997165
Ni 2.6216832048954015 1.6540844803422274 9.048548416919303 0.4407698713661958 0.2528034612231194 0.7984360321326766
Ni 6.3390685059352725 1.9592535711277284 2.6226671545480054 0.9930775403030833 -0.6106107755531548 2.17932180400326
Ni 4.320958828749221 6.73493641166529 10.429465683688381 -0.19817446102432967 1.0476458624672669 -1.3119668374116824
Ni 8.289622081053764 7.4007845469833695 0.20104587451446648 -0.8958697862018183 -0.7133659418352102 1.3244544283557318
Ni 7.675566957320813 3.68517180230297 8.222483795842367 -0.4674185843019756 0.7610352228867152 0.18614658332551814
Ni 3.130931412047238 8.309708038576126 12.37177415863887 0.21378877052281892 0.5123622388922014 0.48601948723261457
Ni 0.06605575972043555 5.1457944171258925 10.224977794120779 0.12471290150006911 -2.011629313617871 -0.0847805840815056
Ni 8.539453047535197 2.553267955612794 6.054033304043078 0.023345359594159794 0.32898550500233664 -0.8849508252964695
Ni 3.6451717167012547 2.467027662531638 11.37300195566175 0.2541592039200655 0.4447895340485501 0.3352739091142097
Ni 1.0755618766927342 3.433206533266257 12.575837900791882 0.2792099762411063 -0.7709026025990982 0.5584567192574188
Ni 2.960322862448243 8.602107488649526 7.901781323408775 -0.17586474178353584 -0.8423363330600525 -0.3455629497450436
Ni 5.71226182880001 7.933564344172661 3.6192417493855786 -0.29223569907681285 0.15434075166883096 0.13781678587187876
Ni 3.240097370287867 8.395803633178959 3.6006054897429256 -0.33972140336260204 -0.7617900987748686 0.28778769060778825
Ni 3.415580449875404 4.3317840836588415 9.456014810052487 -0.13633994421603615 -0.478330346118473 -0.3099845384198016
Ni 7.326490922018846 6.129698851455212 11.598257694330814 -0.12676978402909778 -0.30422218201472767 -0.9347268682783322
Ni 0.7302561411166 9.193236947223006 0.209877907885173 -0.2574946960512017 -0.5146471782716362 0.20909830702568505
Ni 4.62342386672104 0.3422824417446504 1.660110267598936 -0.49066367087284535 -0.4172069964445912 -0.16411351478487862
Ni 6.075292223605355 5.568223537283275 0.31468120700433067 -0.43816868629792277 0.42603282226633726 0.7227900633625876
Ni 8.023394968247233 -0.28562846565332245 11.3401364094069 -0.4619364781414818 0.9554167925275158 0.012724646655520021
Ni 0.020233369097155084 5.03423189033802 5.559776763611106 -0.19623224969629433 -0.7780350998788214 0.830714175440092
Ni 7.912076620141534 0.12780854844170855 2.4903838056641248 0.266144915527032 -0.7147039439203433 -0.035130268044229813
P 8.596807906880908 1.8261671456891486 3.6992690515536943 -0.8421365583444207 -0.439012779465773 0.3977285760050054
P 1.819845630917365 3.3182797668573505 1.5061320949868269 0.34301575784315763 -0.5075997845065516 -0.32121614546956295
P 4.501017997713757 1.1032625916369019 8.068373585868786 1.1522319113104738 0.8664219132543465 1.215171745367804
P 8.547746079074146 1.6236435379647973 12.37472600759668 -0.4866851458410715 -0.48359082318646396 1.404511124599007
P 6.442356088493985 7.767088744860798 1.53300260241161 -0.2142140309856956 -0.699757092802524 -0.587893279350981
P 1.7308470230931559 3.1573298406864887 5.939274749615223 -0.9812373531350455 0.12272209632228542 -0.15236228778622146
P 6.762311555033228 3.9924932829535416 5.9987458242064235 1.236891653543399 -0.08228918511821957 -0.3686802524887973
P 2.46515562596832 8.363517785202896 10.213514961541042 -0.030398666896515384 0.026670824422966966 -0.09430780684565047
