# total energy = -381171.9711115101 ev
CRYSTAL
PRIMVEC
9.20280818406854 0.00000000000000 0.00000000000000

0.00000000000000 9.20280818406854 0.00000000000000

0.00000000000000 0.00000000000000 13.46924001148835

PRIMCOORD
 96 1
Ni 3.808499313422257 0.4204220062398692 7.20151760828198 -2.043652403491687 -0.09944615651348035 1.5865634832504933
Ni 0.951174638417615 6.701190380015653 12.704362488946089 -1.1281000512592765 0.43886931190937317 0.7498450105978505
Ni 1.7746419086132301 6.768794208433813 8.678136699156187 0.09292378201393028 -0.04683752917882901 -1.177666035112862
Ni 0.6974191682768814 5.040516047107636 1.437235673542936 0.7173213269385325 -0.830894152661382 -1.196452828802062
Ni 5.313278076849789 6.713604968163774 0.1447610919412611 0.9734129719946204 0.44516182978630425 0.9734451107841363
Ni 6.9196742474912245 0.2902418434771724 9.512071243302636 -1.3398378527903376 -2.543887262992735 0.09387714706613509
Ni 4.930155972183789 0.5527050106570106 11.22483347014569 -0.1332412506860544 1.5545882158954776 -0.9536890112031318
Ni 4.4148723401677765 7.586960661154767 11.654663507122269 0.9898163530533083 -1.0972506699785878 0.13656928661802284
Ni 8.892765510312078 4.603244619488675 12.57163590917777 0.019713162158211214 0.7329076114125637 0.7048203662580442
Ni 5.993098715166958 5.764694220542629 6.744775799532566 -0.258215119156994 -0.1300363705955115 0.15085356445117892
Ni 8.646507567943232 1.2733189365087807 10.43017559075637 1.0219836818144723 1.0924573623550025 0.5913259591816138
Ni 5.868437476431265 2.732921114896189 13.562985406424609 -0.06655094844735635 -0.5660278467364575 -0.4580320008807532
Ni 7.169171578316809 7.444988940353384 5.254902824410085 0.17620695561430297 -0.5135382614781736 -1.7737778457188937
Ni 4.8195842326732805 3.6731076004236214 8.060504956961882 0.9851559714631615 1.5274993300984856 0.40268334890711943
Ni 6.731191534472936 2.3856071366084994 8.8275378469494 1.4755555900413426 1.1323210313191596 0.3691787893917706
Ni 5.703918875746341 1.3286554217086715 4.358767420490222 1.697389342355825 -0.0846877672573832 -1.2999770120396579
Ni 0.39715086535762006 7.816763982612687 4.135636134916207 0.1805714032305858 -0.5343060901531443 -0.08605430858760664
Ni 6.873089632809394 0.014882781284760267 12.201810941958191 -0.23020963508300352 -0.06257550873937609 0.5283149055667159
Ni 0.6333648629489586 5.667438944375583 10.644739982255452 0.6310286770878746 -0.5231035365691056 -0.08297052745596034
Ni 7.736138180710768 2.9482116079556016 4.278342239805225 1.0041209426014384 -0.42624211006366597 -1.775488143541781
Ni 8.027489882846698 7.649291280522614 7.326970288515626 0.775365266356142 -0.6306494393715848 2.4873769866108324
Ni 0.39207183555854813 5.337472259386046 3.773636315437433 0.5762631513112204 0.1367924583724225 0.22663914412292582
Ni 3.2575824083821323 2.2293158463790386 12.580444837106148 0.22371117184285344 -0.48243691208767875 0.05096877773838319
Ni 2.204707537477574 7.536308405285784 10.91403071277635 -1.4861521346102662 -1.5959994318524124 0.10806243742758165
P 8.494928115469024 2.074073676274771 1.8265503477900111 -0.22187823239917273 -0.08966053788162623 -0.642120673235978
Ni 3.582708416302795 8.658572449382953 9.381083073987377 -0.5266064075160415 0.33046543198197276 -0.3253229685490849
P 5.990347075540354 7.3111525019263075 10.01464947843407 -0.7144779439524662 0.46215065103481695 -0.5955466821311807
Ni 2.7502500025781105 6.485430543742338 4.6022507162121755 -1.3273631173620948 0.3625047198057047 -1.5132587610190713
P 2.016565328359568 7.608550448994273 2.656417250749305 1.5339522848126808 -0.4677140040552074 0.4762138139961024
P 7.067084827889004 7.877870628501142 1.1244920439419894 -0.5821715463758553 0.1810725112367204 0.5395562828084902
P 1.7992042034741162 1.2904729708365033 4.095578151750052 0.6376952904747727 0.49709579965143413 -0.07505410082236107
Ni 8.587048224707493 5.61352889443363 6.198975655804789 -0.6040634613529403 0.3599773253981607 -0.1439061865990683
Ni 3.7368094382007118 6.932576584469478 6.589798670302033 -0.12004223549727713 0.11679313243236016 0.26301176921468894
Ni 2.8408056344369044 8.860067933076886 5.327569117572708 -2.2131138128520402 -0.22904723934378618 0.06309230047479457
Ni 3.896018018602859 2.2177939306181433 3.2850803990319366 -0.19484513954078056 -0.06323088293518787 -0.7125203060054631
Ni 2.815672765472843 4.071156659853337 3.9879191010081723 -0.39729714489454154 1.5257095851879143 1.7263481914820202
Ni 0.9554263357670826 0.911193958839633 12.313525670236674 0.46824827929212254 -0.2213583553399607 -1.3585467420537507
Ni 8.144641630159954 2.4458027044934956 12.751289448089826 0.8846901154359149 -1.0241022708193717 1.0273565160906113
Ni 2.2458440897548915 8.8786207942382 0.3276834682960242 0.7968491472615309 -1.458510718743914 -1.682033685835361
Ni 7.168978319346378 6.509882404905835 11.715652357066842 -0.21186481402722865 -0.5151467436158742 0.1747555678797571
Ni 1.1386726509675194 1.4929347493825866 6.13791870508016 1.32575823476882 0.9227280440452431 -0.33602132880319546
Ni 1.266048718097353 0.4252820092057868 2.091651960056629 -1.2783152107955082 1.105338846303361 2.0758374728646634
Ni 8.551645021886277 9.456345479319449 0.3784774474099902 -0.1201363378729802 -0.6532561210275072 1.2344398495687965
Ni 7.6684607298276815 4.2040452090444935 2.2155686916157595 1.3210124925537186 -1.1434942743271599 0.009970223838834443
Ni 3.5584590169178436 2.061843144288965 5.571820847772326 0.1746195565225251 0.6452255374135468 -0.43270252097702894
Ni 8.684975305866987 0.9162021270162137 7.563826642113442 -1.027511553611237 -0.806046754600399 1.7665083086406739
Ni 0.4291941229357841 3.715624573918299 5.444267166445859 0.6351918073266286 -1.4856895931515512 -0.7334406010978982
Ni 7.645858633095445 6.456772999269952 2.9453992297954343 -0.6137668046836333 1.0567768782342575 -0.1237857617001094
Ni 0.3257490380300976 8.270628073264312 9.735539351653687 -0.458983566160745 1.5168778458288972 -0.1766378725041345
Ni 6.321013173946688 2.340715838619963 11.356602957869974 -0.7073521315409624 -1.0061086624554285 -2.125509129058178
Ni 1.7375637947149496 5.262947919264856 6.410738712513441 1.3123707577183203 0.3314817890616291 1.1042726098223756
Ni 7.791161770434724 2.7466609074129753 6.499648882281143 0.9659986818084203 0.5368792501969593 0.4405598122379187
Ni 6.315132579560735 2.1832649945679203 2.1645335989291614 0.05350542811730786 -0.770276538979325 1.6292967604529618
Ni 5.112785699240471 8.878317101570381 5.5757265195366426 -0.17823452756729302 -2.735116660157799 -0.572357388498911
Ni 8.620417606935133 0.5836743005280687 4.959495444737551 -0.8699198991052761 0.24029735833630875 0.8861692710846027
Ni 1.0607340690353932 3.2211116798194905 11.448328266640276 1.3073887311226966 -0.3365915994843687 -0.8041081428167894
P 2.1844613596229654 4.449180408823222 12.962527024455069 -0.6708782049846446 0.33539038008741595 0.09201721103926087
Ni 5.4771340753503805 4.3987674259652465 2.700569563246148 -1.4423857881575932 0.43711941909780205 -0.6299446999950764
P 6.469785769945595 4.282931680212539 12.208411195938794 0.8908353091017045 2.0125808788978627 -0.29549920031943305
Ni 2.8996023754883105 6.360658871309257 0.5600203228282052 -1.2520583339815083 0.786204265953175 -2.2503595845773763
P 4.116112377498683 2.3108435234763 1.24163458844713 0.006251637336666653 -0.3248108047993567 -1.218258611823244
P 1.541783254860887 0.7072312022898739 8.143623799582354 0.8033784637396164 -1.0116972122867998 0.4806710784365077
P 8.65864607184788 8.212852843913753 11.785624988293993 1.7803997219107854 0.05307502544810859 -0.39692227805362607
Ni 7.704508129217 0.22327484938062064 2.9190939230774284 0.14920008800815596 -0.46865991290824444 -1.4198410700878579
Ni 0.29438218684843975 7.274322863847152 1.5943671801533628 -0.8099432614413277 1.0516513840822341 -0.5941580293137703
Ni 3.1868956392452024 4.360980695842055 1.6159183161987816 -0.3025260252592274 -1.604415938050882 0.9233754478212549
Ni 4.482301315231737 9.270080643057051 0.8316402840831959 0.8872337077933752 0.40881902949121207 0.10061369445902027
Ni 5.462096686889276 8.195984096637618 7.957357122758334 1.7141871306394543 -0.17963397901798095 -0.27569450688867997
Ni 4.006322876678011 6.8056882661697795 2.3541399748183798 0.9627660338037356 -0.30691541257617466 1.304337860111515
Ni 2.4452413331984366 4.589550841012467 9.232396064103945 0.3361961638181629 -0.7608909839993669 -0.5274289034173368
Ni 2.730988525191886 2.5820962926874733 7.775954130023479 0.3442969385484264 0.3809071335722924 -0.0647779157073336
Ni 7.508902442717137 4.420918585099812 8.048436394398912 -0.28116298620241903 0.3979566328554114 0.4982612807144451
Ni 4.429872917396417 4.503062850340827 13.074429490019114 0.14267797061892204 0.2281401541484845 -0.5391428494201553
Ni 0.6223785506203988 3.0051585845757454 8.664411631132385 -1.4361652611691782 -1.21305212792164 0.42426647439453385
Ni 4.625303750542082 1.6352193656599046 8.977611720015872 0.10228182619006256 -1.28788845630624 1.0345882579523602
Ni 2.2206560039421355 1.5208928804381774 10.078277693746234 -0.3064554422206206 0.5042699488023702 -0.20596053272765175
Ni 5.135783516721684 6.122342952344285 4.4564865181863 -2.9253662099080975 1.4942781061515105 0.27687207213654896
Ni 1.068473630660723 7.739966548886912 6.530534426598347 0.2646904424686925 0.18812736120097276 0.13786589394225932
Ni 3.6725002150879833 -0.15020363266090445 3.2846092152564115 -0.6559308396461929 0.37516894553693453 -1.3834036531964304
Ni 4.185096627134203 6.460049198959151 8.76714165784748 -0.20170587121635586 -1.3930997974382717 1.1652496637263803
Ni 5.73248439213757 8.118763333738517 3.398773731055302 0.8551602242975983 0.26238004916796104 -1.3812920061700662
Ni 5.6747091627870105 3.5556521604425457 4.916487961570305 -2.7947654821686836 0.09671127408082054 1.7979541858547812
Ni 8.054122809533622 6.443263276956059 9.434879009108695 -1.5540356858261173 0.20976756517856776 -0.37185453645172084
Ni 3.316977331961061 5.489567069114733 11.164908464819295 -0.5180168660748176 -0.12189291555277072 0.7284495756412099
Ni 5.878394914812486 1.6722606683257222 6.73752950842224 -1.602901815399201 0.5140152011145922 0.49376313573377534
Ni 1.292258315610955 2.5890260071986186 0.5736855725992542 -0.2731156904179103 0.3021136203121571 -1.0523530381349488
Ni 1.0335213654371764 2.9807343318365955 2.762393107886818 -0.3001611245714766 0.1320683134238758 2.141492391860312
Ni 5.683948782135205 5.019018287349288 9.867228774947362 1.6057135738163828 0.13958570484684346 0.9971985044499925
P 7.027706011961791 9.182377881714135 6.442688101448826 0.3833831059166107 1.0503285515057523 0.08730926404063027
Ni 8.022198268180151 3.6787213133742176 10.60963955182124 0.18702307239320048 1.1358822663078567 -1.5322242463779807
P 6.84951203841689 5.210896836562281 4.5411946857683585 4.253504771983636 -1.1659446329108758 0.23631214843631562
Ni 4.138254333825132 3.3924035472775924 10.48768854007563 -0.31804288994790386 -0.9053898098771117 0.42030568997457296
P 0.2934628263176782 5.066302315447915 8.539228593176531 0.590206757975506 0.7300045788331557 -1.2295470402528694
P 3.8143891106163244 4.207984010918026 6.365737901108329 -1.0841172179204233 0.7059449667807907 -1.6799963436903584
P 2.956033994853973 9.28793409080157 11.473368187242368 -0.5553320575855082 1.717539592051455 2.1795735150027493
Ni 7.73641426495424 5.828423666744066 0.5624498641707583 -0.8782381891629842 1.0155605518969477 0.10724919749766691
