# total energy = -340878.691313647 ev
CRYSTAL
PRIMVEC
9.22544845645083 0.00000000000000 0.00000000000000

0.00000000000000 9.22544845645083 0.00000000000000

0.00000000000000 0.00000000000000 13.50237633863641

PRIMCOORD
 96 1
Ni 8.292349677064106 2.8424805931642587 5.844759791367885 1.002750544616473 0.07307537982943545 -0.440792497074015
Ni 5.926188211965407 6.639130866899583 9.68756313852589 -1.2736404310276581 0.918563114034276 -1.5620462148354195
Ni 6.361426418156977 5.060527483664507 11.232829441301984 0.37853580512663837 -1.6991770303838671 0.5723936410534852
Ni 8.276537258449235 1.25551895364851 4.1306068943006675 0.07011012655352442 -1.2010705300797315 -0.725540372414215
Ni 2.4441441807063407 4.171517145378639 2.0940836173556314 -0.6344019644354816 0.496625544883235 -0.5119711741013699
Ni 3.989738909446664 8.147390205829883 9.711894336224173 0.1927923707768099 1.0756202361930056 1.0206217684699392
Ni 5.440634410018 7.058612007166884 1.286363317940784 -0.3320903691799055 0.03688144640738165 -0.43179774977457247
Ni 4.135768532699163 3.703307186486049 11.819223852440498 0.3153681713292182 0.1626022203466748 -0.027686410171674898
Ni 1.4873636982286187 3.4487124860691436 11.008703629426112 1.0585979906033962 -1.0221448899826848 0.12569943378305448
Ni 0.9560147702577488 2.869068335549356 0.7295161730448032 0.4416167927475233 -0.5482376126325719 -0.7277592344424048
Ni 4.409386107785767 9.046271773939504 13.145251985920742 -0.10652157530302299 0.05728494976439812 0.4464661504200247
Ni 8.186792096088991 3.1419940020034534 10.554415794764385 1.9087515057150226 0.6838766741268415 0.5879375023253551
Ni 1.2317080712418704 7.835653077816415 1.6766984989724023 -1.864232597367041 -0.12643322662528547 0.22230297864141713
Ni 1.1255323852217174 5.985175729248651 3.353571358920196 -0.15877873283552654 0.08361664568039147 0.21929015995702233
Ni 0.9293347733883178 3.6968770489279605 8.676383876815702 -0.2407339316530951 -0.8043182019450663 -0.36111478143671355
Ni 2.9453258922999495 6.966366748281185 0.4913381581151566 0.805158952678807 -1.2314964506697563 -1.0613930368500302
Ni 4.328801815719901 5.659148381611827 5.7921415236830684 0.11529237951711757 1.8143413689635526 -1.4575439839552704
Ni 0.3247090310556897 3.1458686903454867 3.1858582416698034 0.5285007963252769 0.07602906314112068 0.2069933448675403
Ni 8.174144006286781 2.037145072169448 8.238380803728637 0.8961222685322567 -0.19078536764911014 -0.010328635619517695
Ni 3.1407393410165088 1.2321785691119744 11.12424314560618 0.3895527250624323 -1.0509325036383386 0.2687455863746726
Ni 0.3405306751189935 9.003696329419302 8.158972756338033 -1.0588108779451506 -0.8658061340472186 -1.8397263846955605
Ni 0.9154209520610439 8.751048198621845 4.326688265483806 -0.5465689666808974 -1.0364669630323116 -1.423605936446929
Ni 5.870115936387121 2.6334965098021477 0.8306769052965529 1.0619458240297064 0.6267220792927206 0.1509947180147335
Ni 8.118671384856667 1.6476005120685735 1.633868432075438 0.014401520137310681 -1.074213585653466 0.6429912487663894
P 4.286346302029333 4.797454596137295 9.965968721349435 0.9551576253288582 1.3916952037812613 -0.6154989568833916
P 2.7378271061356183 2.5405132150417757 7.307688966875765 -0.4196976240769288 0.5536158462253498 -1.2661207256118452
P 2.910389119082613 7.344683937638595 4.756428104409062 -0.1638684886536081 0.6131906204651891 -0.13634920018741678
P 5.119515000947752 1.246671748600867 9.859678639768706 -0.6322008430191047 -0.7564409186478133 0.36148579162288713
P 4.4440461175501 4.8881499796861805 1.3432096086426333 0.3302777414511989 0.1615364980863218 -1.1970117866293255
P 5.586156633606661 0.31076384320374223 5.817431245473584 -0.35045678750223513 -1.0170952433739193 -0.6417422068506367
P 0.7803400910093202 5.078461755419062 5.4964797395648235 -0.854482224393967 0.08093755618633158 -0.614826099186083
P 0.006955065573950253 0.14607298286013545 0.4996567449675653 -1.061144925394966 -0.4408616597490536 0.30919495263897073
Ni 4.982793855164567 8.058447657483345 4.08276740890436 1.4474464905099522 -1.0259827756715363 0.9258640185710636
Ni 1.543002377730534 0.9875565784515888 2.2033719696772183 -0.6648368838865711 -0.09313281270094283 0.8616607444202773
Ni 5.68891890370645 1.8523962418419144 11.993850520746893 0.358704372223008 0.11247367912139984 0.012583750202281554
Ni 8.048954671045363 5.287990140238745 6.627924714687516 0.7704873694385505 -0.403532327170976 -0.08829091122760924
Ni 5.948476895380533 3.68071406327262 5.307500118585727 0.37937835563259176 0.6391477066505831 -0.711322171932304
Ni 2.3715399015353786 4.786596243331167 13.13137137620783 0.15213988736277026 0.24855677013162356 -0.011235720814819359
Ni 7.750170072632408 5.270018966690455 9.012444822168707 -0.277519990133193 -1.302874388192111 -0.9131614834027305
Ni 0.47586892618200927 6.96624681745155 12.72100774662727 0.8469226668791543 0.47629608929726364 0.22999649063093294
Ni 4.70605807850747 6.608087232921147 11.879457727807099 -0.755294463748196 0.009869950815544292 0.5244549083906774
Ni 6.880708459576942 -0.0006365559419055147 0.2098927900328017 0.7260553643774205 -0.4245528952867011 -1.276441390811563
Ni 3.5088716353034313 8.414337781699128 2.17392341573292 0.013908382550976046 0.3428450365932482 -0.17683276212375995
Ni 2.370764963866972 0.873619522664405 8.626844141273116 -0.07754807088880838 0.23063232444271892 0.936012162748659
Ni 6.439307653831852 6.934077678764238 6.876949089340327 -0.5622105298728963 0.33211762287341506 0.4449774816896401
Ni 4.224720306494134 8.019719224959877 6.901496162531952 0.9168980676270273 1.4997792384753978 -2.3519202163306976
Ni 3.772654882360017 1.857055093300788 1.2381317509860563 -2.0410165085307366 -0.13999553869075246 -0.23643941804279922
Ni 3.697412124937098 5.949261058497373 3.0740587222846414 0.5807067889048708 1.659652747037 0.6304733188050368
Ni 3.878295492371032 2.3571666528761206 5.353773122838041 -0.0775303302769955 0.029603424688729663 1.6749595525973993
Ni 8.699348785600998 9.025735925726725 11.67404666062325 -0.1589779933305262 -1.647502741938027 0.21900142507200995
Ni 4.014786001943381 6.225203446589197 8.075325615392275 -0.24070487818737252 -1.7525258783186528 2.428170651454005
Ni 7.722106258497965 8.053087671943532 4.933755061471916 -0.5226404808897579 0.06390039819838672 0.3013199207662682
Ni 4.473604454330756 3.9879307215537154 7.260659475851911 0.4695811391709332 -1.4464471027111607 1.386598248874328
Ni 8.216608745425782 4.939572629254027 4.251506396020549 -0.7233395081081543 -0.1477957514614616 -0.6144918557751159
Ni 4.518163370264142 3.4593402026644355 3.127433476740997 0.8729944242655415 0.06862145782313989 -0.16534095943407653
Ni 6.557328815640507 5.049014124019608 13.766347921341545 -2.6626046090310016 1.3819838900307682 -1.879840479107627
P 7.058741163444951 2.9042541958743935 3.4144805371121203 0.9354434347293825 1.6088096962432037 -0.8507628665608509
P 0.2857047576240618 0.9733678387609992 9.90310190299994 -0.27768814027994115 1.5049247872320792 1.1234211577263684
P 6.239263030001719 5.925939124857704 4.74119781159034 0.35165235047223303 0.9258941004780507 0.43532530331185665
P 0.30503299463690586 5.064706611804843 10.250477860856526 0.04387124746165348 0.7432110502211007 0.8434943579238957
P 2.5506058556279303 7.982845107571524 8.184195132354985 -2.4896470135919317 -1.079550167375031 -0.28923470746695995
P 6.918994070575608 3.4904945420240723 7.296940396905995 -0.9329844316659286 1.4686650335690965 1.0186816140244328
P 2.49211651256009 2.517652553823778 12.73885714425624 0.3938698643805475 -0.358604356310034 0.8855630049591717
P 0.6433883090153005 5.291071440015505 0.9370998333347217 0.7176339730829447 0.38400119911658387 1.2424398370551377
Ni 6.992096523961974 0.18088613506846374 7.405013757668901 1.1647202735854714 -0.8478446644727914 0.1492183428406011
Ni 3.327877562488297 0.4149348392793147 4.09275949210259 -1.0390038705215525 0.6121711780617393 0.08187678017114931
Ni 7.241294337045333 0.9930180439241694 10.25177403636142 0.26939684680542636 -0.23650086740835402 -0.6145023972980772
Ni 2.1314937332979658 4.8895245715027595 7.063660172549647 0.7599563880002396 -0.0158855608820049 0.11194197498764594
Ni 8.4917208431586 1.7262197836181215 12.631837329704428 -0.03718637924231015 2.1207551593129605 0.6132569549267503
Ni 2.702733500294914 4.394699193879772 4.638809172152103 -1.175326074125776 -0.4596430541216149 -0.04739185902040226
Ni 8.011453223163539 6.834027690503872 10.75290131780927 1.5600063015872552 0.6345145787539459 0.7125390750585406
Ni 8.11308076310602 3.8816535556007943 1.2767716192045644 1.0134962131687513 0.5795816741614922 1.0298440583991555
Ni 6.955545297268791 8.703684746364702 2.5340987607460232 -0.1304696014781882 0.4916918550270435 1.3884499573710862
Ni 6.398503495410866 5.076450607660579 2.562035263692086 -0.39145714117399677 -0.21892969129381007 1.5259492120025462
Ni 4.768615844334445 1.0748293206316781 7.636417525813893 -1.2636555519008041 1.2295321278545341 0.7956121895306362
Ni 1.9981306507445435 0.2816732366586602 -0.05439785668762126 0.8399598624080761 0.3877894625144224 -1.1693850260509924
Ni 2.4821899300457373 6.171197671459995 10.508966623057175 0.35623225653343166 -1.0706472084584464 0.48092510342884276
Ni 0.6434980918516581 6.500721464053084 8.613598242412422 0.3040692013766312 0.04146469490268988 -0.1189744563543951
Ni 1.1945664158489486 8.188065207972802 10.264196102677012 1.2747588609028178 0.3800692110520293 0.8134283917764507
Ni 6.255241506688391 3.238824308760559 9.411952866577668 -2.1860372683502223 -0.07255601699085569 -0.8768477365733608
Ni 5.839718083799024 8.732827937965855 11.381733714286332 0.8175434423860888 -1.1451138122084539 -0.6437173282991365
Ni 1.4476204663774743 2.1319826820649364 5.295496887629012 -0.6709499387628445 0.6912511122140418 0.29724420803499774
Ni 9.15289028148446 4.625667520858707 12.550741947795354 -0.9986447499782157 -0.6358099005266017 -1.3847072024992024
Ni 5.598961556032238 1.4869946802912821 4.068387702431199 0.797443329202104 -1.3688113572045522 -1.3324449027603762
Ni 7.919660011251077 6.659472980695259 1.38862464619064 0.1726431495224446 -0.6577673786342995 -2.036304704877364
Ni 3.4969523559274616 2.822203057507616 9.352610169529736 0.6496136391789135 0.8801068669406068 0.2877105575129496
Ni 2.180434737237223 9.310230304516324 6.136370681079018 0.3470580462333313 -0.7260455941854077 2.4517288983899195
Ni 0.5637357872412104 7.194189197344325 6.326916783202108 0.37797659018905877 -0.15408775511776043 -0.5543599234802259
P 6.944068839417625 7.0073554156708395 12.667442947933187 -0.642178780167423 0.5459287619937372 0.21572198298978978
P 7.7142830782264316 7.699669967907904 8.704360971734872 -0.1845833526034563 -1.1049845482877356 -0.6179487039754649
P 2.89959534441552 7.91585912649651 12.037139092430998 -0.9555903419909025 -0.09779319429108964 -1.3045569181008565
P 5.267085274088631 0.35517422941735033 1.6059319291293759 -0.4029561429525318 0.3449695391354188 0.3799152019726683
P 7.219965100267282 3.451221808043032 12.547906967491766 -0.9176208047256649 -0.635216489916977 0.13163456832056683
P 2.6137817264999437 2.4335349150079155 3.4393661842612526 -0.2378257568673646 -0.20624438251665772 -0.08240128521605164
P 9.006334807671257 0.5649590817034811 6.112106829154297 0.20594742010152917 0.30381183395018646 0.006868959205691396
P 8.655869247134321 7.513887887355828 3.0369410530576464 2.042211814390418 0.6610205954642745 2.6677311316242895
