# total energy = -381166.1387773727 ev
CRYSTAL
PRIMVEC
9.20634540819403 0.00000000000000 0.00000000000000

0.00000000000000 9.20634540819403 0.00000000000000

0.00000000000000 0.00000000000000 13.47441709654457

PRIMCOORD
 96 1
Ni 5.504492169619287 3.9627423750418074 11.425173742541363 -1.1553560587617524 1.292543181469432 0.7662239661765062
Ni 8.156775758940158 2.9727840825471152 13.245607890101985 0.601059384419294 -0.006929380129981615 0.3334983052710256
Ni 3.5220070143369027 1.4492536449941602 2.711510769485536 0.24385859332500584 -0.5629193830144629 1.0001401035768194
Ni 8.623159997194493 2.740682915318586 10.91267400086533 -0.7779908769044472 -0.1273002026112711 0.23136740283653057
Ni 0.1635875467249902 8.414406121231348 2.778977628547089 1.3853438076419369 -1.297951496969197 -2.047077884233468
Ni 3.593825712744334 7.7992473455761555 4.6397806788953995 0.8721207634113368 0.24452245216124982 0.9581380481134208
Ni 5.1171444043591565 3.8088214907098186 3.2850089921304333 -0.40384368776380763 0.5390392339627555 -5.8242778251690925
Ni 8.186558285455739 4.156701654371094 6.463623936059955 0.6932064361681997 0.17098941596910552 1.8176426654226436
Ni 6.338927673728293 8.68554219183733 5.179053392861991 -0.6747561998828121 0.6125342178281128 0.314388066804136
Ni 6.077007154603639 2.1609317430571866 12.416311367848001 0.8718909067887178 -1.3041149454674315 1.706469193169906
Ni 1.144993144588161 4.412094874794188 12.070921520546067 -1.6676123682037085 1.1673114313514155 -1.0544621140581518
Ni 5.562446112251612 8.720848525434624 11.583753958146778 -0.18069147374821784 -0.757083951548451 0.661117526053455
Ni 6.796998582324647 0.9816449628367117 10.310165664061778 -2.060703188326386 3.777940932866706 -3.0059088446488555
Ni 8.889794165028878 1.3389892492979922 1.3589762245886643 1.8401652720051922 -0.5679152935671573 1.0209511267848999
Ni 3.721434862677087 4.108313104335271 7.532953812511811 -0.9210527132253492 -1.0059929628131707 -0.937947689208475
Ni 6.9235490025667366 8.01598312277238 9.690059398530396 0.24705755987827774 -0.7054022069034432 0.003312352202684618
Ni 3.7235799410938197 6.192519167027436 8.694003743652003 1.0966379760952534 0.45462271808888804 1.5995164438667355
Ni 1.2940806977236492 3.191048113035947 9.606733689337238 0.4624792380188293 -0.6758679448897522 0.8634111514524808
Ni 2.1990183928856117 1.7854877820581532 7.806659374045303 1.2386790844611248 -0.425862358126744 0.37964060815504297
Ni 7.691477869411895 6.151486486755429 8.113660603398346 1.8983079417841953 0.20543062836611073 -0.9188999285484045
Ni 2.6732648498862543 8.294042364920777 2.556932552110822 0.8475199341435209 0.05564124351338804 -2.123374342103362
Ni 1.5116266332918589 5.340821765788069 8.815098483766388 0.6045128901855331 0.9590608170380063 -0.8026613830679338
Ni 4.29066318244782 3.004674862098883 0.5199780558301613 0.5585577636116574 -0.8355141679318965 1.4254669009150676
Ni 8.614183810686708 5.394697297525064 0.4523519269977516 1.5911932687130208 1.0664851066609569 1.7220572774161502
P 2.8592238152921903 8.985190313330097 6.464446062680616 -0.031193651993984984 0.528760991965199 0.4980267961061358
Ni 3.353871533114634 2.5205315840768345 4.723201213443459 -1.7313590144330504 0.14420983388241615 2.138223748411369
P 1.1966039154216517 1.6242386469977557 3.112226147883415 -0.05610301364115499 0.7774288337533901 -0.033622058929819516
Ni 3.8553963907538122 3.6066501515190494 9.927343738070599 -1.1550156447031978 0.8298430856890483 -1.0172294549589385
P 3.4271448340535837 5.570998806883135 3.282219469554167 0.18947821880191237 0.7995349216238101 -0.20613793884578047
P 1.7655376321480258 6.2724486554998515 10.767810318878325 -1.002952376214634 -0.11924159397285272 -0.5864053819515449
P 2.1636936465980443 1.5252520240934224 10.849263457470782 -0.0903148836361735 -0.42160743950513196 -1.1823559843893636
Ni 4.143288009507663 6.313278796178862 6.366796201090057 -0.6359471974354144 1.6376911551642441 2.019694864234825
Ni 6.163804576547654 4.507859276900854 0.46889112603492 -0.7165322553783338 -0.3485623986929997 -0.8999984636582112
Ni 6.679415142245206 3.8196205335545717 9.469294924702574 1.0657528564806225 -3.2532273714980042 -0.8025266572622823
Ni 5.803366958120613 5.132841222816363 7.864855443554712 -1.3925930330051823 -1.3145883341949296 -1.184526252567805
Ni 1.117622680498263 2.546603953502529 5.818481935565212 -1.046735177727539 -0.8740555185402044 -1.4100593081107458
Ni 5.332499229784952 6.647377061171259 3.2771670273434257 -1.1545757289523018 -0.3159245580533204 1.135983053551779
Ni 8.530175911318958 0.4166828634020905 4.39221561374161 -0.29893496547385934 -0.32981211466869004 1.7630751145894088
Ni 8.270888406903255 2.3487688028709055 8.312771753465846 0.7282526291390554 -0.332071343016512 0.4110566605724792
Ni 4.2122619472680105 7.849486370984352 13.425989651624416 0.17075955934648657 -0.5166613804881875 0.9822616806345018
Ni 8.637300943323684 5.118709483032309 10.105596992597544 2.1224960532634674 -1.6251194891468204 -0.4032986138936151
Ni 2.113160018145488 5.9068462774514074 1.3601076844059024 -0.7622919781119517 -0.1994993504833403 0.6717881183934237
Ni 2.290345336636633 4.545614498304376 5.2251495629589035 -0.31999230036479087 1.2510730872501035 0.22658720783906786
Ni 6.539119648714781 7.033021652581193 1.4315627321804543 1.077026886732545 0.3922320716668084 -2.1939567803076154
Ni 7.7486124473271 2.3394427752479436 3.5850704785198158 0.617069386694305 -0.202923802783857 -0.30631763109117566
Ni 1.6270373759191579 6.593934227655667 3.8797296815832807 -0.7855270373804922 -0.5144849416621591 -0.2457894917991315
Ni 0.7073640047322071 0.20438822709956453 6.781027414782381 -1.5394500747024584 -0.4916363191987598 0.45933400752162823
Ni 5.899932312254127 7.542850633533216 7.615902061554383 -0.5036878510466551 -1.7023965657624294 -1.4604727275662914
Ni 2.723577526055542 3.6487415614817174 2.758159320290619 -1.573098101774207 0.22023452614816263 -1.31518868678309
Ni 1.5836478712922866 9.157606745040693 4.43200543742023 1.093290142668943 0.7327836842401896 1.588593626306645
Ni 0.14662209390801617 7.293818997599231 9.251548290810394 0.9336817148432696 1.052429142788523 -0.9275344642949509
Ni 6.950974704727453 4.166506411941138 4.609355549489313 -1.0471388409238611 0.1565094771853756 1.3046350796369595
Ni 3.2287388900235166 7.792572745352416 11.331674101338198 1.7620281613821331 -0.08057194531679672 -1.2066716783165927
Ni 3.715257405090703 4.943871782550893 12.82803569375974 -0.30480916486644927 1.8941358126843766 -1.4344570202288198
Ni 4.696276336458154 4.840926431237997 4.991152809266832 -0.6580252602813764 -0.7450401330100394 1.9168597366444537
Ni 7.494673829435525 4.916980048408076 12.171278968241179 0.00984115446013789 -0.22275446435653895 -1.993794856539611
P 8.168237658634718 8.01559645627666 6.131034591035379 0.282862485392029 -0.09131992786192014 0.27737215170141905
Ni 6.422217478175419 6.252176283509958 5.6552663251837245 0.9961664636410521 0.49208060582502994 0.33514175441171956
P 4.717276009713807 6.315028001754738 10.929206755460903 -1.490520181770975 -0.004178556857721836 0.493662348489853
Ni 8.194263996334731 0.21685730095202255 11.574887327146111 1.8991857164034585 -1.7469339860531723 0.7159157048402572
P 1.9401359676559014 3.9057735113390537 0.44992973759241955 0.45093986992066204 -0.3057046800975251 1.0809843287183964
P 9.15742261813797 5.986066877348337 2.5543584580107432 -0.7122325995617153 -0.012788667124236038 0.4157538089378324
P 8.616025079713946 0.22256247303292057 9.136382436963718 0.30708510538481953 0.17863381988824073 0.1656788023894695
Ni 6.663718323787998 2.4243068647133588 1.6110008433264258 -0.8442628606588041 0.33920898250255777 -0.4883113685905848
Ni 7.634242021700191 1.7979992050982376 6.0209349889171495 -1.033180064750924 0.6014219099650352 0.11516073903525974
Ni 0.7269459008368868 1.2231181894138836 12.55922054276259 0.8627503779400302 0.41355988661030707 0.06556287350247418
Ni 2.5190493625099073 8.250680479329315 8.54622993596745 -1.5791491930642934 -0.3022977112985052 -0.43003371589561423
Ni 8.506856239088984 7.055503547403773 11.349353045903229 -0.054218652134248556 -0.10066897317698793 1.822775615773835
Ni 6.5336602860490185 5.756773645386347 10.26163073313829 -0.6213060504834719 2.7535542980376966 -0.43555027483846925
Ni 4.467397390027291 5.9929808425456175 1.1099823346697375 0.4774422870865649 -0.571513552441377 2.4578301261916513
Ni 7.2831212245509755 0.46985963354324733 0.1514554251045168 -2.4455824191725495 0.5811395055669153 -1.2189417539331975
Ni 4.609874787354994 8.941220808959645 8.680206194196392 -0.4858906749642342 0.4066757578959641 1.791698434753056
Ni 0.003665966633231532 4.13662261562906 4.242757044897132 1.2152972152020747 -0.03217581340159619 -0.41784154470479656
Ni 8.981010632638265 8.189375427067414 0.4440754227203153 -0.23408325910579686 -0.7121043015139672 -0.09324979789478134
Ni 5.166011684342061 1.9876775339391952 8.79371398528404 0.16538441107750226 1.2238026815699246 -1.5406919175293594
Ni 6.686771012009023 0.36871872587704546 7.81548549712737 2.7434341788845593 1.1282291206379729 0.2730290442413749
Ni 7.150494616518999 4.7564305955780295 2.4231855318757707 1.3010602178015076 1.0332973070550786 0.5379560282009057
Ni 3.4861943317571167 0.6697698943685682 12.820368649530318 -0.06244618225036342 0.22078602777625847 -0.13887248082990275
Ni 7.185027617124853 0.1469765381957595 2.3649489544477627 -0.8148162732629128 -0.09025420560156715 1.6505528416182607
Ni 5.14614439153816 0.5037058408019425 1.3845910386610907 -0.555497893739411 -0.3843758088471832 -0.9969956444105669
Ni 4.488728491707848 1.5557618518747618 10.958877885200335 -0.7530637746454644 -0.47702988213949454 -1.5005564829610545
Ni 1.3150251329084852 8.739298041087553 10.788224468583318 -1.7055201989930757 1.0061158615442802 -0.507186608228533
Ni 5.384017937167081 2.021667360182015 4.262901448689633 3.3863714344845612 -3.282643876986908 1.4498540715101804
Ni 7.459284638732004 7.423665289400078 3.5614230604029937 1.2119439824591256 -1.5615001125239623 0.6036502850749217
Ni 2.1587590456050454 1.689051316756545 0.9636124946184531 -0.9786287118676049 1.1896139515033577 0.3238805796756035
Ni 1.8577023533064407 7.014028962565229 6.233157815727614 -0.6195664420845459 -0.016120816821262558 0.7599666724128847
Ni 1.474414586251372 7.06123910042362 12.778368382384498 -0.07747582288997623 -1.1982669991926653 -0.15782768177616688
Ni 0.07739682292544994 3.4596248196940675 2.0000619094164 1.1022108421973404 0.8599882418138609 -0.7455556391938772
P 4.909780686511575 9.18430514593565 3.5888708577920356 0.09397150655215429 -0.4404734231716995 -1.2084061445091963
Ni 8.81692594327592 6.168785209266334 5.197823289325658 0.10111300269294199 0.5765454584383297 0.6212906238645042
P 1.8939845594881721 8.759487555971221 0.530250495733124 0.7079640540933485 -0.07658185032079713 0.0922097866660412
Ni 2.995781532697322 2.956028534399246 12.119726197382045 -0.5422150605875758 -0.8036777401475901 -0.27107372028721705
P 5.467675995419655 3.1428160708674393 6.382157908584308 0.25038251048645266 -0.33733361985671584 0.2915168186329173
P 0.9790211544728971 3.7304662872556915 7.51144871090818 -0.27702993787065194 -0.18442008755271466 -0.07478567765232283
P 7.0328007002979245 7.636957893515368 12.847788827883953 -0.12290130221262703 -0.3893683769657681 0.06621079149911824
Ni 4.8839292693691485 0.757397728643868 6.519825911212863 -1.7199618283397022 1.0371249083312848 -0.5762816632539817
