# total energy = -340868.9352224484 ev
CRYSTAL
PRIMVEC
9.23821763251024 0.00000000000000 0.00000000000000

0.00000000000000 9.23821763251024 0.00000000000000

0.00000000000000 0.00000000000000 13.52106531852746

PRIMCOORD
 96 1
Ni 3.6192472237069704 5.795041442684709 6.517207684201347 0.9608081387464162 -0.6857453519044642 1.5271992823595635
Ni 0.9770985481490756 8.034163642484083 10.975846738665204 1.563861156556971 -1.2279922941712398 -0.1299965184965116
Ni 4.446548075426751 0.5459611004223329 6.7329228338117675 -0.12806484869143753 0.06230348602491205 2.7942633457212844
Ni 7.9379845603055195 2.3210282359721846 9.528740942744594 1.0815258030441632 -1.6268809519226175 0.016834040838203265
Ni 1.328991490158837 0.6976683364046304 9.74442837770258 0.437239232505118 0.7552564114214089 -1.2478201275304446
Ni 4.940007462091617 7.641862737219203 5.439699874089868 0.7887658560327642 0.2790863061790484 0.5081875386892216
Ni 4.33620680585219 2.16650981041089 11.902796547048828 -1.2578489725213562 -0.7712977811549878 0.21688155051552968
Ni 4.339606469884629 4.680044022219871 12.561042638003396 -1.9293180170124644 2.562230541386613 0.967949634887204
Ni 8.956442608110097 4.585038193661198 4.684075580327904 0.6151516008463018 -1.210327015680993 -0.7333056181819306
Ni 9.013987464789595 3.6798406921546887 0.42212926186253014 -1.417985762046674 -1.8236230513757947 -0.6288491529380524
Ni 3.0914955737583836 2.2262164099805806 8.737717647244871 1.0562338612465938 0.221702883163573 2.804919796993866
Ni 8.645105440835124 1.3631359419628872 1.6697569992146 1.3441637338592012 1.2887106950972191 -0.6301221061132052
Ni 8.716516861951279 7.388874151544441 1.5271096831143995 0.46922684115530794 1.1232247254448462 0.7149723670903815
Ni 2.109463817475281 6.216960073188708 9.960332910771328 0.529406595968998 0.05775314765006828 -0.9342668979227781
Ni 3.6109051133230268 7.906177377523771 0.10619146228279135 -0.8470126554897994 -0.4002598270672913 -0.9413682848542497
Ni 1.8450290803434808 2.3214809086286774 2.1686438386486433 0.01695231158362242 -0.17435319023501583 -0.7509462140818293
Ni 6.5891586172183025 9.073675587924328 9.187996681589036 2.5049206519215503 0.43076622318626456 0.48199185413046025
Ni 9.222743465172746 6.177420502376657 6.24750254399752 0.03450883241014702 1.2629477272005025 1.5966262668031344
Ni 0.17690262651400387 5.843615990191661 11.318064495508736 -0.38430870305467363 0.09464307869788217 0.8699574372114307
Ni 3.4226210028743393 8.46502486750819 10.55035199417491 -0.9529462194998362 0.8605757388862146 -0.8048409072177557
Ni 8.721089779603608 8.585583605615023 5.961532598099372 0.18455789868215958 -1.5144016163742628 -1.5432792186405617
Ni 6.939102295339898 3.4510100451886916 4.324563880362839 0.18983020282469243 -1.6144278137609294 1.6315529034769902
Ni 3.6071913498962873 1.5950244389145825 4.782441348583851 -1.5117916895552415 0.2936438922782491 -0.5246575113197868
Ni 6.1603390382571535 4.590082260404979 0.38720972361195394 1.849999998707427 -0.5061352841458832 1.335193926260423
P 9.139590269640209 0.2490216950890847 0.01063503596234379 0.2687309310866533 -1.2799928556082474 -0.9628125707709548
P 7.192220216059373 5.3411123886144125 5.880879264216774 0.028727964062311817 0.15627627812864697 0.2939166863236615
P 2.088132773315229 2.0443251460276732 11.185666057880237 2.6326291457148336 0.7002088356279619 -0.8720780830988594
P 4.750660956632793 0.6890222886656124 9.165388915773324 -2.4134451723183727 1.0325827974865571 0.6323054869177691
P 3.7704953202805394 4.634952282702671 4.535019712762208 -2.257534247948944 0.03192075996799664 -0.21770378930650894
P 1.7651000227112723 5.084640994949899 7.994045759257819 0.47182545512041973 0.386162982654593 -0.6090349464256027
P 2.146943265789413 7.095440649744646 1.6262459187081346 0.9891033861466836 -0.534509207302886 1.215963902251796
P 8.94309338385229 8.118850382118207 9.220784963067103 -0.8553201469142303 1.2233622515983964 0.9131781955732788
Ni 6.671129320913469 1.9122371125064854 7.5760958669829925 -0.6632849660184189 -0.1646616739788648 -0.6985368472421777
Ni 7.125603429815052 3.063041863921675 2.106393033985112 0.45030223633666316 0.2569642774690284 0.00689569867856877
Ni 4.2264752586312735 5.914537785781405 1.2813638599435282 1.303824410810206 1.1797537708798262 -0.5620436652777288
Ni 2.116429433454787 0.9537812872309417 7.3714277778345 -1.6961462139773433 -1.5861433649939392 -2.416962955663644
Ni 2.265035399829233 3.531308631520078 13.139770772003596 -0.4101835139389064 -0.10344062238485412 0.9053005925974151
Ni 6.8292598895092285 8.965274344020452 1.373078111614272 0.09709693955501342 -0.25941608144363065 -0.8123683259430525
Ni 1.7626057039918204 3.4383629254593235 4.530841266996252 0.4195143044215291 -0.5527470704671513 -0.9399405512687877
Ni 2.8669422214853726 4.6509343989421215 2.3065445586079014 -1.5751704109222033 -1.6864009616651217 1.5500952131211303
Ni 6.523253173719899 1.5642888893604496 11.212249028677359 -0.18092158748115292 -1.041136086373207 -0.6604734647115528
Ni 1.552759593946095 -0.03901299241572084 1.647176948051326 -0.659352206622916 -0.547587894863715 -0.5506930161516
Ni 7.537840408400587 4.438418444044834 9.499575890161971 -0.7277306951973144 1.6510722044568404 -0.6822242261250832
Ni 5.511437404283048 8.012075064490716 11.251541015260958 0.8660663296871407 2.2467073325367695 1.3345426658296693
Ni 3.3093512183587928 1.0225690545829325 0.3195259232487575 -1.0143104815399304 0.9629807209177028 -0.760825163758438
Ni 2.9753896564766458 4.050561121387571 10.885309435901341 -1.3459313672825852 -0.9789958653990366 -0.8388134075084586
Ni 5.759234111734358 5.3304699620780855 4.3941572202790375 -0.9992219626379242 1.7767063322195982 -1.1302158120506989
Ni 4.7450810732752045 7.733136325916177 8.368755250798328 -0.17009647184119095 -0.7088081472611987 -0.23795174092226765
Ni 0.7708313235548893 3.7815996576908395 9.557121670663216 0.5430524688872067 -0.36940170403585415 -0.12862380651870106
Ni 9.108365094559666 9.294478223900681 3.612233568996572 0.8868107613233437 -1.4112363591379822 0.3931746380857358
Ni 7.015077395890902 2.2248861066635395 13.324969317814144 0.8946351424637689 0.13672689524180967 -0.09974080493576372
Ni 2.8172313732284473 3.2519079820715673 6.615086598396129 0.5275188920279817 0.8570810954693949 0.22812884129457486
Ni 8.63053677187003 0.25480759069646475 11.000752049168055 -1.9740102177135166 2.581443366869638 -0.9497187137014741
Ni 7.119229059754232 6.8980846097311375 10.090675845010647 1.646746580498293 0.5806900767343226 -2.1916114200038903
Ni 8.750273308621193 0.5707527808501871 7.785861604536647 -0.13727454021516358 0.2752939290161517 1.771945420495845
Ni -0.00911350154347824 6.141991938342964 8.769803824194499 0.10250911170952025 -1.9529341137695078 -0.26781587547155167
P 5.9099094388242 3.7058000832719453 11.831350944528 3.5497858663198865 -1.7791486231125035 -1.6600391838421413
P 5.194797500174871 0.20787190297036687 13.06032117785857 0.738712905240431 -0.17123701320353735 -0.3780357255617683
P 7.954511731376257 6.044722746501827 0.05015890180467827 0.6551597658081233 -0.8923841416460631 0.11027924257324233
P 4.228101184907657 3.569536375450046 0.8472757255538489 -0.9138325413278262 -0.22043661485663973 1.592890968130418
P 9.051411483798852 6.895812008231193 4.02796628907633 1.5103819536919083 0.10098830418961963 0.17883590859671783
P 0.4672108393405022 2.4435731908370997 7.6143873546135685 0.9786050577185211 0.2838356479385757 1.022143604431104
P 3.215934363206586 8.064437281164244 6.520114027420382 -1.7065085310482737 -0.8640850375910538 0.769838680110958
P 2.464396133035782 5.951675420048797 12.140726838232084 -0.15871934035250085 -0.22339801147780883 -0.7203164050111143
Ni 5.3348581153808246 1.7326276882710023 1.3214327806171502 0.2330136801907019 -0.5344724405276795 0.20199666298389726
Ni 6.615016387943285 5.807984185373419 11.854513003392478 0.09849227724064327 -1.564578751449286 0.33119433972819734
Ni 7.903904776023826 8.025054760049343 12.40571217312566 -0.12889994299822316 -1.505164156936395 1.4412326483897566
Ni 5.709162972995735 4.200340341381907 7.325618228819146 0.4352774807930568 -0.045802403046095314 -0.7942975844842707
Ni 5.978503203609122 0.7305951911448891 5.155879661399188 2.3971873156986137 0.3462234661471779 -0.8661444912232438
Ni 8.420912379043811 3.988083056574045 7.003478813845453 -0.3943054092560693 -0.5137236380161023 0.8084597349172657
Ni 3.6642465810493756 6.772925239319537 3.6561363499241657 0.20364319744838477 -0.7455983195063546 -1.4187439803689372
Ni 4.779188572209337 3.061665369517237 3.206750651210264 -0.6936496943532054 0.9213910704013744 0.10312052004127403
Ni 1.9404598669062079 6.089426480884889 5.14334524792307 -1.38916163872613 0.07588790957756608 -1.6177476221627818
Ni 1.2062525327268532 7.396661968879619 13.142840631672016 -0.4284653429672298 0.14184621874624603 0.9801047821924991
Ni 5.1464169552349865 3.0890659225612875 9.735896883860306 2.2035572795118568 -1.1846566074980824 0.6736483115306139
Ni 8.35954290032782 3.866951548983486 11.584781072357961 -1.1847473674396758 -1.260697497713745 0.5986106657684852
Ni 7.225690277987423 6.768657182844032 7.5470934070280045 -1.1799026377528647 0.3813833018777625 -0.13485461791976128
Ni 8.331855962541905 1.6172608283876204 5.4094262354097085 0.8246353162358636 0.876340200809323 0.028139952769325727
Ni 7.911794213751277 5.351145092797096 2.7883813438618703 -0.9864001282829077 0.748816055112704 -1.2454269447079196
Ni 3.7579867738133634 4.431074061148671 8.764341266198901 -1.2189314695205524 2.9600393358102504 -1.540340961947844
Ni 4.365270238042543 6.162953453803838 10.682952748766207 0.2083642570731379 -0.2578880748348784 -0.8044164180858275
Ni 5.8453620132952775 7.136486050005845 13.573662132360962 0.4937505373282851 0.7565951848374906 0.8757151656308144
Ni 2.6092421448960916 8.910085232798213 3.8789233550151065 -0.48365535787581226 -0.9519113504774188 -0.033749842756935426
Ni 5.2191402032332235 8.879636067985942 3.265405017809045 -0.722265301207369 0.12584958620767356 -0.7199806189382504
Ni 0.47194912108571263 1.9910852986935983 12.324342877388405 -2.1541743582033543 -0.07618872864743653 1.264086468790636
Ni 7.035549285825366 7.525415005890725 4.342844465111176 0.23374618748135229 0.3168110744233318 -0.3964072860904206
Ni 1.260896589117805 7.96354670807116 7.714038158920908 0.8475446167338694 -0.48465628833650076 -0.4038205478353562
Ni 0.7770661965317707 5.367173400123944 1.2213265321880733 1.1389305662158773 1.934673367787107 0.340996927640916
P 6.754652045145185 8.966068830723684 6.979952769212283 -0.20330149783824986 -0.6197402486582488 -0.8376540970930348
P 1.4352864204773983 0.9752601428706648 5.251027758507044 -1.1461440532451808 0.43959950520717844 -0.6332213138638191
P 5.734641976804059 5.55060744639592 9.014737608048927 -0.6550846895958138 0.6602747184371855 0.048953289970251175
P 7.21848446835345 0.9827061461591021 3.1719475144999287 -1.66778694610836 0.494384057147226 1.4131695716049533
P 0.30649634131574005 3.6444583192083924 2.5875535817195847 -1.133343816156719 1.2004701774915714 1.0699177864915896
P 3.5774258131774967 1.0877077260305403 2.480101102750848 0.2704196316429859 -0.7840350262159981 0.9432205075716401
P 5.098230412862171 2.579356511350068 5.863261059661713 1.0110976310295878 1.0608597900543792 0.8323439977340309
P 5.703038034806858 6.815818283076628 2.634782120939781 0.2699385782415093 0.257609367252195 -0.6760371234777648
