# total energy = -340871.4568019335 ev
CRYSTAL
PRIMVEC
9.23409422226985 0.00000000000000 0.00000000000000

0.00000000000000 9.23409422226985 0.00000000000000

0.00000000000000 0.00000000000000 13.51503029083944

PRIMCOORD
 96 1
Ni 6.461963668059424 2.3721926116916197 2.72576515254454 0.13119825211409664 0.8432405900418768 -0.3636223783499157
Ni 5.33402830409547 7.562159813254923 8.805812227817032 -1.1218548416805132 0.0873563152284818 0.09053574139772795
Ni 0.7294066358359955 6.54645562935481 12.016186333975387 0.3654488900356932 -1.6555819194017358 1.3516893528122849
Ni 0.924591377113056 7.206176250424492 7.2706939427058845 -2.559195868325347 -0.6736627097083172 -2.347215354655861
Ni 3.893214128702929 6.251324746845318 3.4665786648601196 -0.25810019084568453 -0.8332179156985522 0.45574037663309896
Ni 0.9322187388649674 4.741125588155123 6.692683050370025 -2.5308134605279125 -1.344220812349382 0.8418131135667308
Ni 0.85275289500489 1.8117108002439615 0.7005694832754095 0.3553917629100073 -1.317154552260209 -1.2372901745333982
Ni 6.991963734781828 5.553476551110209 9.580872225034929 1.63287650738442 -0.032711374190092055 -0.5684675665262016
Ni 1.9487355230485779 2.6374973701591338 7.346946321808498 0.5869365718646665 0.16179463684371492 -0.08568561239427824
Ni 5.287414596923983 3.3021028270239268 12.146687169276705 0.8503640884605356 -1.666579813174136 -0.11695434060057278
Ni 5.14269787370854 9.174552691688948 0.707523679565197 0.6196284056707329 -0.07628154547155895 0.6189282942799147
Ni 4.489893589142709 5.2037352359120925 12.892987580324712 -1.4631903836077704 2.4336725551088407 -0.448992002165672
Ni 0.18084881013923668 1.3771173940793633 8.581084849187805 -0.7115337737224777 -0.6486363628673087 -0.8355897583648383
Ni 1.5867590331273589 0.9041618672584207 11.22308384023563 -0.1736584781608364 -0.3539709713030807 0.505915197715277
Ni 3.6608658521876816 2.9955124336983063 0.4914957410164484 -0.5013229503589043 -0.8298209742018612 0.19410311916843345
Ni 5.902091306824388 7.447823259729297 12.482144264264129 -1.297675874710307 0.06352990223284542 -1.1014086580110192
Ni 7.583878402650197 7.961728300381992 8.776133849281146 0.3569465089916369 -1.3516135052690272 -0.9311579199801512
Ni 6.20226400472921 6.695549313188177 6.850890785110338 0.3294087085826843 -0.900529653571333 -0.910611206177051
Ni 6.985906169032127 0.889767761327574 8.38898152512214 -1.140595612623126 0.6463722494234804 1.803362758464862
Ni 7.900219999377776 2.884527856342104 10.285965491024943 -0.7974677546821363 0.9826226635183464 -1.180238938046361
Ni 2.7535884015695817 6.800005385994014 8.311743868175789 2.198773742080284 -0.03491172427552052 1.5918249887597489
Ni 8.017058992412807 8.092150645883198 13.279963533285823 -0.4016600498489276 -2.6485686997632256 1.371086012171342
Ni 2.267487218344255 7.85950687835577 4.8652078046262295 0.9360165336240331 -0.35125022993780797 -0.023575473327094882
Ni 6.644364729422022 0.641039125233978 12.374307589597064 -0.7564445181922391 0.05254820641036112 -0.3786257937372834
P 5.8885910612053864 2.0595354185221675 0.5548231585644003 -0.7598527725428398 1.1046338498165365 -0.5292523297793208
P 2.2093031912270713 4.599068284049306 8.524389358044482 0.6330140829490195 -0.6005287087268044 1.5752555144368419
P 8.898453277182712 0.5622981577631562 12.597832689170483 1.3034035212227038 1.4823137347007826 -0.48514479793714516
P 6.577556058386816 3.555818797357483 8.66336432152949 -2.8812805324427924 -0.6729237746597636 0.5590645280447468
P 3.2572343636431307 4.560211215947558 2.0699219276003147 0.023662633724262472 -0.12693921972742656 0.43963781464428153
P 6.095203917378531 8.801430650152044 10.423764030917706 1.0452562791891675 -0.038723127601810736 0.3488128241409089
P 2.424448350376931 5.952250906142042 0.2670121424722697 -0.2390097498731368 0.6214867990357104 -0.557647335982246
P 6.656996970192741 6.298981906653568 0.7330568732458388 0.8497403388336074 -0.6269640201001976 -0.07748662152325365
Ni 4.176719286701941 1.5381692298119138 2.618117776807152 -0.16628712539742976 0.04290759799680353 -0.07596709955493368
Ni 3.7270743071043944 8.505773424277105 10.287059731179422 0.5305502226551378 1.252221856142566 -0.004279344101644243
Ni 2.206542197082009 2.3112014199587207 4.160615949947512 -0.6088146028846806 -0.5258839275277201 -0.0552684335550016
Ni 2.216145654977878 0.1858897021251549 3.2034679271580466 -0.6495349634221782 0.43944215369370765 -1.188136852737199
Ni 7.843679641015847 0.7416214955520105 3.820698787494987 0.4930594247985315 -1.0802492503245846 0.16505762386570286
Ni 4.794784909148292 5.263230504395827 8.804758617676727 -1.3485140404080969 -1.4218871539836093 -0.22761744887579508
Ni 1.186470286658101 3.626625831151256 2.0152394689774713 1.2745107494477534 0.9848302126926266 0.5662435622916894
Ni 4.590886876649556 3.8218899856378403 3.6150813666691257 0.30925537356326094 -0.4015700612382826 0.9847690204373879
Ni 5.707159579726506 4.356728717684702 6.745514073119676 0.47206713881758056 -1.3572303372351722 -0.934892447321919
Ni 8.40794743105707 3.4367636217310986 7.787914946560892 1.8154824245465317 1.312090250363424 0.38104571603268567
Ni 1.5752810541229694 3.967622459207653 13.041504133274916 0.025954515082232718 0.08934609196500097 -0.6147656782617928
Ni 8.008305071176956 5.254328837653888 5.322084003337483 -0.31990976795331355 1.0053987808725975 0.12027054945799932
Ni 0.6709705179490453 5.896763234511006 9.572857954738943 -0.38925936219172963 -1.007401156014607 -0.06602130119613146
Ni 6.307865105207247 6.822148743719297 4.270033501529745 -1.104443073961969 0.9333600698377926 1.9353778500532992
Ni 1.8607253718894161 9.398368665227482 6.858864425392149 0.28527340882636676 -0.498163064573684 -0.19765175575164026
Ni 4.003801640011514 0.8013042161465976 12.322194055961367 -0.2339611317056358 0.7974127330744848 0.3233794716694689
Ni 1.092541081161197 8.33402850754127 0.039329853721236104 0.628130529604473 1.339080920019655 0.4775932108421323
Ni 7.948745164034307 2.658237145576559 12.527973073434513 0.31968042555132686 -0.14387533336113287 0.48199699633678283
Ni 5.601235285953896 4.2939276435021965 1.2625850777581682 -0.0038594829554062563 -0.44836233900147293 -0.06849161711349494
Ni 2.3706966884424556 0.8554252418462983 8.951923299246204 0.22982062717470098 1.009198357124346 1.9996019501396918
Ni 0.6378468988930146 8.271319774300071 9.300746745487734 1.236859771864199 1.008127235547354 1.1545759860626181
Ni 3.043622064118958 4.446290196657812 10.762897218778539 0.11967996706185194 2.6951378057720166 0.9581161937365499
Ni 9.100578363608365 3.6898239713813794 3.983312108545029 -0.0332433354341621 -0.6748603295608442 0.6666831930666905
Ni 3.175706546563681 4.837326380808165 6.575562417464011 2.051046381962913 -0.1519388270955577 0.10342313888335736
P 1.3171327186067041 6.109332081398415 5.2847006966589865 -1.9011181575394807 1.6984285822536167 -0.9976096238454819
P 8.173890847127653 5.746099754675429 7.379976676513809 0.026542269264902676 0.624327353808299 1.7191593870430653
P 5.224234924882121 5.832124575596502 10.86174634962825 -0.2862018341779071 -0.4183210554443763 0.8773717273976309
P 9.021746902015062 4.430269043341146 11.778280979612319 0.9409216842351344 -0.34817287656406487 -1.069796687532693
P 8.711647552919798 8.946378225720752 7.167506634433597 0.18993844626778256 0.5813976443243084 -0.649504624404875
P 4.23196687188558 6.460366169774822 5.577030878418654 1.329671710890613 0.41633127870785713 0.3524097974635479
P 9.15061791970232 8.181896806738921 2.4267993507425927 0.5127946984439298 0.801538068096768 0.1406642826230029
P 6.826267149701564 3.6871645522717538 4.521034648188891 0.15373191444023848 1.5188167147228229 -0.7711527709366913
Ni 8.72831509282561 7.731411524575486 4.964637759996758 -0.5342251004035637 0.5170807274137933 1.3929321615121557
Ni 5.389202016526064 1.56638862147516 10.522085894992557 0.06650235459760806 0.5357759898304514 -1.7597722754684209
Ni 5.50037127576488 8.93215772075956 6.668208083876755 1.6896693480037481 -0.16234202470675266 -0.017058241033867397
Ni 5.802049131012997 2.020789159549988 5.060810850367408 -3.3069680555545693 -1.008673337858811 -0.42672367768577474
Ni 8.067153953071546 3.5790240759077894 1.0839265947467198 -0.2836870381758534 0.06393330831885119 0.7710350144119044
Ni 3.5498443384549567 2.8343036183655355 9.356603780883995 0.39227706597213086 -0.45303326211458106 -0.3884993440972535
Ni 6.952755771103116 7.90889081376645 2.322206613343621 0.2976959508604357 0.34623092234634567 -0.6722470603077132
Ni 3.355872957146663 7.852036496204079 12.584263187845503 -0.37320873648677017 -1.5375047780506295 1.134253472455182
Ni 8.193891895014627 7.33272951048496 10.917995834025065 -1.2374434122818108 0.6125758696993258 0.018787565020148292
Ni 2.1765590934398102 7.391809244732815 1.9152960979732792 -0.044966280298045135 -0.4968541159542733 0.32369520313767475
Ni 8.314987805443883 0.5824792704856772 10.466012781793637 -0.16742818098040843 -0.491346812982799 0.9319644750418465
Ni 7.654362243149397 0.9092747851785579 1.1352764687978143 0.23434139786318997 -0.7954682077536043 -0.5788080292202612
Ni 7.167605439240795 5.38039269072543 12.07401669528737 -0.6135024952786531 -0.3502693540817774 0.9938897517917334
Ni 4.463881145976687 8.399802960033842 3.1302840375350462 -0.3202483822396549 0.7735791209899968 -0.4801445165090764
Ni 4.502470425348646 1.7152883893317836 7.475811799039278 0.4134454725196299 0.7520098794596533 -0.31711369326541516
Ni 2.294875541535743 4.6162621673205635 4.321971587376961 0.3582570002729443 -0.6007850477119847 -1.4714040297668145
Ni 1.025150662195762 3.1164513645273426 9.936817928079424 0.5319645865041613 0.7465977073051465 0.4789091014400784
Ni 0.1373968567980814 5.504526618123669 0.8554353993498419 0.08123580415304074 1.4951060013694446 -0.34487260854623836
Ni 7.394062363700692 1.8436607659359874 6.490755573558769 1.6264906584627343 -0.5197369340897179 -1.0915700746540427
Ni 4.7012158333224825 6.865853711239632 1.3603824452863984 -0.700597072205316 -0.6391711036893508 -0.8983447301048723
Ni 0.09377407271550921 6.294346391399985 3.342753156205845 0.6795939875910877 -1.8366099505537659 -0.8799338316978523
Ni 0.617784905984779 0.4851629992616532 5.016874107084394 0.11640849539943178 1.056450091022458 -0.16567031774903726
Ni 3.8671278127838615 0.2827618134214949 5.272172801151942 -0.7507700935152812 1.797588060764614 -0.9961847184734973
Ni 7.066131978839155 5.362755570935902 2.766851330969425 0.8662105685744889 -0.9904676134840619 -0.17630928552012215
P 3.5943803744470495 2.747854029114452 5.689368250564996 1.027797717393088 0.15926390000206123 0.17437812993568033
P 8.798918976548508 2.0676798895453947 2.49833403115386 1.3072478346694585 1.2624715588950322 -0.14455667569887362
P 2.247772427375332 7.125747290546589 10.702863602606989 -0.7391692760515594 -0.10730781864974423 -0.7825113904826201
P 2.957227879432659 2.5748440414827187 11.78943114827507 -0.23242926844214168 0.36487784802357154 -0.29986596192856096
P 5.997027028581531 9.174044816511763 4.330729202250462 -0.6655151409005184 -1.138518161268807 0.7978889013799549
P 3.7249412313602157 8.934798671680925 7.973854512794353 0.9196272936327322 -1.1594158306534226 -0.6771897490249692
P 0.26220210283961753 2.4554933748441536 5.982928413662865 -0.19102190913994843 0.3395524818849055 -0.5724859436569754
P 3.036234788814444 0.30641586894655093 1.0364578104587348 -0.9718204306965198 -0.3018480253555963 0.068145803738302
