# total energy = -381175.29763475107 ev
CRYSTAL
PRIMVEC
9.16222810989516 0.00000000000000 0.00000000000000
0.00000000000000 9.16222810989516 0.00000000000000
0.00000000000000 0.00000000000000 13.40984697104916
PRIMCOORD
 96 1
Ni 8.059508191130115 2.2958161593418227 9.747457239319475 -0.10758806889432437 0.0436241644478539 -0.3598755097129738
Ni 8.94115275819943 0.43707126732533524 0.9842651873694731 -2.0028711078092667 0.4738373433441259 0.17992991299184496
Ni 7.024405464583695 1.4438022381468272 2.6861802199454194 0.19666625190991938 0.6110509484143669 -0.8494716585532532
Ni 9.259897513710145 7.576988607232432 11.571424145680506 -0.36794825941877923 -1.6617219708612025 1.0960471365887898
Ni 4.924807583548739 8.002711538756923 7.403429435391794 -0.5873307219792917 0.6965594118008327 0.8776838593214111
Ni 1.3840186993929844 5.724028746077122 12.26503505285963 0.8548568341245665 -0.4488354219831496 0.3120100534902627
Ni 6.5323021900290765 8.966000720973438 4.144729064318194 -0.6487911432776181 -0.17244337480681268 0.5879120484040585
Ni 6.179593054723646 1.592010440887388 0.40467179610060905 0.28569044175912733 -1.7811589686743132 -0.07716317674556389
Ni 2.770795229462583 0.23860091333637118 7.333832234054159 0.5350887339554398 -0.812475283834562 -0.43852478408576084
Ni 2.799720383768465 3.9879880784908206 5.598476901134339 0.21313982408491033 0.8235657373207688 0.9222557323945149
Ni 1.493553137063818 0.23737683965399364 12.735023457300818 0.32855201700934383 -1.3199542264925332 -0.3547947527559567
Ni 8.181640692523022 7.847512555929132 2.8400983232762327 -0.5425948125244978 -0.1756701092742265 -2.722667378650853
Ni 3.6003891783463664 1.7750442728698426 5.44804502561898 -0.8732926722322507 -0.6568363821795978 -0.4287512496387648
Ni 3.8394866844490916 8.098392687447557 2.652574999494639 -0.4061509957407457 0.3949376435234295 0.07326718412526737
Ni 0.7496086132566313 7.906618089799022 8.030634345301937 1.3816306204564075 0.5312523909284851 -0.13692795550902226
Ni 4.387195521715906 9.225081046696415 9.501024453350647 -2.2820486881505406 -0.22883460911234785 0.4950695132500248
Ni 6.494013238542132 7.1571386639594685 5.901418645512087 0.8505175833192642 0.5984862243754789 -1.1205741751958767
Ni 6.507197684866543 0.18529232122426645 9.100015716069008 1.6415946039837084 0.8410289271025387 -0.7655359389705462
Ni 7.311861210922862 7.948003874404557 13.455842517228358 -0.453672952581109 -0.7068793056696019 0.5212777962142764
Ni 4.653065058506559 4.56147942580412 10.64139751658153 1.1477247674687394 -0.41726458915540393 0.20010561660877152
Ni 1.3084211548323779 8.0711991942642 3.148216726565233 0.1869495388427877 0.17612673719567085 0.3024095542860211
Ni 3.7976519506636444 0.01759880785262546 0.4199681360162474 0.9742928034964122 0.38563642072716164 -1.3174908525537052
Ni 2.782797748354159 3.538296758095824 11.583707028753825 -2.385849264977975 -0.66023589477945 1.1761441991516968
Ni 4.923350789271058 2.7661224931002133 12.313685568174424 -0.9318539176059113 -0.057952151034751806 -0.6200382395146419
P 5.377742332712909 1.8872540811638367 10.303844539100869 0.2816005879604699 0.20440295843254475 0.25406972953005275
Ni 4.782930480467781 1.7358665852512323 7.688643184499839 -1.4665829542290871 -1.1789963238885113 0.1813447910615006
P 0.4027275712847369 4.242743832521564 10.576668207066106 -0.6550242686715235 0.11121101035889235 1.9080398243599785
Ni 7.9390432152626005 8.80523110342345 7.1302704298758455 -0.28016591239647237 0.597536715978016 0.2538699548144208
P 5.658161487824038 6.097957601804605 12.02301387975057 0.48932412612581533 0.14889824049702097 -0.28998341270752637
P 8.51101363270109 9.111890879989138 9.970180927474766 1.3271723415075272 0.22873510742000608 -1.4093157450765017
P 0.6410737746782181 7.604429480576151 0.7150321966207306 -0.5372877984892875 -0.4638632628505495 -0.3587905041789111
Ni 4.244136491202113 8.612952583226035 5.096224626445217 -0.7946835070687799 0.40328807237065384 0.3864378335825345
Ni 8.378463677888547 0.4354486367179321 12.014110026423214 -1.4679749494806074 2.0859300812139754 0.5424847693091948
Ni 5.770691974103685 3.5337797796122 3.0125222950476602 0.7045434584475738 1.5565162861561257 -1.1777884196233392
Ni 5.883708058475892 5.795283394489174 7.500489499420734 1.242742198786905 -1.8861597364574354 2.3422310140673916
Ni 8.21976472390306 5.172499259666958 12.29382552241154 -0.6897863547430572 0.001814941721551713 -1.104701469829678
Ni 2.583986559477587 6.648781596646333 1.1946922491092056 -1.1097495737765468 1.1827077113018276 -0.43633317575108077
Ni 3.7072757320785246 4.541698175203424 8.234906222162769 0.505719279654387 -0.5633533852280879 -0.553506317230679
Ni 5.295099034696103 6.9024378832976945 3.8845914174653817 0.42494601696006173 -1.688927841852033 -0.16984913171707522
Ni 5.893383371414444 3.4555251888847565 8.828949363465147 0.5324207002049733 0.5467805684710713 0.6547087943136337
Ni 0.5983851212281179 4.634465735338697 5.257209556357001 -0.6554883527921357 2.4742890430786226 1.8198134478217176
Ni 7.137110033198411 2.96574912028316 11.898744746750397 0.040528813351981816 0.09627547209498258 -0.43915933234596627
Ni 9.054242140396928 5.143051858355871 0.9969521247047138 -0.33257990722181435 0.020876329228376952 1.0753073329382772
Ni 2.6774321244968116 5.420190935785178 10.081482758957955 -1.473090673440618 1.1218036767276034 -0.09703240486566514
Ni 5.14481100616288 3.674942228896561 6.437209256386412 -0.6157421832424492 1.3049950340795395 -0.19601344881726887
Ni 3.0833279942797978 3.1622239409785475 3.1455477695017855 -0.3266432300224052 0.30776130551623765 0.9466894399568471
Ni 1.1335050570010199 3.381091247300662 8.803578237463114 0.7437561240912933 1.7455874993276066 0.12604730404077646
Ni 0.013421748033793753 0.9922601476632054 3.349887446851012 0.7240175080117853 -1.6453119049342957 0.01334119719359638
Ni 0.6825365220003086 0.34502202587792435 6.048833399293862 1.941963987911249 2.3998113835850217 0.2984294865923506
Ni 1.603270819297882 7.3582312476482565 5.59845033067267 0.7354134085535529 -0.1596163982454735 1.2514808642114834
Ni 0.09857274789840498 2.768596294703821 12.8542103023398 0.12180189850086118 0.457197935015232 0.9148972351469147
Ni 2.36024494777355 6.2220966311648835 3.8129831070462963 1.663827961460612 -1.2646027463054221 0.18148363063221004
Ni 3.677736708485821 7.139867863875025 12.010717253335008 -0.45282783097199436 0.9665620105110581 -0.8793712743261629
Ni 1.0542792700884562 1.6416605552946024 10.866575765661294 0.21203836349061544 0.93628238569091 -0.6040133248412952
Ni 2.144392014516572 4.469774684135582 0.894468021604161 -0.12620028467887298 -1.8787058512825514 0.6848891745517559
Ni 5.726832387894544 2.266597813734772 4.70416097251766 0.5520017076606946 -1.5148767562384684 1.7576266898803279
P 1.2843336569957722 4.49606111673095 3.259183220497711 0.050675414867680464 -0.8083203811259241 -1.7964187230468611
Ni 4.0264602745409945 6.013032908975584 6.321723951524678 -1.3106141800385298 1.0719085916693734 -0.7551851918638414
P 5.634394667973085 8.669263637506665 1.4087576316518735 1.0323123174339899 0.7666204302839764 0.618085229553329
Ni 8.268562751091252 4.59396868686483 8.404527468339591 -1.2914584330456855 -0.9409815909387924 -1.1130860943489476
P 2.2870937181320663 2.324274040011468 7.118590421415554 -0.06791106201967659 0.9393677094844531 0.4040313782945816
P 2.889592679804702 7.76690327256418 8.779105009820908 0.7594802196947693 -1.8471967249306767 -0.7057004548701524
P 7.516270521206116 6.02048180047089 4.19451936081628 0.2758240904880089 0.08723290227674009 0.6739537585861748
Ni 0.45058830253200866 6.095263906725122 9.41073527593306 1.26126365462986 -0.06952288659148673 2.0238705928790695
Ni 4.549641827019451 1.2885024708092587 2.9020386505392946 -0.3446525221156322 -1.4036006969695958 0.017812859811704804
Ni 3.1748861402977524 2.5612092602680767 9.612607565238392 1.157669280275961 -0.7982200594671285 -1.4197721645231356
Ni 1.142319120492391 2.5635639529055845 4.5958231218447185 0.4146266373119246 -1.4783604064799893 0.20517557493251118
Ni 8.7028890148594 8.106794450671659 4.929258593989599 -1.3201748271437714 -1.0736559133777832 -0.2629333505682697
Ni 7.321967148585006 3.968417559137839 5.673746437926764 0.4767012951554822 0.9890666193714773 0.6225779752173599
Ni 8.369594641028208 3.8011519218213405 3.6266930191752413 -1.0115856264095997 -0.3422680810438557 -2.274589146548702
Ni 4.346918366717915 2.8838204760629513 1.224509804438019 -1.5281521331911359 0.0687870368667267 -1.4414221386927433
Ni 5.962768925281548 4.529054300340542 0.5949208827602516 1.5189861504211517 -0.5705630156026495 -0.8924633316234307
Ni 7.010268146530488 7.787838963913227 10.87128240226786 -0.8155873471009825 -1.2712040536720237 0.4542051709354952
Ni 1.6573554521352665 5.492856567334102 7.428653049520427 -0.046959656578990094 0.3644559299948046 -0.449164266077478
Ni 0.8073214884459732 1.234326215690259 8.422215149805384 -0.7822442528641624 -2.5251071541717542 0.5784449894538877
Ni 4.8693761031716125 6.71599570243916 0.6842526073349591 1.5465285788157945 1.4629486999106096 0.09587026623676391
Ni 8.681119560747657 6.387804689693925 6.567633574265485 -0.13486490233240642 -0.8944690491995497 -0.14416586801835815
Ni 4.205536023957678 5.159800411435108 2.377123604492681 -0.21837844677603035 0.533687482732539 -0.5306435536998926
Ni 6.856480146839568 6.030780144924425 2.1116086459318786 -0.03416944679285728 -0.24819912968188865 0.31543090624635356
Ni 6.845861124400381 5.394197694490979 10.215930211222748 0.30288932213591707 -0.20607417548738058 0.0792012902215152
Ni 5.485499298120411 9.250002307295716 11.903062904882916 0.722065526491737 0.15774257826152835 0.25792329894818805
Ni 0.004743285519212932 2.7513254946193775 6.8278381053838775 0.5565520460355382 0.7626442192450478 -1.0165910500439912
Ni 7.771255330940897 7.018257609487323 8.64518072078414 -2.0267599986117224 0.7007613656973222 0.06173681488816465
Ni 1.9475781913792087 0.45782371411115197 1.6143039744499703 1.2732236552052136 0.3152684125265603 0.8423648723051428
Ni 6.9958834483169205 2.0686753609898663 7.22816242422185 0.7040068692178133 0.6142296032526647 0.8406008384261846
Ni 7.870033312750119 1.5755642413374804 5.101508483425959 0.8266636595198023 -0.07803272383471077 0.3486462166560576
Ni 1.7450929490098714 8.466934153016073 10.342089511892638 0.4658610100068687 0.6819817710969738 0.20676708778934716
Ni 3.437274030387032 0.9855808833334657 11.437486113301496 -1.5050669692368983 0.21493214009864275 0.8040320381632153
P 7.546551685279902 3.002297248419417 1.2155473128504313 1.2820250555469275 1.205916031097491 -0.12206800767805429
Ni 1.0139196550370113 2.5393573461028787 1.902281051571527 -1.0084442525671407 1.4587973967463974 -0.41183596194066496
P 2.2010145845546942 2.204624502450329 13.291893606506324 0.9157703817804873 0.2854654702325148 0.6218809491503354
Ni 4.805011450337016 6.782980752527948 9.591433655957147 -0.07551252851601833 0.19415608389355596 -0.07581077648272751
P 6.108649922069086 0.3592253119738947 6.3315797603580135 -1.3212148383725117 -0.16159820456219265 -1.0400109716298283
P 4.468171294207318 4.977563693302705 4.537328708593201 0.3749468022237994 -1.147239857412521 -0.5800601564598075
P 2.384195012187733 0.8377666564038496 3.777218349417848 0.573848885442773 -0.19505185623494795 -0.01984994484639162
Ni 3.9147543887958838 4.935884717396003 12.98820147564215 0.08512896855985984 0.05300149189769582 -0.45047167203499194
