# total energy = -381169.9242381539 ev
CRYSTAL
PRIMVEC
9.25981913919058 0.00000000000000 0.00000000000000

0.00000000000000 9.25981913919058 0.00000000000000

0.00000000000000 0.00000000000000 13.55268130706414

PRIMCOORD
 96 1
Ni 1.6007356545613158 7.112568849017157 8.103134284997205 -0.07267763017038452 0.9051260146927638 0.228764932216677
Ni 1.9698875997032523 9.175489850437186 6.545579018500552 -0.5972636648222875 -0.4938055589359367 0.9830106429853845
Ni 1.1218363343673994 9.040287232892977 9.428505145401774 -1.9877630485232347 -0.9606739271613971 -0.9593582936737671
Ni 4.2504421276037645 8.815227331556631 5.306321697057415 1.0617177671793003 -0.44401280378352564 0.8202407867125938
Ni 5.6772135621936375 3.6184872587906973 11.767264117730589 1.0674806378050068 -0.4114500393561559 0.29478803318502134
Ni 2.4415920405168627 4.262340995047386 0.7023174556176133 -1.5055891602889553 -0.15821977500826298 -0.6232438909361332
Ni 0.6489920098321473 3.6834448892319425 3.8240922803612474 -2.5331467366467795 -2.943282942287518 0.3414700106225926
Ni 1.1453840541410396 0.9691419186901172 11.60879342694721 -0.6689943576983703 0.8184407573893775 0.18002684358102544
Ni 0.9544002868066584 5.409521454078746 2.5469011843114666 2.326961489502831 0.35401133762271286 -0.480725842933843
Ni 3.9504980698342966 2.684782667498819 1.4506247283912477 0.09791840701504427 -1.2950623483468597 -1.2681552395433708
Ni 2.2889068846586023 5.66199041972102 11.25552855330179 -0.1913651514119801 -0.6915051372063769 -0.653651813804029
Ni 6.613779437563398 7.207667190375901 5.456838203300658 0.5782326163327655 0.8548061833922891 0.8847567070077924
Ni 7.332906242652143 0.09891246081401824 4.158789364903209 -0.8305182573792019 -1.4744273899741702 1.021005377061603
Ni 3.363740377668944 3.627080370843367 11.805496984491652 0.7622441555931517 0.1937393080711115 -0.3455475231260759
Ni 6.987079781627313 8.190152508277114 1.967686540721658 0.7180821163639569 0.5088089743233044 -0.82623942749819
Ni 8.750380818943654 6.333956966529329 1.2143048871238178 -2.933215016528555 1.0968531774298529 -0.601033673387681
Ni 8.807625020139344 6.821792012079738 9.799822036231118 0.3667033312680846 1.1418945339402078 -1.905861842872053
Ni 6.567313665709632 7.455747001801617 10.771304837170065 0.17578709446806498 0.2866000980575903 -0.2664012545122122
Ni 1.5074985368260487 1.359674785954482 0.4815022553210773 -0.055793709930852295 -0.07902542676528326 -0.36775465535073437
Ni 3.952368553276796 6.4902071527111636 12.592135278107985 -0.022900815857573465 -0.609043688176351 -0.7009829947898251
Ni 5.082242410555528 4.523486411113529 8.332310175888951 0.4010316722363093 -0.2618848546990974 0.6246238020027952
Ni 8.289195532539345 3.3934273574543514 11.541747707316443 -1.2206240267316266 -3.507213540175315 -0.8640876086942151
Ni 1.7503928495992924 7.000182425543829 5.553170878535072 -0.2130115260371622 0.8142783984815718 -0.8458906260702141
Ni 8.950652184757375 5.362898265301601 5.619646193314067 0.4786213949963305 0.17536543354961412 -0.03300885082585283
P 5.731272385645667 0.6783058189109571 10.036817844287173 -0.30263555425389815 -1.7333277081236471 0.3576247660055841
Ni 4.68407945241681 8.61833579968604 12.011619629945546 0.1536475822565483 0.34287383294865464 -0.911856905658694
P 4.688051914777366 5.17651662802129 10.609730255050424 -0.18935274896764162 0.8425638756898263 0.42440685662714
Ni 6.327438053937649 4.893295803406048 4.53151467420584 2.443960053077778 1.2748470497412496 -0.4820106231835376
P 2.7172198135338412 6.322539609674866 1.2826099421416148 0.9239724579753055 -0.4989667914219019 -0.8938506988892606
P 3.6564525167820165 2.200475612995895 3.4753952754395123 -0.8995130393813605 -0.5656560652193354 1.146365939448
P 0.5550307742493386 8.168503051403038 3.8903648051036557 -2.153297869135672 -1.0965641854345243 0.07395135467648555
Ni 3.947738643765659 0.5901153025428287 7.6596232151607095 0.9701111613148968 -1.3838314847624684 -0.5081847104757441
Ni 4.734175073327308 4.943771076896457 0.7841186968603732 0.8382665338660531 -1.2797259751001056 0.2327509134476185
Ni 3.202369511567792 7.121310118174183 3.164686678056652 -0.6960989272246464 -0.08803688623527418 0.9091101961514925
Ni 6.819736332256794 1.3240707818138424 11.987631142786446 -1.5207812946483614 0.1154985819906527 -0.2303155645332485
Ni 8.263193960724802 6.347957812891006 3.486698736520001 -0.4733550043910686 1.653501125613307 1.2840045478708013
Ni 2.128563858468923 1.3923712069221281 8.458756708565698 -0.9880631178076273 2.6435499063923955 0.03656648627012412
Ni 4.348272115574079 7.6859183232382575 9.62221407747441 -1.2320582367104975 -0.7937028883230653 1.2990830394704789
Ni 1.419187642810631 7.954666050721688 1.8929440595195768 -1.680413633733435 0.31522830331724416 0.8119086126978146
Ni 4.453417360571989 2.332483592977419 9.615897954919319 -1.0361201212158544 0.6338967426642889 0.09162023271115835
Ni 7.198777764114519 3.989611545384378 7.091169407256684 -0.24066399764710808 0.43627763992279706 -0.26947552256216173
Ni 6.8341538704744735 6.512671473659198 8.250573753379346 0.4875467225104184 -0.940170922112039 0.056019195678097065
Ni 8.343254355991375 1.6075786608187757 7.695226293319446 0.36213808049490537 1.8541983530594905 -0.037646349597864205
Ni 4.172363333607958 7.157784545302915 7.137288861879017 -0.7426047840956694 0.030235144735457607 0.7239959107452305
Ni 3.0852235411170157 0.32894581094722697 10.41466661145483 1.255672790805644 0.5650302587098786 0.43822319368494206
Ni 9.161720499551066 8.657134441389365 0.31493014887511456 -0.3593972845249746 -0.37876669019052184 -1.5246302360808064
Ni 5.419957270116847 1.7126405674454854 4.812299240436323 1.2651732740969115 -3.079027676121717 2.7360679683274745
Ni 2.4833538243073137 5.3000148343213445 6.925447352196966 0.9272614131392225 -1.135731085441973 1.1400667367028494
Ni 3.537343464698519 1.4700610885189989 12.826243874592896 -0.21601765985333765 0.12616197524176984 -0.732234753715255
Ni 8.502726959192962 1.769875508822155 13.40753179166179 0.60326719070389 0.1429780183578441 0.8361116923065793
Ni 2.7179328195985564 2.006371286651008 5.588163734620243 0.5492120607306994 0.09401675796779292 -0.5868985195378796
Ni 1.5526308947406073 1.67338819461007 2.762171604977466 1.1133894845219792 0.8146488944471132 0.8828798017000536
Ni 2.3144454655220317 9.15057167744825 4.258144445066491 0.992413424356523 0.6997272680058529 -1.2329020727680313
Ni 4.90275933844681 7.209361737256977 1.074403837407708 -0.42212988766750525 1.663400644115206 -0.09295669213439475
Ni 7.09571597839662 5.032637560053211 10.373641909258552 -1.4712201958907822 0.5111142254177133 -1.1054298633552704
Ni 6.397312648279722 5.7528014648724515 12.717253026755035 -0.7226077721484523 1.8237621480568205 -0.5045067474035247
P 8.636123912027827 7.225797916021511 11.869356400396855 -0.5568901461012474 1.1394327026632765 1.59321492712874
Ni 3.528592935722471 4.66093916468015 3.1253157795377517 0.25235274683894604 -0.18972710158792486 -1.7535471204943154
P 8.907631065579894 6.545710507930669 7.4516708294680125 -0.08633327328060615 -0.6224234519173668 0.2035411246528817
Ni 2.49340072794648 8.409897273494675 13.45450592757988 0.828208892519735 0.006092743161299184 -1.6406970318701035
P 9.243132828394891 2.1612139803414574 9.81714252771228 0.7567494510271676 0.2990797185818398 -0.03571185157931269
P 5.6988815387057565 5.626701249427138 6.561490165526524 0.220761088075594 -0.47252788050408306 -0.029956437152774212
P 6.4199066066940675 6.015011760126157 2.0631386071670526 0.8799929670705618 -0.632445354929743 0.4986513170640122
Ni 7.968657637264342 4.231255782589615 2.442166149296243 -0.26838177527735074 0.7947040758940701 -0.23379606688268123
Ni 1.240158301834004 3.33923889653601 12.293894101056713 -0.6931712120548901 -0.010721243072246053 0.7600854573789362
Ni 4.215532609889795 5.974185218056955 5.057453875032904 -0.7623403148513839 0.8024780634125341 0.02472038556481549
Ni 1.9207272205140047 3.762079272369085 9.420305575657553 -0.12317821002309753 -0.9672664927772502 0.934060695449243
Ni 5.338128249417021 7.547428469941143 3.529430023362084 1.3022560378818218 -0.03171635726667441 -0.1336073757762215
Ni 8.805495261764223 0.6303788476154765 2.3628696890990084 0.29494564180880817 -0.6146296669045608 -0.08315538977325679
Ni 4.622566474651851 3.607847726734106 5.07813568081915 -3.0821947609957885 2.1324876172585405 2.7335269470731762
Ni 2.1305454597396896 4.761148926139189 4.821068289050416 0.723940889137579 0.4735347245020426 0.9802737036701955
Ni 5.429439324795655 2.277054316310093 7.285622828778711 1.4893613855761834 0.3402759903144914 -0.29750954588124245
Ni 3.1510330749083106 5.6664443926707335 9.121509735446844 0.4403289271740352 0.7894438559363952 0.153627013431258
Ni 7.929108950220215 4.409683235329794 13.473099644176605 1.2248897439865165 -1.0303775623051223 1.6487468987577736
Ni 5.786303490095035 8.520579890267904 8.24709113544507 2.1097942894260826 2.0628947966610665 -0.8435452657664892
Ni 5.224380632547419 0.362143188123978 0.4582415899371275 0.5907698295678278 1.066571752837492 0.9325046638160328
Ni 8.027596385341111 0.3309514877474513 9.878386970725595 -0.2251216790371349 -0.9292223935203352 0.0670829096914264
Ni 6.909889930257644 2.520152345101827 9.912593668175772 0.061002764935617515 0.6543406123409377 -1.800317543880635
Ni 1.2531498279222533 3.2468814616078587 7.096916050941906 -0.48482983779988753 -0.10446263589146526 -0.23777921990014533
Ni 0.003939127012074945 5.200156945985153 11.303573124298854 1.4540753086803797 1.1929705266804167 0.5978483336811639
Ni 0.236805055784197 0.8711656255792508 4.888913131062806 -0.09793126253085069 0.9550437254588131 0.6731001523366279
Ni 1.0959088411050348 6.306020092539131 13.258154243158287 0.8015007871009293 0.04941403165675361 -0.7033108715920533
Ni 8.671672357254332 8.676107810566002 7.1204433991136975 -0.26846430768882795 -0.7363302639408674 -0.2716054244209709
Ni 3.254446733749056 0.14210488664341075 1.8013135203846742 0.8712630433967317 0.6887720545459298 1.0483238623708977
Ni 7.5854029877514835 2.374050920568403 4.066996778935416 1.082485081633639 1.1463209451426772 1.6407888202529612
Ni 1.5413802146285456 7.905320475151995 11.296443989633605 -0.3312874136626359 -1.0099956562146606 0.8360199039237216
Ni 8.99483078131264 4.47032579010666 8.66111153365943 -0.35242805229599306 0.42691239665781316 0.12318335222942009
Ni 7.169998246593294 2.185780280207548 1.8999500385918286 -0.5190779603494803 -1.1399374102138369 -2.9379579305301786
P 3.4909980704920422 3.1482273497445616 7.51366068791262 -1.3532353571431663 0.10055147376251715 0.14543470742845277
Ni 6.906361939210159 8.513875781295779 12.96243451482678 1.0688800892556949 -1.9515865986026775 0.011277115575716062
P 5.8353342318179715 2.598231139097633 0.11000850194840801 -0.07973016614179171 -0.533857689761816 0.6838347651453126
Ni 5.555715476802392 3.2665493172111666 3.0866097360246503 0.6934545476232638 0.8067476373221655 -1.845811671657692
P 8.782077179456895 3.2161296026348896 5.8012793953997575 -0.19367425916113096 -1.259174376200999 -0.33386083081676693
P 0.45166711843131363 3.1251333611030128 1.2877908108845766 -0.2496237779435572 0.6400301092555364 0.23327181894809504
P 6.665652943726172 0.5563706700618615 6.548005091084388 0.16560372617715996 -0.7680772173351611 -0.7263258444299878
Ni 5.399326393335224 0.7310923432293267 2.8753228895020335 -0.3263424109525347 -0.9939380885311657 -1.6192229211567275
