# total energy = -381172.9215386167 ev
CRYSTAL
PRIMVEC
9.25445761360463 0.00000000000000 0.00000000000000

0.00000000000000 9.25445761360463 0.00000000000000

0.00000000000000 0.00000000000000 13.54483417241595

PRIMCOORD
 96 1
Ni 1.31085687271014 4.06953658763263 12.570892155797155 2.740820652521112 -0.20885765176978868 0.1671582151484734
Ni 7.173379800158089 5.662534103059925 11.432639242586257 0.9658744975257301 0.7394603249294167 -0.35907255419570416
Ni 5.125571975866867 4.594023706252107 11.845254778386105 0.7611290681521021 -0.9723500779477449 -0.10908625070640568
Ni 3.5947181418725016 0.7183689265700349 6.068491982207076 -0.25473950190356776 -0.7004314931617291 0.09361720853652908
Ni 7.592208778655489 1.7360529178979136 4.4558574336252725 -0.80277785404114 1.42053295394856 0.06744132147210966
Ni 1.519757739573207 2.4919477437743347 10.667639881520898 0.8725334254687231 1.502726751139496 -2.0100385720919833
Ni 4.737782447485035 6.395376075555939 7.582262087843261 -0.20729982036436553 0.17952573557489082 -0.3477820688835494
Ni 1.5890273532032098 3.194444350459691 2.7239477363048015 -0.32148174042612376 -0.1618036357047794 0.5317378152053359
Ni 5.420946492664303 8.732080296465437 7.340500493648543 -0.07105937784067116 -0.823034290297331 0.5963023293502827
Ni 5.053655587420808 7.155157773539855 5.326126247601958 0.9268808898713522 0.9820644770220313 0.03961684306067371
Ni 1.8910002981259881 6.772328634323778 11.550681697599405 -1.458388848454069 -0.5920584664722642 -1.7480745274155185
Ni 4.234876723519555 2.405779490934126 9.922376576304217 0.7214489759536608 -0.17423929036497088 1.082411805193542
Ni 7.135880738778159 6.545761008286406 6.837662327222073 -0.48686949393773565 0.13314123477308037 0.6650122331221707
Ni 8.337201853716127 2.9256486353116036 6.600885183782347 0.6678563874391853 -0.0619306760665256 0.3843920067970993
Ni 8.7947237185979 0.022170903590300342 3.8855524218700865 1.5119235871474155 -0.23189756430838773 -1.561291338947266
Ni 0.8218208040482381 1.9841834296744854 4.680159568491419 -0.6264307733045469 -0.015748006862876106 0.547083958644103
Ni 8.924323140010669 8.560280549314152 11.453958736095867 0.794542096394909 0.25534576802899894 -1.056293767950252
Ni 6.196544058342765 1.545735001491633 6.600234595427212 0.3447257985557289 0.7135420624017581 0.16926034909314078
Ni 1.9055112873273035 5.106822445176902 1.462868739051316 1.0333631272960075 0.5823458671701907 -0.20143950492884663
Ni 3.5037468256423177 2.892582459025698 12.502572049496269 1.1838266553976193 0.20201157538223272 -1.1911237032796649
Ni 3.2103157448986295 4.972965973360688 10.57007661528555 0.5723219072752853 0.5806702792399806 0.7712944387208781
Ni 2.3146508489281628 5.844911695018036 7.896353744729765 0.442108130561645 -0.5077651064398223 0.4550538920890357
Ni 8.090033805509028 8.937029510019217 6.932828688991132 -0.8705148523767976 0.26918421657398806 -0.7288910340540027
Ni 0.9029833208814364 6.737883543885452 0.1513159311447864 -0.5086251404472725 -0.058793415989124555 0.04498916311618058
P 2.8618761693764863 7.774882513250362 5.942687813773556 1.0294326818933497 -0.8211203611040697 0.11672782641206347
Ni 5.848076719448425 8.641312578298027 0.8143718912879456 -0.028651859408737754 -2.5965372850882833 -1.748713446551098
P 6.6463106879243465 6.481877488862504 1.8421784081186294 0.6786154257279023 0.7679442913017226 -0.6440266320094392
Ni 6.207658661678721 3.3083204487519002 2.9913219667964333 0.2941457716153321 -0.6802354778298284 -1.7340116215645491
P 5.068768116353045 3.867363711298489 4.683681814977403 -0.5564209197743127 -0.11798175342382261 1.3144800907518392
P 2.4692465597750832 3.0798926767773698 0.7308531896010135 0.05210340556345866 -0.514156611788463 1.0747853989965361
P 0.6916975803466993 1.2154063990989374 6.871538268530373 0.06019415299139311 1.4320345268302563 1.184938143294243
Ni 6.3298637716298485 3.658175956256059 0.4475566651547493 0.4500340702769411 -1.0468938147925906 -0.9019879832844143
Ni 7.8449757735888594 7.5393658269083526 13.1502998518498 1.243734387496845 0.3057941544875379 1.366665257395827
Ni 3.2649170435515376 7.41265379620401 3.772263056176961 0.474419183989525 -1.8181553433930044 0.9647619811878415
Ni 4.347281363085355 4.32676423103222 1.2609762727763585 0.0002650807359285757 -0.5755478704117507 0.892146057493328
Ni 6.722067676190907 8.58946910794996 2.9631217842108164 -1.1381432944278915 -0.3805330380623253 1.1763766268774773
Ni 5.910646105921699 6.3860290735831535 13.313352285867742 -1.3985312528664882 -1.1959314090809532 1.484301968775405
Ni 8.427830755022555 3.449515705285361 12.27389533261771 -1.2170455653517491 -1.026184350159381 -0.8432997254145863
Ni 9.137582856308569 3.3072006594066456 9.113872011007109 -1.0247890124737513 -2.0839845274518307 -1.5579519901613876
Ni 8.117454762781668 0.9059068039737166 1.7251243291556728 -0.0053291255223972735 0.6758612600215328 0.10444258128680724
Ni 3.068833600185806 2.718191463802749 4.555940688610313 -0.3601940693946571 -0.012554439626242893 1.4634091844867958
Ni 0.06682458598524052 0.1861682177086596 8.856831307646974 0.5590439592194566 0.09434868738591494 0.22334453253205408
Ni 0.8766062664033825 5.0409677263270565 9.894988935078214 0.09089646717125636 1.983718960360848 0.6894803934668642
Ni 2.7160166663140317 8.293641122739984 12.937578744972509 -0.5515839033969855 0.8812646346941339 1.4082896178048327
Ni 0.9367824501933264 8.831140008462171 5.6187086946021765 -0.30777647502488925 -1.4594985365784798 0.9297170737685667
Ni 3.4022161735201046 4.8078294355365365 3.4293483917219003 -2.0275243875815727 -0.372534593237881 -0.031620712229074574
Ni 1.9365137196132767 9.38263163377134 10.46691902955263 0.24295896432887193 -0.9149185753031533 -0.2742315491899084
Ni 9.121581899466047 5.128801781499048 2.4510597000949654 -1.5265428797224871 -1.4095090920342306 0.6399915427081172
Ni 0.3243048760718178 2.479574534232141 0.4799315334729643 -0.5916954267058906 -0.2358184966293487 1.5544288074994779
Ni 3.2890156506180075 5.448672847031101 5.696997702413048 0.37553687039931455 0.2863933813634229 0.3977571152500956
Ni 7.341163112798296 0.8867093575456502 12.634810842159172 0.014487394982897632 0.09832361287326291 0.8384493393008204
Ni 4.887158644359033 4.3332886234983725 8.638271563596781 -0.2241315472097237 -1.2471968921241487 0.4554233596133125
Ni 6.277742667559818 8.106580775338081 11.62654696301753 0.46500046177878623 0.559874682650868 -0.9695583741352205
Ni 5.395626297221192 5.646486873930409 3.3443415732852415 1.6273064694958106 1.1537159520551679 0.03475514409299821
Ni 8.27064379610397 7.263694049912958 4.6995291478271035 -0.9376445561457594 -0.8762656388176456 0.5551469381578955
Ni 0.5030852604390169 9.155777119554607 0.25417829968668615 -0.9119656633224165 -0.6753645228907723 -0.6585970736244463
P 0.009644070055287383 5.498397046634842 11.99049608369432 -0.9764173060385829 1.7368601467569378 -0.7185626555448013
Ni 4.264463223823512 2.966895751938046 6.692976289357786 -1.153294805357349 -0.2019922921085231 -0.016189208165352763
P 6.547371283873797 8.970984114215408 5.280331490609747 -0.13762241047288556 -0.4416859554225619 -0.19197501708183712
Ni 7.489947024398772 5.052128601950006 9.10670628464322 -0.06316223448078154 0.16561529614138573 -1.3709111771563744
P 1.8874650953996475 7.68228241251799 1.8557232319675103 0.02816540669062246 0.6287591643274074 0.4619017682488045
P 0.802681660701784 7.382567555200518 9.611387013537788 0.738254991767406 0.5966000630963596 -0.20161331150254955
P 8.78680190306453 5.4655714862413065 5.92102960712315 0.5620750327362966 0.07684538839482896 0.09623664843724716
Ni 3.432071053088627 0.9129836875465775 0.6015369545846496 0.7140465128420025 0.4047224908243352 0.1482428663012092
Ni 1.7442153493236534 1.3469955288524462 12.468005725666018 -0.3331388650490779 -1.136796807702326 1.1077492555170665
Ni 2.1907706821878525 8.695229047103423 7.812917407713682 -0.33257836455991757 -1.3284751194793507 -0.33596090787890526
Ni 1.2372561730174996 4.4508017235483095 4.983659498884999 -1.0102887619750471 -0.3146976276247548 -0.46734762185472417
Ni 4.254672007895584 0.6039421880625973 11.747054805481719 -0.33646844364294315 0.08241234095964517 0.5430516975562583
Ni 2.810458404068765 1.5247644010259565 8.302468024206958 -0.5200956029807172 0.9292162228727481 0.3326837797895303
Ni 3.920919256265333 6.754041826503754 1.6843815804574647 0.39546883343655115 0.08234369250523883 -1.2881512230493235
Ni 7.826198479526697 7.403149468455445 9.410233052963257 -0.3242996694908931 0.2499369383086018 -0.019413114419289147
Ni 5.083658538307711 1.4139607825901483 4.266622288734652 1.9010158276336615 -0.8522137400747646 1.7921105825898103
Ni 4.23314613998598 7.045344382045718 11.86229501079451 0.7583283654785133 0.5450329896523453 -1.6703817034187298
Ni 8.561511392148192 1.6053151982250944 10.626707416446013 0.3106741082876585 -0.2942110776356288 0.7592719603387053
Ni 2.242715951567306 0.09764192912323783 3.922705366543301 0.6900123547109343 1.313943244411763 0.5213603286257538
Ni 3.991984234630703 2.1098219433205667 2.587659193084183 -2.04402212812628 1.9549256902782395 -1.9803557003155698
Ni 3.4132659956542692 7.531240413312208 9.502215881387128 0.5171210937334255 0.1251859844817457 0.36048229005903726
Ni 1.4884499101930735 0.8771781918706282 2.047518159774639 -0.17740560390809448 -0.11332420004715323 -0.2230761093620158
Ni 1.8873262785386655 3.246750543677697 6.845910825101622 -0.4756006058921357 -0.2248252308426386 0.7038608305582523
Ni 0.30499545070922585 7.022254510835718 7.404378460398005 -0.6277602907492478 -0.23365388487786212 0.1678027907110078
Ni 6.857340079989138 3.4162736943088787 10.6014196116038 -1.2950271242335505 -1.2441071974552314 -0.7613221579995146
Ni 5.77990838624888 1.4047618519357432 1.3724304795673024 0.4166341546602566 1.8678218573801963 -0.24396349433398629
Ni 7.361745026053223 4.341756452018273 4.745351668191512 0.9681036439665649 0.378349143037129 -0.8814872922279012
Ni 8.654861103929868 7.395329451953461 2.1146194540361036 0.36459605511709464 0.690719665190604 -0.3192276542846244
Ni 8.051063285402691 5.155750761444348 0.22380146872087164 0.265157354802782 1.1047639476364974 1.420761267909282
Ni 6.112976308031619 4.214544680614396 6.679404627582448 1.3231459939569534 0.9988620081953441 0.3474465399210016
Ni 3.4196052989724457 5.409517237776788 13.103597232586765 -1.5231397675782092 0.3860645094035157 -0.02915708117993043
Ni 5.371101985114377 6.132475449770886 9.831043410789738 0.6482275574646643 1.4807029385702368 1.0584964320285253
P 5.195091459846638 -0.23783770425762854 10.040013686083297 -0.6940546431011079 -0.6247220181435564 -1.550052532808653
Ni 6.964534460039414 0.7336646937587683 9.07730024625854 -0.6965249590184714 -0.4860853074735435 -0.02540558455729818
P 5.674916567059516 2.2923198432248633 12.262530858931987 0.4144587442754926 0.49271232587175795 0.10107135082172916
Ni 4.244686448362281 9.099519273027312 2.6595552217239646 0.7197088533341024 -0.14549949922811714 -1.1520442207797
P 8.653361881831263 2.9244640647645572 2.8222421046746544 -0.48213223636306646 -0.5615199315637749 0.09444150421003734
P 2.7146562610764082 3.774846900682706 8.991968596367181 -1.1462168154646453 -1.30976211645088 -1.7309378677352318
P 6.866807389908107 2.797391110221662 8.417490749770877 0.11600997440943246 1.1474105786624305 -0.35149757006192367
Ni 1.1890034321401668 6.467079611481826 3.8538031548720304 -0.28332656951264107 0.8437730655065792 -0.2960375893214063
