# total energy = -340866.29098982725 ev
CRYSTAL
PRIMVEC
9.37350910445609 0.00000000000000 0.00000000000000
0.00000000000000 9.37350910445609 0.00000000000000
0.00000000000000 0.00000000000000 13.71907806319448
PRIMCOORD
 96 1
Ni 1.5948931898591912 9.343691908987118 1.2052251708036903 1.1232054421711364 0.2051264668621306 -1.8991985719192648
Ni 5.005913129969093 2.877348576355527 2.8560650867264705 -0.8302526624226411 0.7490178867108649 -0.1414034747818726
Ni 6.983226741693093 2.976164108668356 11.984918043190007 0.046845499598629 0.46418979295203283 -1.4854682211693644
Ni 5.730579113947924 6.078430034468612 2.018460504362363 0.13685082241418367 -2.282116822384315 -0.2696447011501743
Ni 4.7168153641189425 1.1987499507579968 8.807181309344148 -0.40286898255536424 0.7410932325471495 -0.8258596755612682
Ni 1.3022241170643258 5.0172175818728375 4.415114915362836 1.5723967048318082 0.7242910733881461 1.3013852052410941
Ni 8.258670743426576 5.263000362443384 11.1258153178398 0.10900628939808969 -0.1245835750110564 0.5160759402983628
Ni 7.019633450809297 1.0270178916133044 9.623851096615535 -0.32162366532062675 0.6333619532067415 0.27120998875476515
Ni 3.008155895026133 8.615557726663026 9.601571202975395 0.03978782142089922 -1.1739034827466364 0.08962454243736823
Ni 5.065894214324035 9.589006014105603 4.585848695794636 -0.08632118909574811 0.8886437007670245 -0.642626666338119
Ni 4.266165169942895 2.9985105542226895 11.788913282383007 -0.7274357896647149 -0.7946559962649541 -1.3624314218201374
Ni 1.5254354878635485 3.2449119863899583 11.734324777779493 -0.694696390450165 0.9450891853492626 1.2523666092505463
Ni 6.578431753746827 3.7756025742692167 5.587203794354814 -0.42700058549624526 -0.2199529903520018 0.502012006006129
Ni 3.469295045819336 5.312201911400891 10.049458086686082 -0.9127912445475055 1.0185512590941554 1.4774756898821908
Ni 8.748277241178046 3.882657421029302 13.365578746560587 0.6461287659541065 0.8894942216927778 -0.11898628342893702
Ni 8.925099115732136 6.756725269220393 8.554490252610204 -0.5378164172992479 0.3868399541169596 0.20569776598456832
Ni 0.9881365761102106 1.4852418810946801 3.4996952103419097 0.2021036208754068 -0.9389907857610087 -0.37261172633271955
Ni 3.989871617443089 2.8271534354396475 6.776072191881527 0.47784646450351903 -0.5232513750008795 1.2145662505733212
Ni 7.973697321554574 5.250871041744009 1.5414623136222734 0.8864947727448217 0.6636714028235602 -0.33794194286467605
Ni 9.028732631692167 8.105048303749573 4.691170380732994 -1.671936192390043 0.3282388566442992 -0.7624076777542095
Ni 4.656009410968371 5.157098457295371 3.967159605036147 -0.016992420792938476 -0.3970706307060323 1.1928743674221842
Ni 7.373408429044054 5.182360064161532 3.735101516403795 -0.2279699471192074 0.5686028065524853 1.3501772870431328
Ni 5.524127577314451 4.938517599962524 11.258232068012788 1.6748366538662895 -0.6129777331234346 0.6650713684948805
Ni 7.9871670540468465 7.861796370620164 1.944926263284682 0.08297952631702483 -0.46868099595416707 0.051557817472633785
P 0.4383352779976569 5.954924679341137 2.769182031423149 -0.7904339877638065 0.7306111020689031 -1.6848225614344081
P 4.366339861066705 0.12478202705889264 6.790394913696552 -0.26200595365799395 1.1249491643351204 0.9047434345423644
P 7.269381225704291 5.5200875949176735 13.211663853401497 -0.13319857037357702 0.5935430214375907 -0.5481710210606947
P 3.966531579930383 4.34247490704769 1.4153426868231944 0.3355279341065447 0.8651024231119746 0.12231020559584742
P 4.970256301576188 1.1345789078616175 10.969431442399246 0.16771768719636923 0.18980449179307957 -0.6760039562469842
P 4.865226132769012 2.35734378878329 4.9575401992108326 -0.0590888357423563 0.23174535500123955 -1.367239127621426
P 1.3958186048411805 8.103276710540777 7.447332608097851 -0.4159368714829159 -0.05603642206927769 0.4879089909458436
P 1.2975561095617847 2.1720295150378304 1.508906242020213 0.189673365531854 0.3455819759084371 0.23062641090544794
Ni 9.182373818387251 0.14426111619750873 8.647751980816095 0.3237214283899199 -1.0726902070304043 -0.9516244153646191
Ni 2.9037350043066374 6.690763886097135 5.3775221465057275 0.2520239027446176 0.8389992982670196 -0.9297016471495988
Ni 1.214225614185096 5.614431963417828 10.13035896851928 -1.2932576910379534 -0.9165530255827827 -0.45271187421942033
Ni 3.7561994105538346 0.7029213177049453 2.488627281713192 -0.5211261011277607 0.4670174922088151 -0.3179161345620525
Ni 0.07222851126823539 6.4193539318078185 6.251276603838309 1.0685589584708501 -0.6843245602975375 0.12611929492929247
Ni 6.2334491269927605 0.8562934846905463 12.734597236045408 -2.2233110651000163 -1.210629120302444 0.8053934372871162
Ni 9.309178648697246 3.6169465602370647 3.3252438962243516 -0.4658584389037074 -0.33102079026481057 -0.8666918790862815
Ni 8.563637860083556 2.29587231649079 8.173840486603286 -0.4067379785924673 1.6523276741304962 -0.5271846486170146
Ni 3.052839412625759 0.31585819681200705 11.95052382646496 -0.23848575904886668 0.5668595986091334 0.13412673861480126
Ni 6.460456768953688 7.631508000494799 3.8010347789999286 0.28883078716032196 0.05238751246278075 -0.05947141589275564
Ni 6.553751304441223 6.021232882298921 9.278514151219708 -1.3109399388090648 2.490141179619531 0.19228843455719785
Ni 4.685414108830765 4.234210877621283 8.678935770694515 0.8214476625365015 -1.6089300238711515 -0.4870574415788257
Ni 5.837999527560618 8.43424594127818 8.259516233942096 -3.3608766326475665 -0.2996584739034452 -0.7111895030091816
Ni 1.3409085888775538 9.318486543175204 5.515769219302371 0.9093235977138792 -0.5169591142342645 0.5947689234248918
Ni 9.174387588684109 7.160695388371028 12.528838401730082 0.12388552050276727 -0.5382378211073827 0.5202917781519234
Ni 8.598169867391512 1.7160926617625192 5.2519921134253424 1.9421503928904422 -1.9240925069474668 0.1637890415659244
Ni 0.9254062415534711 1.2536224726854586 10.556926743266555 0.2181691589787017 -1.214549538402773 -0.20320302458717263
Ni 6.525808873989264 7.548158758100028 12.723717404101233 -0.38900173765496876 -0.7955430268555976 0.662057521369221
Ni 5.208005984898386 8.301132739383426 10.823007857665921 0.6890132240224585 0.7392860041350816 -0.8669096515240424
Ni 8.905958410269909 0.7359226309864646 1.8805293188204084 -2.2176006449788 0.36403735440014723 -0.4866116122906588
Ni 7.668205288391283 8.30718802622407 6.995783494404748 1.402941980339674 0.7566833736759226 0.47342056752168143
Ni 2.391903916618369 7.105494793627123 11.653890696696552 -1.416643903306799 0.9481318288303284 0.26325011047774016
Ni 6.680818593004371 1.0394940321472046 6.3999910741813135 -1.3286363276475635 0.6516772065761616 1.1551452283025267
Ni 6.1305561182469885 1.126592678158475 1.6586227404797276 0.10037329631344004 -1.5667281936921211 -0.42735256951902534
P 7.493886140751206 2.053042191268237 0.17045444986237027 0.7522528487083948 0.5587035451609024 1.952315249238586
P 4.40906431527671 6.559675362155292 11.755630763830249 0.17765294403221019 0.9607703435299454 1.1449109521690282
P 7.27853914403759 8.127619713520897 9.584271454688869 3.385942317366943 -0.01772724207643399 1.9940015732337788
P 4.213317325968343 6.69839392245671 8.529438612346567 0.4189892851559945 0.15893762701089403 -0.3290796073780397
P 3.2288551654023014 8.514961227632359 3.9102661545593924 0.27693017906799405 -0.0866502903003927 1.1298574002700155
P 0.808481089772952 9.123189482300816 12.20995162414685 0.10067488671425887 -0.548257924347546 0.7031409216730923
P 2.5639453015614224 2.642317210655291 10.081519237010763 2.1255752064094233 -1.1078431007824534 0.6343664832118558
P 3.1608878513442167 4.474313311712834 5.750022583752183 -0.41444923119379595 1.347990306694143 -1.1117889728040788
Ni 1.3097791653515714 8.104635869351757 3.0922250229152723 -0.27444032276660474 -0.7906021379105546 0.014797984244780965
Ni 6.950091387232284 3.8767614838423574 9.639079299403946 0.8354043818269097 -2.432806093343488 0.17488052349339558
Ni 5.1416227938682715 7.757628564644782 5.926737600303202 0.679566733897578 -1.5936836392350424 0.09713370633021981
Ni 2.686691402456556 3.5888354066223633 3.0435774483421025 -0.5386157732720918 -0.47901734488316855 -0.019135435277870268
Ni 2.315209865642883 0.8984199090237202 8.102034720592812 -0.05637117970087711 -0.15247361655310512 -0.8740074389110883
Ni 2.116838293802966 3.333407285248374 8.266910995224736 -0.8888892411189271 1.5761528294401306 -1.7405710199496216
Ni 5.476585139457245 3.2459899399297014 0.18875153951088502 0.18591852647511206 0.6194276025138364 0.5553649677059725
Ni 7.2641320606411925 3.073479879534586 2.237855919630894 1.0094886346712548 1.4276677652211283 -2.3226119542848838
Ni 3.269526821132273 4.991637275699274 12.79235398670486 0.9481858219967154 -0.11575183565203935 0.5246773088141286
Ni 5.359772469785221 8.087397986224904 1.3985912888155816 0.6238576132607321 1.788712612651855 0.5873957708892722
Ni 7.523675152484289 4.894396492905373 7.513239624868669 2.2921420678308007 -0.6592131099418905 -0.683725750371274
Ni 6.835734576929067 2.0645809808980125 4.081754502469012 -1.6079260080866695 -0.5678157918748157 -0.33470158155050744
Ni 3.1286711007694503 2.469647800606474 0.1444757695545533 0.3184583802187677 -1.4945444724390196 0.4657005731696044
Ni 0.3977592320599055 7.943580237005047 10.257892120481777 0.6762317559870741 0.7550913465984544 1.488907071647584
Ni -0.015130718294381434 3.714374813211789 5.833352141777968 -0.08745170315576552 1.5357926804555293 1.3162603225807137
Ni 5.447883454772946 5.613738323748776 6.9565469229089905 -1.1614981671037479 1.0760691508049662 -0.9873542646660609
Ni 0.1729543647236709 1.701948036619277 13.377720252821714 1.043733671897054 -1.414320397379945 -0.9031799467099864
Ni 3.4266174591545373 6.763183616949812 2.71753024720226 0.4672905433645436 -0.27843401730703016 -0.29867528405456945
Ni 2.192754343528028 2.1348448046712023 5.181695482370508 1.9677914904973144 1.9227498768766433 0.7084024271823477
Ni 7.832372925739689 9.187988550302958 11.559873463661935 1.8799232686294203 -0.6412578110150504 -0.960166134287043
Ni 2.311591691152962 5.923870243887485 7.498299188807826 0.23554647391488467 -0.01065619416226552 1.2229135940967517
Ni 3.7730248592828737 7.892232154477094 -0.18986230033227283 -0.7431179762866622 -1.1799756570826452 -0.46590214765744925
Ni 1.8036037421716042 6.620246977579831 1.0119452890749787 -1.0126045545924174 0.2340243808434034 -0.3786124240008447
Ni 1.7360394890022937 4.204440612906282 0.7590995694418529 -1.2917142578102334 0.3586280104591178 0.38631339218952826
P 6.260763532338955 2.9740456956250343 7.734075748476839 0.2410368076054946 -0.44768948130416447 -0.12343686300112289
P 1.1760379383510544 5.28837445141804 12.48680290043461 -1.4102814514238808 1.0897206801501298 0.06918967162178406
P 0.37679912849277236 4.861336126516894 7.978096309347631 -0.23141059736964018 -0.8167240318085869 -0.18852408241875918
P 7.732770018667394 9.594723854620764 3.703793996206029 0.10658533866142288 -1.4072490923554604 -0.8285963577661407
P 8.661328571311437 2.6068197319160875 10.503833313355122 -1.277371101714684 0.4591923397374414 0.03994877247879571
P 0.8110672409174321 1.8238130276645335 6.729262762431347 -0.25632690099534566 -0.36956831152070546 1.1875763522480385
P 7.438591810916887 6.8464484977632125 5.624410063792236 -1.8166005973113746 -2.4056151347509926 -1.2967605619848892
P 4.265349674656306 0.5029056323791933 0.33102734649345755 0.17889478685911128 0.6052847353545511 0.3048832126374943
