# total energy = -340853.25316151587 ev
CRYSTAL
PRIMVEC
9.47299069473187 0.00000000000000 0.00000000000000

0.00000000000000 9.47299069473187 0.00000000000000

0.00000000000000 0.00000000000000 13.86467942630940

PRIMCOORD
 96 1
Ni 1.670438752632994 7.7046674871353895 11.500820712341282 1.8417035630265894 -1.3862457506309158 0.20431296982189975
Ni 2.53904568450309 5.678688449344876 1.5295933803173565 0.9635982998970436 0.9425885304145961 2.591883588366356
Ni 5.615257303937896 7.194887968179118 10.078761880010248 0.14589519200463907 -0.9257665737612507 1.8316927157578065
Ni 7.31719375048938 6.405901522740574 8.20879163067231 -2.3867442659884186 -2.036645118935918 -0.754584582165365
Ni 6.962866008135339 0.1569191428542523 6.5950259919150325 0.6343752249626042 3.5402519586875227 -0.25809941951473614
Ni 6.950039578792291 3.563085446994112 10.184923791651066 -1.6744782420856066 0.15881884204484262 -0.137885177215969
Ni 7.278401853768714 2.9555162455354145 12.652199257076067 1.2078654415143777 -1.020421479533675 -0.6788913050971083
Ni 8.313809205042348 1.6711397539412554 5.2459783404375235 -0.03413216579701863 1.350521557756429 -0.1728904896465603
Ni 2.20268820541623 6.8183176437737645 6.968970403311602 -0.19675418363803535 -0.9656531255435434 -0.794569864309051
Ni 9.16160397644961 0.8922676206220395 7.381887645550295 0.45803868574897244 0.6140488547004264 1.0968084402348464
Ni 1.9109485123011243 1.172727823767597 1.571214859345828 1.514675953081572 0.39252080655182076 0.018555908625316427
Ni 2.7468262614679477 -0.00914333057748156 6.455491681505656 -1.3790309780500316 0.34521199416352805 0.49715724901698893
Ni 3.4646610741179895 6.445943854227327 10.09280748325023 -1.5407204567744497 0.9520465905037023 -0.7047946552264314
Ni 2.7801427695916554 3.346722340498382 10.806394606891836 1.0118892736929475 -1.8977330431173318 -0.2639767042311195
Ni 2.7344355896949 5.099026678347493 4.318612342150102 0.24388661834946385 -0.23478131361408597 -1.6143985031848906
Ni 9.216632579148108 7.412132062805501 8.716113855853406 1.7034288636816854 -0.8086479396686719 0.9763627986515636
Ni 0.8034772792391812 6.912441278893799 0.3287165648268143 -1.7474389507140484 1.494125125513414 1.326563761389251
Ni 3.4194085977725384 2.634287132520081 13.058337627204061 2.2579327689389435 1.2664089462762256 1.0436318562118672
Ni 5.097378377974014 5.326757373625835 2.406437077559521 0.42837201192247515 -0.6497100555474616 -0.13214981739408854
Ni 8.48036332668893 0.9600307646542595 13.507081720089289 0.029237556708878676 -2.638697977616733 -1.0603517400697093
Ni 9.00888989414586 5.37741892763368 12.920203424813076 -0.468938877601244 -0.5928801910426111 -0.8811378793082825
Ni 6.628166302412609 3.7770234678828847 7.472729836708414 -0.06435085547224402 0.2018225992998782 0.2614788775099304
Ni 7.311500483107421 5.920818090414529 3.7582707355878346 -0.5675028886200872 0.04015111829758891 -1.7358671867160491
Ni 0.0038337193169361663 5.503845460877638 7.168871346651979 -0.20737592501793964 -0.6131230004520473 0.9085854339962739
P 3.842027129738126 5.055138312655955 5.98811326870853 1.1631359598174873 -0.3133154025652475 3.11421347999423
P 7.243285477421092 7.406666147199195 11.718191745042402 0.6426999427782157 -0.9643755443827002 -0.0936200367500065
P 3.099761474196119 1.7992051145680406 8.20879163067231 -1.9678969057269269 -0.9548040986441815 0.7395145752061199
P 8.735802519624892 -0.12017341211445641 9.315179153603644 1.7689493139819987 1.3878092384632938 0.7262181152075299
P 5.415216160335868 5.150540801514032 9.068235338684556 1.3303867346797669 0.22853636114563866 0.20772790904071964
P 1.0919137405138724 5.2800555297106015 2.918501481861097 -3.1303371250289698 -1.179739372702123 0.4678469300886459
P 9.351101681455766 2.7692298843603473 13.690261887629507 1.652960679728805 2.346396201188675 0.363424917627129
P 7.247832512934138 4.403538650645937 1.86313548658239 -2.5453103685925065 1.581582227985818 -1.929321102336258
Ni 4.886500133065894 2.3671487961286806 9.313071413183534 0.462018753442643 -0.6294474486436837 -0.8750852453562994
Ni 1.701472270009527 1.2528882706663216 13.060278642988692 -2.201659291158195 0.17247217116221908 -0.7155467515366127
Ni 6.530262944022357 7.858935139906097 2.7610395366424747 -1.404572831074878 -1.5571616330496085 -1.6174416608865885
Ni 5.350089349602148 6.510208622811698 4.963333665647574 1.9777745698519553 -1.5484252816178752 0.29376370568556504
Ni 5.310056491106047 6.7012598982848095 12.796516480465728 -2.090503816627587 -1.4497993070128452 1.2298530015290625
Ni 4.519810137910762 6.808399422560936 7.784407333249158 0.033448252356116585 -1.2011666893379638 -0.9070628267041604
Ni 3.997706258116008 1.1543596948930253 4.929198691131518 0.8580586288913158 1.2822078609816951 -0.4583402761497913
Ni 8.459058570712184 5.411038571458257 10.09021472570873 0.9984328910777255 0.5568551790982539 0.6934288365916509
Ni 8.264454923744504 8.837182465584494 4.067674714372055 0.23182377364765883 -0.8803958589359353 0.4643371171631745
Ni 4.488643998665098 4.9661206194974445 11.594448910050208 -0.9259699480213084 -1.8043138095242217 -0.4169131193532562
Ni 5.9780823189069405 9.42072816274927 4.121983369780988 -0.7662471061049577 1.1129606245146766 1.5899048889189005
Ni 6.8379646263863805 8.517184841353943 8.902302645224756 0.30216864191980863 2.403368504808661 -0.9844409476740079
Ni 0.2937204954604756 0.9324425739779234 3.3954457206187905 -0.02095449076448004 1.2860406044642239 -0.5115767668764286
Ni 0.2736851202311205 6.25639878426791 4.94978728901496 -0.2159541536052539 -0.3972210402409675 -0.5137760885205926
Ni 6.077615031689367 1.315192130185692 13.8378927631493 -1.0218461277953435 -1.0684671700879922 0.7289126313205576
Ni 8.813357894094269 8.213973356559052 6.5061390260275225 0.019453480738921336 -1.3289343185039566 0.3071923203866451
Ni 3.7780181319013635 0.8580758081620706 11.420904668601382 -0.0643778520554375 1.0181267699622272 -0.504723234289705
Ni 8.486066067061541 4.044427048012547 3.2873986838381866 2.2835281009095447 -1.303094217512401 2.981963903797484
Ni 2.442932721346099 0.07598096342298394 3.8925778497553396 -1.0565274812276126 -0.8852081927229142 -0.5976814690859965
Ni 0.6890719711328357 3.241543725287257 2.049504262776131 1.5001361075941841 -0.3836980660538682 -0.7414765840284973
Ni 7.353787913378741 0.5159890643287731 11.017026554042998 0.04937135134427626 0.1394365808634889 -0.1576695589317478
Ni 1.9525065222922264 5.255435227005592 11.425300136263994 -1.0247514743675965 -0.7731147797590685 1.5520585074950883
Ni 1.7439870520564988 8.618441638435067 8.282107841824837 -0.2705520434557921 0.9558839619719215 1.6426955503573708
Ni 2.64628941167639 6.21280408128659 13.358646587663126 1.6815868281059296 3.7361522789656947 -4.177656971615386
P 5.101328615075972 2.6914376851246673 11.378243055199302 -0.1532076665056523 0.5871499734270533 2.0710066271349232
P 6.1292333577530815 7.908081015409593 6.810219184065218 -1.4118220564381234 -3.622624447548168 -0.22187668973727592
P 4.005388853534924 7.000606402893613 3.1991085163617634 -0.0018373103190549 0.4137221232197843 0.5957726820990579
P 1.207664213292827 6.043540684313485 9.75821103312561 -0.8805578384350964 1.3701545014960081 -2.1552861032102943
P 0.6196406334467671 8.855256931748848 13.284484438445359 -0.0376733461810577 -0.5849534799963668 0.2125458992546533
P 3.976392029148609 8.251296939728629 11.410201136463488 -0.5079674522586155 -1.5974047968403715 -0.6740874559505617
P 7.071956968485813 1.807086642790652 8.880951471593814 0.13680968476360308 -0.5020919673144449 -0.958456350684788
P 7.281670035543716 0.42057141868565184 2.117635906144721 -0.502527769300283 -0.9930996517902703 0.7238352167976502
Ni 4.444149361571821 7.534617831938154 1.229052331587313 0.6329947996753098 0.5564939391040932 -0.7447575687726141
Ni 1.4582058700616132 2.0074214491028983 5.883587342553342 0.1507250092931146 0.40446692317010347 -0.70136120406485
Ni 8.677733086927045 7.204323066868687 2.251207916237617 1.8837184740057946 -0.19484976752647087 -0.09290192763705934
Ni 1.8679979726841525 4.13972533397345 7.276627562619561 -0.09089441028872733 -0.8071129910813842 -1.3219062080125814
Ni 8.82316243941927 3.1563815393241828 8.47335710280258 0.480019818005754 0.08133042074937605 0.29547631750129755
Ni 3.499303800933002 4.380509810370494 8.738546845016828 0.1568997706452588 -0.06111537925408185 -0.2161924948683051
Ni 4.3069236189843805 9.047407074137613 8.35079365514658 0.008138055726102114 1.0909599518738695 0.17854048884348606
Ni 5.794287354273395 8.710329647761187 12.574737665214148 -0.1936989417514793 4.034402559667704 -0.7538464184477598
Ni 3.114728799426559 3.457916304773639 1.8975612819114676 1.125617651157055 -0.9480492964188512 -0.05010488707619113
Ni 5.724016709615544 3.533453932234101 0.7140465636882359 -0.9221701146592441 0.3775117347374983 -0.3837893402160939
Ni 4.490405974926404 2.4655258040515418 6.746691414153587 0.14544679161331078 1.6745080668822776 0.47883942454440764
Ni 7.216164305183909 8.403120560911075 0.4785423322807162 0.6708167556190898 2.0265445401668067 0.015753920400147062
Ni 8.064773753787259 2.265806742131687 1.5722966748783067 -0.8256413889028749 1.1106422607941453 0.3925534595619691
Ni 5.367207043710632 2.128401012721855 3.0864718156101794 0.14355265991439148 -0.09244967059098917 -0.8998040882592182
Ni 1.2319434883343576 1.8174311485828298 9.97293341764038 -0.30338374527383233 0.19676575360226112 -0.8162213811405554
Ni 5.531364498722214 4.0500350584786355 4.780222650939116 -0.10310097965724824 -0.4708018989519117 0.5991999626130519
Ni 0.3948181462986425 9.402094790136436 11.25239342708606 -1.6684955421396104 2.3049338202788303 -1.1883587389400179
Ni 1.5868206641462248 4.269410576001758 13.633167225669768 -0.7982326578726189 -1.9743588593021868 0.18808853754323737
Ni 1.7991009116708667 7.208036479204341 3.5399855592887777 0.8069332709704103 0.9335382472868696 -0.8310980411420719
Ni 3.7693787644265777 7.866684046259578 5.210179908762946 -1.622966704469876 1.6072256395855353 -0.08808959385008054
Ni 7.592744102579914 6.0653475087947974 5.853417761924286 -1.0876727964821655 -0.036881960628013896 1.858360197746664
Ni 3.2368924868770375 8.958351489016493 13.436135651197937 -0.4011219179572705 -0.9276977293456926 -0.6067998864474968
Ni 6.63095136166435 5.0008770222002825 12.304431560748657 1.364277731000257 0.9917199978339243 -0.4794595746269098
Ni 6.98506122523339 6.298004159212273 0.6858464178157693 -0.04346527027248643 -2.927558846684042 0.28836593170876146
P 8.927677945284744 3.3940967667499207 10.949533390244365 1.2410480989139336 -0.018725858544277427 -0.33573207969755087
P 0.827148388280842 8.550633971346782 5.100135965552862 0.9912937089297832 0.3450487291127864 -0.1340352073422595
P 8.841776866050798 4.1476542271493235 5.429339442099199 -0.20089134573486045 -0.17782469372338408 1.714967203338588
P 4.104239510990395 0.5936325376112142 1.137359465868628 0.8498205572522397 0.5821599764116296 0.33915781754964813
P 6.062685598421536 1.8063098575571734 5.369096905345742 0.1516164107591324 1.1587879672614365 -0.7062306163420095
P 2.4662362783504554 2.339553974358888 3.6839428090336557 -0.47366045144662944 -0.3645513179220883 0.174533424566622
P 4.048850934647113 4.932842003336346 13.90627354617204 2.266803846176328 -2.4522649733990476 0.8634422618007322
P 1.2677135010369793 8.671528278049868 2.047799124458739 -1.3974483042149546 -0.20700697171429508 -0.09820405657626312
