# total energy = -340875.5633246628 ev
CRYSTAL
PRIMVEC
9.18333399789988 0.00000000000000 0.00000000000000
0.00000000000000 9.18333399789988 0.00000000000000
0.00000000000000 0.00000000000000 13.44073757155101
PRIMCOORD
 96 1
Ni 7.799129951771814 0.45532438637508615 4.182891947297883 -0.1588880047198812 0.01828234324895561 -0.07163119118374114
Ni 5.871511440112729 1.9347906954078735 0.498652273884894 0.08414526449035187 -0.9531624492757004 -0.9870796708484356
Ni 1.8196225054033162 6.596967265468762 8.901437657290673 -1.807631561043545 1.1604897804438918 0.5382229087090473
Ni 5.894800374795095 8.086494835084357 0.8021605397992243 0.7314343693011468 0.6330400510909484 0.6059133700774855
Ni 3.3887787629648103 6.765077375206696 10.929187568083295 -0.5793682725991054 0.8373100834900548 0.040240335577285534
Ni 2.9136330687748897 1.2763732072684315 8.477852709420791 0.15549774809140962 0.47973776798896095 1.0009340602330246
Ni 6.583789181372076 1.1428383495333014 6.010724353176766 -0.19486930791049667 0.6002643993218243 0.3958876661415246
Ni 5.282887289349465 6.001437247638802 2.1730578025430494 -0.027396389735081846 1.4318545496089665 -0.8401642651093982
Ni 1.0193592423806601 3.556172572661251 5.437020364944432 -0.5211057894127865 0.7951303647982112 -0.1562384829121761
Ni 6.021264065453955 6.236218361238715 11.085745043818699 2.443977793689591 2.3405032327430075 0.36800276680579846
Ni 1.553764990003274 1.3337874105942025 12.232213565228948 1.6197407413334104 0.3691037131794611 -0.9249191381592909
Ni 2.5600563482936316 8.559712029162569 4.951876775175374 2.3849082412209444 -1.6123930427190876 1.1901369138863631
Ni 9.0873404763926 1.325788726797538 2.422652552001056 0.38134422110971095 1.098154669850096 -0.38913106414398146
Ni 0.711112376191842 3.9232579772583462 2.8710756629763794 -0.317177456623815 0.49351965226440175 0.21871371862826203
Ni 7.446251164664318 6.013678631681229 0.8933629834155435 0.4915226764390309 -1.2511489347933613 1.3525185335817997
Ni 7.832437903701209 3.5403405050774976 0.4831553979872232 0.7549818176037836 -0.924949220066278 0.6609504043479714
Ni 7.108910578456885 7.483149800135038 8.780618961958806 1.1462759508373548 0.4306939751874324 0.4823623500960014
Ni 7.172404148801476 5.191154967369118 3.2820399551151995 0.4812205231820744 -1.3535253775797593 -1.1396931554135146
Ni 8.131860504378873 5.072285893816851 12.053559151546892 -1.1811719913835916 1.35335131389574 -0.22918813579702466
Ni 1.8604148744329185 3.8108356040795095 9.653258834173943 0.8594593658935844 0.7511310763991257 2.572210792527777
Ni 0.243338144095587 1.0810987959569807 5.994474443902142 -1.7237773454310508 -0.7837599181777405 -0.04205296330599209
Ni 7.529103202796931 5.087217994681806 7.672537694438841 -0.6662877574004847 0.7361623709044354 0.8447932792409774
Ni 3.414583931126265 6.6030374491537165 6.403678290938987 -0.3509987760486342 -0.39431183701397254 0.7034527964865562
Ni 4.857818314726951 4.102112587618665 3.5165400586988347 -1.618290124929813 0.3974454975469478 0.6955368840735892
P 7.542813920257804 8.494078742027366 6.213464814920695 0.946307631137396 -1.341760009513715 0.07566370938190195
P 0.6085189252490214 2.5320104466690467 0.6381149736300665 0.3847702160721244 -0.6809877826148207 -0.14527015682613045
P 1.289275791349159 2.6154777681706345 8.123407245555876 -2.690023624473903 -1.5231022294720542 -1.993659873623644
P 1.303216092156664 0.545794918282342 3.958888394322271 -2.9799142203573066 1.213788491867032 -0.38489234347228546
P 3.5299357878081277 3.5316255212393406 5.227439237804251 -0.09780964935132187 -0.35765613346415176 -0.31825603439997446
P 0.15259578550591862 8.446068272579648 9.161327842345052 0.1888758093312231 0.5216904582716628 -0.45779854471370834
P 7.233914119031165 2.226352362296853 11.902995637825361 0.017457019134182836 0.8318793993927867 -0.8091994412967676
P 5.9823083631974106 3.9113747432366655 1.6024449244897707 -0.5812757740344634 0.28726164290098916 0.5508357123770513
Ni 6.493259876128082 0.022034491276368282 12.032215246977193 0.13191944655083732 -0.7419005589397932 -0.8129113429307161
Ni 2.5644184318796426 3.2083354358457967 1.506773870614603 -0.6361878526913107 -1.2154769353130486 -0.36397616214490863
Ni 0.5958532711820184 4.767518592829589 0.5936575360548284 0.36224915215147285 -1.1906138535227817 -0.15223296129720876
Ni 1.348398094773873 0.1985243931663757 0.7208228334209958 0.15295312729268498 -0.3502616407722935 1.218800600369643
Ni 3.961965729500528 8.025260364870627 8.728495277272827 0.22260276927002307 -1.2853075829529412 1.9515809421757229
Ni 0.6084225002434359 4.784562860483562 7.794203093153088 0.10005602218333735 -0.6499172864622613 -0.2966803651117278
Ni 6.553686212961668 2.4203962068703553 3.4255194450930477 1.193297571002532 -0.20151046737609812 -0.12599948152197654
Ni 3.0571593937554513 5.373168644579095 1.8854394592158241 -0.2783080332521271 0.7902861493320325 -0.7110576054170077
Ni 3.4455317662522806 3.026082991955322 12.785756462293433 1.101205797971594 -0.5151449438436612 0.038442620246914444
Ni 5.293567506634793 6.597573365503871 4.793302639323155 -0.19756176714099524 -1.1145804195062867 -0.7617196505482494
Ni 5.95057076135898 4.107503204597588 12.87587710918042 -1.3420256044702759 0.5233871292477954 -1.1416021995107692
Ni 8.793602359377548 7.59493852327717 11.123581297677065 0.170970389805712 -0.10473954370193575 -0.14269185457599295
Ni 4.303062299258863 3.207224252448097 9.09075024825678 0.6958952958542725 0.5885954476243281 0.6019736687034472
Ni 4.405355455184289 4.759593375703847 11.140892800346519 -1.8348122352233946 -2.472634538194335 -0.09213779577752519
Ni 5.539460454211702 5.717543664527337 8.914206164696969 -1.288368224156136 -0.18615969595164067 -0.25260754316222944
Ni 4.522957228663147 2.026826067405774 2.288446392560373 -0.779438150873935 0.051629037030201406 -0.11838078863445417
Ni 9.152661530176383 7.089019477304674 7.333212589783121 -1.932506699153091 -0.18502943900193938 -0.6723074812320035
Ni 8.512087259737193 2.983922306179792 9.527198291871771 1.5301164560063583 1.1191109603867888 -1.3398519938577247
Ni 4.124281155569466 8.699895620616164 12.290855580292508 -0.22724669579993764 0.4923971086241843 -0.7589107203445447
Ni 0.4854934747893251 3.3011422078883816 11.803332588718954 -0.7235724500545667 -0.12512453511619095 0.05763359135306848
Ni 6.60585673265036 3.887351141845076 10.429488394137758 -0.6166266427299316 0.5190597055170351 -0.09078590973532107
Ni 7.592670239812444 6.176186907761338 5.326510880209735 0.48167560844162205 1.18328800928533 1.570457064606934
Ni 9.017464489011635 1.0121411419625448 10.629029382363022 -0.4050721608542701 -0.685954896812109 0.6322805472171047
Ni 6.537367428683053 4.090734436959575 5.354790038514498 -1.4313655257876898 -0.45467156904895245 0.22025766607661423
P 0.04422969089537908 6.144440122589042 2.476845241806884 -0.9466675855799761 -0.32553508455989094 -0.2549680729746061
P 7.315526407091965 7.288196805508873 12.774520653309255 -0.016072994302462645 0.6456469412216815 -1.3825145657232578
P 6.561969580108156 2.3554884031105106 8.66080767835196 0.1537000327610385 2.5785045959562884 -0.23691352946574037
P 3.706742514716488 9.070911492107603 6.964613771765027 0.5996442492393221 0.3266373164851342 -2.8447184170480426
P 1.3472593613745776 5.976265729514052 6.02963559260555 -0.6158763948274684 -0.00978793262469927 0.03938261556268056
P 3.5254726875495987 1.0297180429807031 0.40930670037613576 0.4092142080471017 -0.2348651315771439 0.9883341120808269
P 8.383144068934705 5.440170248460226 9.83075706612236 -0.00017380657370292646 -0.23366056974608143 -0.261954017374136
P 3.803544036990472 7.3205037740469505 3.3067578165470044 -0.929726072629631 -1.4678687629200462 -0.5316588823382844
Ni 5.522508019896383 7.695560312439113 6.897571761214889 0.9377232319024946 0.2364684715085218 -0.07234698630384315
Ni 8.448786539403773 8.364988617883034 1.3943551707693127 0.07176308877591511 -0.9915726736227826 -0.7431745405562104
Ni 2.9810020060106313 0.2870012232914779 2.590742458404486 0.3988125530978035 0.26370313885475877 0.22191011407837266
Ni 2.365700270368709 1.5695786909192972 6.111772249030059 2.0827162022623678 0.3855235492983812 0.18897196858945517
Ni 8.05180938307517 0.9060947574863767 8.24030098399372 0.366054384830176 -1.7553839165927383 -0.9358324426376852
Ni 1.3644230123687981 6.810130811149791 0.758046558910548 -0.13540817643038616 1.3705674206637106 -2.972689163363777
Ni 5.547569338014751 1.6983841317138046 10.559312266657926 -0.9551442555924196 -0.7109395917819046 0.10597367321935297
Ni 4.789503494103085 6.267239663035653 12.98950525409577 -0.8518298743727846 -0.18966333822952497 1.0965801262741244
Ni 2.4728146765734103 2.3812017379333126 3.7238097407051223 -0.05412454975854549 0.28798566555120725 -0.0012783524917913468
Ni 1.7607114186575037 8.455297523114261 7.415308839538621 -0.23846416178231186 1.0111907049640263 0.16769917525360797
Ni 5.309720990903831 8.72380902200137 3.42297933494591 0.9869110064810552 0.5630682498875011 -0.19146388177337348
Ni 2.840919431229552 3.869140590790213 7.262702034032064 0.06283827548245952 1.0975556028135163 -0.16345454104464108
Ni 2.477874693533183 5.45058414906346 4.207018402028765 0.4999533237048874 -0.27020725852186367 0.7186896680409688
Ni 4.643819085664181 1.4293950994656996 4.655629771348326 -0.8712219057461512 0.5434589602970059 0.5911441821881109
Ni 1.1200361315457954 5.632891692957126 11.560499527985959 1.2684781701004284 0.7635659597283688 -0.4498654059095607
Ni 0.08134780804548034 7.877335222968594 4.887200391428935 1.0315001059453395 -0.29613220591774164 0.31509563439412186
Ni 4.896314850290232 2.660714870791036 6.809507262780338 0.3457799508518561 1.5893047934410565 -0.747918482999099
Ni 8.02250536471104 2.950715370922916 6.733379261703886 0.729505270599234 -0.3375161681811671 0.6319411615998148
Ni 8.041303649133283 1.0875363129965465 0.022722322982878237 2.0253566905062925 -0.16483290944940646 0.83129010254822
Ni 2.12368268968295 8.893783348513958 10.160552625226073 -0.54712201097089 -0.2943450321103318 0.7050869896558696
Ni 5.355858060243031 0.7918109225330465 8.082977618213953 -0.03274839807561456 -1.869665081236522 1.2898172978978366
Ni 1.7081000989432777 7.454102915119137 2.7972058436974017 -0.5023951003771605 0.877791845654185 1.817387097768412
Ni 7.441080947698161 7.4277008302564385 3.21889535145749 -0.4296819889831503 0.0371418991576199 0.5974775806053065
Ni 3.5565031726804017 7.871118105941795 0.964791872553128 -0.4353810962504567 -0.4580050042975596 0.6754591394871077
P 3.3658020616338633 5.386833445370642 9.066341865176236 2.0271811453095414 -1.3530355824275342 0.6273843954670678
P 3.220328869873861 2.2736740817046734 10.843019428091926 -0.474905379597324 -0.36405098124690205 -1.653596513540591
P 8.244934894262144 3.5804165740656075 4.18329509565457 1.4561368191950985 -1.2592790200996635 1.6075102607054896
P 5.676264578802875 8.604076715065766 10.030096939335975 -0.6568098998170365 -0.1601329328705758 0.1914317429838574
P 1.7756986195256512 8.296692163926899 12.274135484323981 0.051826497752988164 -1.359177433659214 -0.09799116923450865
P 2.638123869482431 4.990012405717749 13.023389001058517 0.8239223493292391 1.359073818201814 0.23428766180711907
P 5.4654703332590895 5.258000454574539 6.846738334936982 -0.16530239288665724 0.6100883273907814 -1.2449147809581915
P 6.825007812011555 0.520449835147538 2.1897108601743596 0.5042558077349831 0.16561632458265027 -0.7203747690528756
