# total energy = -340867.91577325837 ev
CRYSTAL
PRIMVEC
9.26715875692428 0.00000000000000 0.00000000000000
0.00000000000000 9.26715875692428 0.00000000000000
0.00000000000000 0.00000000000000 13.56342357952209
PRIMCOORD
 96 1
Ni 4.791565876767131 8.517677249469275 1.4032720939579333 0.2961121513130836 -1.3389842465407906 -0.050879303348370444
Ni 7.94093562714291 1.2073810397109794 0.016963534018934866 0.760549027278916 0.22853507559405803 1.739891991604726
Ni 5.287692485473876 4.73326618132156 2.1642744863500103 -1.7490682587873556 -2.230185423622346 -0.1573103758201162
Ni 6.8436391657498366 1.983755794971458 11.735399709059399 -1.9565305728715143 0.46300477150499614 -0.9754387441753974
Ni 5.324724051679647 5.433325884603929 11.070520920388383 0.5743379092640496 -0.5771303844075222 0.7275674301465728
Ni 5.3510705838926125 4.336993207716712 7.455216964383537 1.8355115752832647 0.5713088926297387 -1.3899077728635352
Ni 0.6465464953105917 9.074438877616549 1.0356856101403638 -0.5806203998386517 -0.7577791778432627 -0.08147131720261452
Ni 7.199210778299692 5.838448994776972 6.600029657872564 -0.7533512239788961 1.0219564281209628 -0.925891015154257
Ni 0.4864748629101209 4.991319482764477 8.44154939409711 1.1050899635173483 0.34098870011079985 0.5950628005162268
Ni 8.458024548852022 6.111950649789715 12.98750683685319 1.4308438489562647 -0.6256046778588258 0.0016259656391971998
Ni 5.36494352048171 1.0423422102418665 13.477214084721412 -0.11800952133796451 1.4062972699651521 -0.13912650582223782
Ni 2.6699981646169895 4.313436090275503 6.408907483497853 1.1853150670176877 0.7506582505277654 -0.6337216505390054
Ni 7.317932348535462 7.934439348887092 0.20020398991065896 -1.0496042717452183 1.220184625201363 -0.03219432534435746
Ni 0.7146990338967981 5.099439423435831 2.321366727225167 -0.15773820738615413 0.3256258445014844 -1.2374202723533594
Ni 2.584851510388105 1.6376830200995083 6.780965371393073 0.3588766361348142 0.44767739711930643 -0.9617108530663437
Ni 4.502022770027114 2.921379111788597 5.789045771693148 0.34907507666336013 -0.9088345738926024 0.2813838439639735
Ni 6.638807156779327 2.884764567724783 1.4109897837317484 -0.6822507084876444 0.05996506769972254 -0.7661018387763452
Ni 4.422371540913351 1.7571552301907996 2.078092690493201 0.037874406448270254 0.2903431100397903 1.976107209451861
Ni 1.2640589823822743 6.024107252376176 5.555890545556799 0.08506289120861478 1.240273425531438 -0.6023696185902851
Ni 5.26606293704438 9.124064512509419 3.5795364302471393 0.4011355448040253 1.730046466269214 0.08808522297470636
Ni 8.867456887825284 3.087103711002261 11.990175216466534 0.6977364628280693 -1.5601649386523067 0.6376515817210308
Ni 3.543715154968914 3.7010622427086 8.470818788167257 -1.8657701170574899 -0.512431144456924 2.3691229533622296
Ni 7.039732244056671 2.5997067658004798 5.318353806782288 -0.6940181334362178 -0.20955596338839394 1.0766818446883006
Ni 1.1056647057083413 3.0878265493816532 9.690740147044815 -0.28281517709386134 -0.5890700732679016 -0.30572164937838964
P 4.673113054133957 3.463822979728686 0.2979243250774792 -1.611128317074051 -1.7538476824538698 0.4161824118348187
P 7.831953840711512 1.9053000293313036 9.889837638205481 1.7129823116980756 1.5354882618412329 0.7993390035629201
P 6.499790508968323 0.7911744077205929 1.8442998838375935 0.6272494125511004 -1.493217783207796 0.5515201400385856
P 2.5989653931036676 9.249254559524873 2.100689730292038 0.560012493780313 0.01709192248528024 -0.03512795405138466
P 7.305190005309001 4.511280661578557 11.556878090382884 -0.10827995275502642 0.5440670261946501 -0.8453046716597572
P 5.851895642065404 6.585947283496615 2.6639782183188743 -0.6859500117161025 3.399474547525423 2.361364649573049
P 4.0517315283007855 0.5951146911851142 11.72867175183583 -1.088017581416094 1.0263293603776775 -0.870795873952326
P 3.1553285334264065 5.99590728842118 7.700212839203849 0.12097503172419166 0.12398167976099937 -0.3382389052798046
Ni 0.9019086138640806 3.077021042325615 6.533013272944222 -1.3517479739643623 -0.4037876377148917 -0.7729229754632365
Ni 1.6392121012866838 0.054683650116870174 11.343362753700962 1.0223477500221103 0.3230956218804629 0.654709308534266
Ni 5.819905410197957 5.178858973581841 4.591883627891854 -0.4031698016252347 -1.8314086088584847 0.11313470974416644
Ni 2.075463597567131 2.8464448664583006 11.866571707022258 -0.2735594628235482 0.2772978468200579 0.06734079133850338
Ni 2.983682219796955 3.348761937183428 3.967043598428053 0.9448019931261471 -1.0838930177247592 1.1502994701744513
Ni 7.27847278674763 5.369401023821295 8.82041679021255 1.0093078861190166 1.2071517032768049 0.8298369150414612
Ni 0.26862434938358876 0.7057089632320788 9.469751773579025 0.37504913212961866 -0.6790412004114111 -1.4000836849552725
Ni 8.116381475843523 9.197729157096424 11.69133158924501 0.8005631057780084 0.05628710462750306 -0.9750463938329853
Ni 7.530057611410861 0.4147516880728926 4.488191535652211 -0.26149996055585284 -1.9032424029713353 2.3740967524277368
Ni 3.119297820361332 6.620291373676441 1.3752500594501729 0.8372020971572807 -1.2802710489702984 0.03383648893347076
Ni 8.432632533986201 1.6683480482714044 3.0139552471554114 -0.14798524176444836 1.646584858109448 -2.4993948370073147
Ni 5.9389605981472915 7.390911223377915 4.853752218575741 1.0315620695315266 0.8146056999140036 0.7421062471926961
Ni 0.16602670858761512 5.0834721089782375 11.067183816536856 0.869623708021096 1.4974035391543696 -1.4962218601414425
Ni 2.9345106756808836 8.75316501945297 13.460314494097577 1.658983231773801 2.3680451469170185 -0.17849420898658294
Ni 7.970127177079892 8.34155489818282 7.496124056361894 -0.36469684236101707 -0.16211448207697887 -0.9902812085048688
Ni 3.007165199968482 1.946483282639223 0.32344330001762717 -0.8503229508099549 -0.21906904508515176 -0.6640892070872692
Ni 0.0576611882104423 4.215463688391766 4.3199638768709345 2.3978084942223803 -1.2854497649577603 2.3600595576083805
Ni 7.287220984570014 5.79098260786357 1.4398254747742603 1.6918522145876798 -1.012572158692585 0.6430969211063182
Ni 7.34513145934976 7.005944183399454 11.122657955291704 0.24218609071858938 -0.7654963439818623 -0.20763689198881013
Ni 9.244417102678176 7.187663898546842 9.0525137068242 0.3225572328784896 0.5290463844161017 1.644942437410019
Ni 4.728058038126453 1.748036346020009 9.691988433323074 -0.8883693640597151 0.316323593263952 -0.7939617984114068
Ni 8.918843282873082 1.139712246809443 6.5572645005728205 0.11459329656756394 -1.1336742029129443 -0.7670001822208984
Ni 1.7737249099645531 7.0426328647329495 13.203803247864029 -3.5508359048509557 -2.214192647738516 -1.5581407091334263
Ni 1.7613439859277888 8.486233779965726 5.593650510437187 -0.9334096921288053 -0.9694874116879689 1.6943628968246756
P 5.832314135710852 2.078790507544076 7.446387215564504 0.35453867088109264 2.5861109475486366 1.1122597417929103
P 2.412352618157319 4.714370444711558 10.468575406518015 0.5833354847769695 0.03130600920213319 0.7692822933868557
P 1.3127300999279974 8.50658446049322 7.764666854748834 -0.8892494526718234 0.1812206067788105 0.4760556911516834
P 4.740577969543869 6.930296366848476 13.363443957384478 -0.2463037124313887 0.0524024248611162 -1.0204582463088814
P 8.699452567568924 7.896823951682582 5.4802195611090445 0.339891353281563 0.2966546540801149 -0.991243572418138
P 0.34509601634389936 7.591517407976595 11.452561391646176 -0.07795970450493026 -1.2923773453155292 -0.2008178121844477
P 2.557226110273139 1.6013742922731296 8.925858522016668 0.09025369138093489 -0.144449460697048 0.27331726490575514
P 6.655858728806008 7.553447919995287 9.216509054222549 0.20304772995623094 -0.9079863669596943 0.015620223035760198
Ni 3.3479371600582244 7.594380960018031 3.41551420808853 -0.1017264679072248 -0.074952028026858 1.2901741670166234
Ni 7.642894535865683 8.156693616232689 2.6655656826059233 -0.9444386962494573 -0.350794373347312 -0.5497267955835887
Ni 3.352644876682982 6.8484580882791155 11.282286617505829 0.7928557098314216 0.17883873681019524 0.9989903062430924
Ni 0.54352163849808 8.9671437140704 3.3957519921391293 0.4513995831659 -0.1372460009700733 1.2717594119548612
Ni 4.825094456980464 6.0641043093691955 9.059837542352833 -0.689182145500155 0.07508598250156101 -0.2958424425914647
Ni 8.00092194547373 6.183409710603704 4.199507494524625 0.3313560621170422 0.6747230326520315 0.11770227451019084
Ni 4.50296802021555 3.0708398474659426 11.542785522132355 -0.05692473821150197 0.16471541003493567 1.137138764422777
Ni 1.3877384825279748 2.6361637681662216 2.5574374014917303 -1.9538080317340287 -1.2794400684285707 -1.1370613742176223
Ni 6.0047944936242175 4.8732373464797085 13.247097559926122 0.7228332578956972 1.2714922743364039 0.2884500067821355
Ni 1.02921064634958 4.538211024790262 13.426555161632361 -0.16318817475713185 -0.3749072072351156 0.4083523742674387
Ni 5.757935919903164 8.62584352593418 11.91704065335775 0.15837378408762404 -1.4184902124869183 -0.0173199793356863
Ni 8.329720736509953 3.03855306651977 7.949115748136362 -1.4031726082932414 -0.22330210932989283 0.6972950044152766
Ni 2.504125290863963 7.476928990525554 9.359196423598645 -0.6880747713685891 -0.25402113568030443 -1.6361263817802854
Ni 4.736083397569446 8.802558975378085 9.681069866930772 -1.398948800019881 -2.412934294120225 0.4462530059679541
Ni 3.9387185278304706 6.296876801850815 5.513911243315677 -1.24084112510945 0.19747306408193088 0.9378078211965011
Ni 3.4280517471074963 5.097243106821525 12.859196537500026 -0.06595908049962834 -0.6238128760657257 0.43340494636069227
Ni 5.4745091379118485 7.603008684777184 7.438168172504469 -0.051126386362170005 -0.7031938863982148 -0.8841478697792
Ni 5.854147561631971 0.3522511895840085 6.399603256152861 0.629054069860007 -0.320378480059616 -1.5157586446227895
Ni 7.404654419745071 3.9294143004854774 3.4620909477657587 -1.4539205282700705 0.040849172805878034 -1.9483516366051477
Ni 6.719996734238977 0.42350451947463197 9.014115234708681 -0.06152958397336499 0.5739758979389405 -1.1978677068717176
Ni 2.864951382402476 4.004811903751281 1.6258071562124476 1.2728575301150467 1.5274602493304341 -0.7877847230664174
Ni 6.28861049628136 3.4849243001117047 9.55465840839732 -0.2939385407005325 -0.52856301702178 0.751715488147686
Ni 3.5280073209552048 8.960239680831336 7.5282421750195425 -0.23174201256712992 -0.40312557865086057 0.3691497359260481
Ni 2.689357259162499 0.6685837987233353 4.22023164154814 0.9925828600548517 2.2318612686628723 -1.1172751927296307
P 9.14967893918428 6.9326038893673045 1.5122131048910066 0.5771717791684188 1.0921280040400416 -0.6563496723511664
P 0.7039843449961194 1.899739734105212 4.528935525637269 0.3198403481679588 -0.47776136098888045 1.1731421791005796
P 9.006260390985956 4.860856422442945 6.533338550214948 -0.5423068489704338 -0.6470649046151307 -1.1879355353596703
P 5.173243075403488 3.0279699712727752 3.7630771420810722 1.1710109916901896 0.40306027263056393 0.1921151422041272
P 0.9258299306425983 1.500371529491173 13.352430865973332 -0.39237708188510484 0.6985648722666356 -1.5609141581135053
P 2.41601314584783 5.29216852313088 3.6876239358630074 -0.11061117199136433 2.2852831359274384 -0.1439259840934102
P 4.123959763287718 8.647343334141734 5.4304827203116535 -0.47301896120788856 -0.6069670081529805 -0.15645856934278216
P 8.647547211633357 3.4601531848794655 1.2174043985718808 1.491517769797554 0.3399276058361371 0.5679790569255573
