# total energy = -340862.7923641073 ev
CRYSTAL
PRIMVEC
9.34913428747328 0.00000000000000 0.00000000000000
0.00000000000000 9.34913428747328 0.00000000000000
0.00000000000000 0.00000000000000 13.68340305469613
PRIMCOORD
 96 1
Ni 8.118788035659165 8.843560956995422 3.82399123589883 -1.4007069203615683 1.5894531460934627 -1.3587609149470858
Ni 4.111272362843255 8.595425589360197 3.1903676972821247 0.4377028024050978 4.23894487189159 1.9954897277435313
Ni 3.1287064183664337 8.781351818822603 0.45119669004069535 1.5919286042171488 0.6100608165869558 -0.5416429901341898
Ni 9.488810143841448 6.016747427228101 13.199995662836246 -1.6138346602616207 0.8975731420461703 0.7430012482031397
Ni 8.134747007534878 3.4834780093258515 5.919262136342075 1.1872040565102846 0.12494532922584933 -2.1978070072916407
Ni 8.899870791563334 7.947904562932567 5.660016257765374 -0.8641930239238278 -1.3571791722822626 1.7684330364672125
Ni 0.3945549612129189 3.172974568238435 2.898391435202385 0.37065383127540036 0.6725494220394803 2.4355715719037665
Ni 4.640321162200556 4.981125146843444 9.594432921031295 -0.49267273088307406 -1.1361224073431209 0.039305225357525855
Ni 0.3732314562017128 5.481602992450199 9.525276441323125 1.3880156980471452 0.030583529213811845 -0.8404661126205332
Ni 6.007071073454601 7.941743483573401 7.221156169565063 -0.5062209018811539 0.7453656346702582 0.3825325849908573
Ni 1.680450756197053 2.025574040785213 1.3647248888121715 1.6044161951611982 -0.6767202655877184 -0.43443647294900023
Ni 1.5371472290084494 8.993586511588033 2.2503309637383 0.7157627242021608 0.1001624658542146 0.3614472250754679
Ni 9.2898886180069 2.1775255169984424 13.07709101129827 -1.1322834932130048 0.7199487372590504 -0.12057548229292783
Ni 6.6493565847970535 7.071413893735097 5.008618145434488 -0.5914768829371814 0.6297287273295283 -0.7159884670597219
Ni 7.897157463142656 4.15725140425202 12.616439541961787 0.04435718595913651 0.11676279341505699 0.9888113088275616
Ni 1.712125622462384 3.0582045982640547 10.902744199887257 -0.7221161772240143 -0.08694853826710187 0.12847468253534647
Ni 7.512711720611173 2.6368765217843033 3.51703111662799 -0.10776650345371763 0.36105204651957823 0.934178709084346
Ni 0.9017912958465952 0.1765191307504302 13.490493826817833 0.5577589218594459 -1.3355574802474288 -1.4645404698777618
Ni 8.590349009554389 8.15673617089263 1.483883342324021 -0.32083742197390547 -1.7207246746476559 -0.8002543162883379
Ni 5.113013381319542 0.8950010197638 13.194741449482907 -0.6230055496730819 -0.16919170063873443 -0.6795857600609715
Ni 3.492986078685899 3.9559271509587397 5.563247110549928 -0.8714949569018796 0.5250442052352442 -0.09890313952581677
Ni 1.1384440570039343 4.584871447968066 6.271404750798007 0.01419943142883361 -0.28736037326238256 0.3197022799281978
Ni 2.8779813405908605 3.3340040536440014 3.0082549796112263 0.7324219300253967 -1.7971468594621374 -0.08315693243515355
Ni 6.094691158058699 0.7942472716031694 1.6027641265536747 1.4712914154483498 -0.9442695176614447 1.7942001181289875
P 0.3650341354397759 0.9434772148855141 3.581233490186809 0.022632392687535214 0.9647722656004869 1.096683741731524
P 8.751471986300762 3.93242342787992 10.732234692523885 0.1361432548241978 -0.5403674658558758 -1.179971286207271
P 6.224868500998034 5.699905273233988 8.379305396470839 1.5426580401167949 0.978430736924186 3.031983173138404
P 2.6083336154359995 5.429612457827559 10.422962532394896 -1.9317790769584473 0.016731968042700215 -0.4686622269010896
P 7.189998310414394 0.6440506278568829 9.668186369966932 -0.08566710045151697 -1.9264322108242373 -2.5549193524371803
P 7.691953319205895 7.3418188987504935 13.201117558925928 -0.5773394150945348 -0.7961608629452547 -0.33780233196301823
P 1.4147016199538338 7.296400805386569 0.7910825897168605 0.19095197513396145 0.32005529239224234 0.482721018987001
P 8.546894234347407 5.202138676510628 2.0043449620282217 0.3917793004001059 -0.5960765864927219 0.0336516266161743
Ni 4.072669788224143 0.0029935927326325018 6.019780286323873 1.7643041019005035 0.9750669626582754 -0.6509272157840144
Ni 5.854867170621194 1.136200264824572 3.9930357339517593 -0.9146087573722184 -0.7560596240489947 1.3915993016333454
Ni 3.61122457740421 6.424696892838405 0.4335165425807287 0.524478048319129 -0.9617116243972921 -2.587163300072551
Ni 6.412440178058639 3.659484807528661 7.155133519600735 -1.889976281990048 0.03316260279489772 0.917665027700039
Ni 6.960776241024376 8.397223946849863 11.329391933658915 -0.13428563279016872 -0.29384778075893914 1.0056929150742486
Ni 8.815270477267296 3.4940144834347735 8.302787408587545 1.4567662252489813 0.31449271070280027 -0.8399207816400244
Ni 5.25691525308931 0.3907049877984965 10.708672069900357 -1.2069038489320567 0.8382449365994983 -0.948502839016502
Ni 3.0758183668720487 0.8498877081709054 11.714703406006267 -1.0898258382694261 0.7849146006074741 0.5918188396576324
Ni 0.40953788349061054 1.8694715490401634 5.720797783164074 0.21187381288829318 -0.735521909106959 -0.340385262198846
Ni 8.051567761619104 3.067656572819619 1.3267730139250746 -2.207323431422508 1.9136242604262916 -1.7105698456018412
Ni 5.166939186696882 3.714775586481779 3.810471453104764 0.8435126127563407 -0.25510254166994134 0.47188021961775506
Ni 4.370860419727308 3.667487666301719 13.059850273140095 -1.6691241768625449 0.757757837687024 -0.5864673455377319
Ni 3.594611166142849 7.276814369487552 6.520675103310627 -1.5277492413257623 0.4583526174449654 0.8712365610341705
Ni 2.3170519940184535 3.889034096611502 8.660732095653943 -0.03059895583277956 -0.4110232362313824 -0.2471663175420001
Ni 1.9112808766489473 5.146389789987556 3.7206131858017537 -0.7480213271255504 1.480247339090057 0.8901537096536476
Ni 8.991576447760687 1.0745801220988356 1.5776009321755349 -1.749801023188322 -0.3771777484368472 1.0693071494907842
Ni 5.1467544062167025 7.299336433487902 9.906509821384487 1.5492536910564416 -0.34908664662758593 -0.14532697820599488
Ni 7.081613799017115 1.3790814191064575 7.229612461341034 0.06680805876348495 0.05831107703606732 0.8364580199024045
Ni 4.689207784308412 2.6267140130386086 8.426827979916323 0.11901070890896921 -0.7738323746513834 -1.3565988742987605
Ni 0.4265289997688313 7.225188451094059 3.453868366778942 1.8083013334170597 0.7650232610001857 -1.4778467000683646
Ni 0.10681385687172497 0.9551168868159557 9.625315915639991 0.5144993398398623 -0.225281858764083 2.33132619422943
Ni 7.438797466569347 7.685764192444489 9.138132538695958 0.7486039391018978 -0.3906490434504047 -1.29311113815776
Ni 7.644590605953191 5.660900685849406 6.808834113945227 1.6939011266969086 1.1495469082791427 0.5936600066314293
Ni 2.6903348704576096 1.6814324152755242 6.567034654476476 -0.19908128910931522 1.6227106225950119 1.294820407539383
P 0.10797875897817721 6.986757484634574 7.719478104852814 -0.671911017124533 -0.07942780441002449 0.1351045291470383
P 6.927353086685959 9.260233164702997 5.695374682858492 0.0503969643953132 -0.12389040559877373 -0.054726702118918655
P 6.949557280127564 5.006835265565304 4.65818642251532 -0.7138143422265384 -2.0076824131549813 -0.11562559448682022
P 1.9434605961546345 2.5728256041975914 13.009481813280454 2.282760883726217 0.7746504996773046 -0.4960043663594684
P 3.6141228089692197 1.017204486245726 1.9207122831095333 0.7006862894850125 0.8234600649808399 0.335790443739312
P 6.817248334617835 2.2555066443653624 13.225706716471514 -0.5016826476911682 0.9926314539046001 0.7788938483346908
P 3.666431214150603 4.655120841450266 1.6080594760969698 1.5474377208936254 0.0367156102534787 -0.14480015916824737
P 0.8558103846110137 1.8171631438587805 7.90123462051524 1.0979476960456123 0.5075535046496484 -1.3134825027252606
Ni 5.829820840419063 5.896657799961816 2.8503892411785614 0.5131230283176259 0.3367754333604006 0.06838980142830801
Ni 3.198422911206036 6.97522065317902 2.4482203451703395 -2.967923109433701 -3.3995743063280806 0.20093248338544106
Ni 2.0380083891125125 4.999197023021391 12.58723939148761 1.3183457443548325 -1.2729349203202012 -0.7933012820092725
Ni 2.742951797063655 0.9409435995496507 9.147751862751566 -0.021963648755284754 0.7925440921282738 -0.021668229002053004
Ni 5.904230598567164 3.6599616133667747 11.298686572597749 -0.44638978865613443 -1.8573883207516981 -0.4160700546266705
Ni 8.989585082201502 5.775904384175804 4.7373988308406645 -0.6849354544086591 -2.8724979011541563 0.6727587098368091
Ni 6.202168803450151 5.712919267874289 12.03529175802651 0.8319848146223994 2.1779071830439203 -0.38406290559245465
Ni 5.150092047083504 5.707739847593594 6.733534318232644 -1.1184445304473836 -1.3382864491428177 -2.3982756636667855
Ni 0.9300097872422999 4.240683076787974 0.8278639530170566 -0.18235652015546658 -0.20883322628975648 0.41393346789964197
Ni 2.4468834189968027 1.0770295952279727 4.282809340042093 0.28280952066690646 0.1616146596224249 -1.0980312568983541
Ni 7.025790119421398 2.773663702518676 9.401537847025152 -1.3789723568979542 0.4060972596846748 -0.786714372820374
Ni 3.969922804677512 6.210592373256841 11.798814760589888 0.9081079801392231 0.5995696872476448 0.04091704992933598
Ni 5.14132255931583 2.736902907313458 1.2518238107405182 -0.336102318552776 1.3255175795129237 1.242050829146835
Ni 3.0399176920022524 8.043368571030351 10.388562393545048 -0.2515464488875668 0.35204341526306465 0.5356242947439356
Ni 5.852539236235106 7.846905867459022 0.9936829998121529 0.19688376723736414 -1.0742243842867434 -0.5333694372714879
Ni 2.0363068467098295 7.83206879167299 8.389813823177517 -0.7977166374681488 0.0019792352135578816 -1.0717329853234574
Ni 8.595014227460647 6.836703882639722 10.987731568334237 0.8805745506056447 -0.14203159528417475 1.5503278979572268
Ni 6.0237779760567705 5.3515752356561554 0.6188958476994156 0.1013837398558254 -0.8426348381370778 0.08690251552051485
Ni 7.634839459107045 0.1850137539761325 13.39885641929927 0.14166495597337536 0.5201969044452719 0.007248454032297194
Ni 1.5372500694833366 8.847870907806614 5.906413621375002 1.2281396183823818 0.6851496273019942 0.7956895797357909
Ni 1.859552117780566 7.5053072064192765 12.257578639755481 1.169127915734864 -1.821625561329792 2.285955993624747
Ni 8.972999718342383 9.165797561354086 7.692877013653066 -0.1669278443052222 -0.03058430054476023 -0.5925505756173343
Ni 7.829684762482417 1.7270468404551431 11.264135912689202 0.33705156983992274 0.8730862126483995 2.4462380504786774
Ni 4.217319590720364 6.112220784459966 4.54386147132318 -0.39121417192525526 -0.22005712003003391 -0.30836474342819153
P 5.009434324839732 8.0960322433068 12.6589126580903 -1.102057861559244 -0.07028367601691121 -1.1827349649953371
P 4.229211689270984 8.745441794818726 8.606887627743106 -0.5233809586002083 0.1671949819236798 -1.3678279102453603
P 6.128067566726712 8.184194577687576 3.0951037606536675 1.3431314359399449 -0.04517171144063188 0.06461079400185002
P 3.8600143844250834 2.8080030719969997 10.280655622899292 -0.04112119552034208 -0.5855510043710497 1.6291934021058778
P 2.9760911536334764 5.3643555019444396 7.245197467853521 -0.3357688464727572 -0.26131792645203383 -0.5179875554987788
P 4.8281639641495016 2.3417711045277607 5.89524795054245 0.671412994442192 -0.7952391224619336 -0.015193934131618994
P 2.4520628392774975 7.479578389429256 4.560021449581629 0.008301577887159897 -0.46537635706096625 -0.6631777510165934
P 0.7828254344968073 8.74826523331109 11.21257730806109 -1.4695402370851982 2.0858575761048272 -1.755205482033345
