# total energy = -381171.53854969214 ev
CRYSTAL
PRIMVEC
9.22871022405131 0.00000000000000 0.00000000000000

0.00000000000000 9.22871022405131 0.00000000000000

0.00000000000000 0.00000000000000 13.50715026522173

PRIMCOORD
 96 1
Ni 7.003548259567854 6.872519030987915 13.2121003463688 -0.11565464795254274 -1.1710809256961765 0.487443878383967
Ni 5.151032329875958 2.097805820269879 5.933272579291466 -0.6978516482496949 0.18547526829010638 0.03363285756309691
Ni 3.81792667226014 0.7532980911009886 0.6700154409056127 -0.21187304155734477 -0.3872598152631976 1.9616964333431697
Ni 3.735643491388275 0.22302470415229222 7.258729481825791 -0.8776933724031079 0.035487137163016304 1.3928935949647367
Ni 0.9999861312866531 3.760081116214284 12.475136149595436 0.354537385329512 -1.366873516751891 0.6427238540376157
Ni 3.337950679217876 2.3950348923134133 2.594925988402504 0.709998568024874 -1.0031619211222789 0.1521627701809057
Ni 7.023223869888493 1.2399971995834895 11.09059981245059 0.7883346820326165 -0.5640110734167447 0.38030575254286764
Ni 3.8322680880379414 4.468606119383481 6.141511966701406 -1.1967819300067064 -0.23804224375354488 -0.45879433296807437
Ni 7.9765404132804605 3.5929122581711077 2.2074059835756517 0.17214872638452933 -1.734971671484973 -0.9177113075569421
Ni 1.22780607330133 4.024815899355863 10.047307035295912 -0.5863331339527127 0.8775861574012821 1.000945115976618
Ni 5.147036298323971 7.677077993348748 1.2336284666180708 0.10035915524605296 -0.4837875125783023 -2.140144876693482
Ni 7.896001458651841 8.991264794887028 4.058709260736529 -0.23748945657386838 1.1182344713191066 0.6836758709699452
Ni 1.9776110975606855 6.743132512838122 2.954729407640251 -1.2663050737085093 -0.9622225025954396 0.29388891840951964
Ni 6.6035759559578695 5.412444777316116 1.9127203440857603 -1.0457980106252507 0.07771236438081454 -0.617359150020582
Ni 5.893980422395992 0.5055533635880662 2.1297537695231563 -2.1631259109696876 -0.2959619988884645 -0.12265781874325325
Ni 1.3582723505540841 0.9928800243697246 3.0432825742775202 -1.382462886549716 0.5246045465946643 0.7291887678000796
Ni 0.7090261221374947 1.1046489345917025 5.6051836229368694 -2.7923920968405005 1.1262398581220863 0.6341551385319981
Ni 8.53468358240894 1.4921071070596679 7.866699380636335 0.5498764337875756 0.20499148394616307 0.4027383705147709
Ni 1.9598458302683637 3.1840896214009478 4.451443486872556 -0.7592164245104216 -0.32625807876884455 1.564560496616841
Ni 3.693080679568957 1.8724499439004227 8.920621786293504 -0.21446831308834677 0.5221182898377008 0.8950182368348005
Ni 4.131158327932186 5.87749794583283 2.532401476243814 0.04409647609858212 -0.743435764637397 0.01360679215015721
Ni 1.3618623188536754 8.276233550969216 4.806978627605004 -0.5828914552610155 -1.8495171455337371 -0.47679616886213366
Ni 4.971312425849636 3.968926829889733 4.056966880235339 -0.2083182343265509 0.5027529979372115 0.23970111951320655
Ni 5.892125451629365 3.0990931997062554 10.263353911604192 -0.9524795642760627 1.5333329060611272 1.4178428087109067
P 2.5849156063599166 4.380868770735116 2.88365541827657 -0.2617092483531815 1.1504100276103864 -0.6773080197703883
Ni 0.48988301352969627 1.0703919620259374 11.592079623320302 1.528176558671168 0.8152685303089829 0.8336935697833899
P 0.36829844705207493 8.29941607119691 2.516166329116202 0.6461431641318098 -0.3350139705846037 -0.08180838882705911
Ni 5.103928992598031 4.210312976018547 8.075019980696753 0.13496954623107077 -0.582368749988326 -0.05918962298627871
P 5.230583812504432 0.6005666274225435 9.95476983443002 -0.5276263641401235 -0.9246548287543107 0.6139089866884524
P 1.2059986309056125 8.218378766213078 11.016756287131361 -0.9419791789653713 0.40878869047390887 0.24637133244453052
P 0.04724269080318124 8.020782850371052 6.503287561326357 1.3868353045857986 0.731584778836082 -2.3509529673214216
Ni 7.660355570318262 7.392575312783713 2.000003640188264 -0.07775273070044673 1.4240026576647153 -0.6301506453582953
Ni 8.247559948123893 2.976037576809727 9.879939759981676 0.47851083756039525 -1.9649411655327125 -0.7686382320449536
Ni 6.439664832644142 7.755946551416375 11.129472985899273 -0.9301006823602304 2.2617778537166466 0.31749653052613064
Ni 8.678079282766392 0.033464226352565005 9.944842510779969 -0.07858371124217432 -0.627418591139113 -0.49542843925134034
Ni 6.140590018544263 3.554327020483213 13.31514627963249 2.0782782210956725 -0.4362203043223003 -1.4981810407503424
Ni 3.514957342421372 7.0550444629398825 4.931312426875552 -0.23570948185531018 -1.043489417096732 -1.5285655665794706
Ni 1.4335324829015559 5.47782096095186 5.463749946385313 0.6517013749458775 0.41720622511364275 -0.04503210053897406
Ni 8.183023577123787 7.883505784930385 8.146270238426816 0.08544470002806576 1.1688114129357094 1.4882864073444497
Ni 8.768419127714202 4.538938120440512 4.231993062212376 -0.42626345021990464 -0.9677925404840493 0.6994436753271631
Ni 3.133590118739346 8.593987274679307 2.394614985995595 0.7914086929722499 0.8185492579427838 1.7228805446483944
Ni 6.505806999233269 1.9589691027915999 3.831235395357416 -0.5784411327991458 0.4475465279683969 -0.17147895401101437
Ni 0.33233600882624675 7.238354335265797 0.09948641970802956 0.8474147760242244 -0.28982477564247505 1.6831040360814045
Ni 2.7731905248173994 0.6908944750469885 4.98581349831531 2.6115304160630055 1.3574352541571266 0.2042970289822998
Ni 5.461864520874756 5.593548987884698 9.928457858545793 0.3370687962311034 0.5461110532078723 1.048838083003155
Ni 2.144909157547806 5.31271933401179 0.8682841297271762 0.24274222033237552 -1.2979106164289325 -0.09863574479704303
Ni 2.963809535686441 8.686772727851777 9.931483029776143 0.7511531878863128 2.398485722795063 -2.076845602414204
Ni 2.4938651507204126 7.342952537598875 6.949240068172984 -1.4157787270930262 -0.06521011814874576 0.25700232979581544
Ni 5.550663171205519 3.1990585894779064 1.9394106970915388 0.11538571056187226 -0.7041994448445936 0.8610369947933493
Ni 5.110389089795239 1.0745264242321504 12.472988628712878 -1.0335230499126393 -0.23116120036299545 -2.7451971843222527
Ni 1.6291349973227287 5.730429218783252 11.961742996623045 3.452819795915782 0.29529248362526567 0.2855624008216953
Ni 6.369868096783452 7.234533649209162 5.503434323467761 1.9261059378330698 -0.5213536437575343 0.7963467537038156
Ni 9.046157163642732 6.564529282755887 11.54275124399345 -3.0567315837276774 2.8290621985680247 -1.3691957371271644
Ni 5.855330583736125 8.394868621640796 8.055420968671452 -0.7222221066742593 0.21119169921960404 0.8508155741756573
Ni 1.1862491909027197 6.638220534355466 9.517084406253765 0.0689022222883523 0.14545244804026564 -0.29051511684128034
Ni 8.177107973833202 8.989003760868005 13.01241043616385 -1.0528934840194513 0.43460179488227085 -0.9074700894449081
P 7.396866663064715 6.537747565518321 9.856005099866023 1.8392360753227033 -0.9583247102029301 -0.6582731146261244
Ni 6.955697396757107 6.118717975176572 7.832890923390261 -3.815564399646435 -1.337099113702936 0.6511308471543883
P 6.611125040968321 5.698082589245804 4.016553435040635 0.191310901135277 -0.417340693808978 -0.01921771057903142
Ni 4.633578544379606 5.299180816028499 0.22629443620510759 0.15404404636401858 2.4325055313839337 -0.8318763140689932
P 4.5750131489317765 0.9419006287734726 3.8453774709931325 -0.09654338104438857 0.11601357395385826 -0.25172694032948906
P 4.794665682347127 7.619426240218808 12.63000959693027 0.555761688923759 0.5392626628274713 0.9132316745190336
P 4.615868649348976 3.9703295938525556 11.779045910659837 -0.9724048424450801 0.5197207361398016 -0.11552686412542684
Ni 8.058823594152324 0.6100232868482276 1.8265048097628522 1.4155774097154974 1.4774900880598942 -0.08980143433486469
Ni 3.454380088132125 4.414184414852146 9.849629906803408 0.34518114092559266 -0.49211428727644274 0.47266980539858594
Ni 0.3182419224839955 3.524056850759153 6.689564464007847 0.3354358886133707 0.741450101665936 0.12145685645661664
Ni 1.9933368198807457 4.890293578286367 7.990087237103005 0.16474600616255497 -0.005541755753835618 -1.142958456428348
Ni 2.7338946764378123 9.182280640298185 12.271327465991753 -0.163958220153937 -0.5097183735114512 -0.4055125908257984
Ni 2.825701886320418 2.4825415232047354 11.28662869328678 0.760057175244162 -0.054089325645235886 0.21816247411048234
Ni 1.1854924366596182 8.981122442287413 8.160763927924265 0.2135727978572709 0.30932813578272533 -0.15278086338087882
Ni 2.3002468090098103 2.15808775583011 7.014209265685303 0.050369967812119706 0.6931254464186192 -0.13184694144168907
Ni 3.4875019293332383 6.944798289914389 11.20289845064274 0.049034536830147815 -1.656803707623979 0.8920594113167927
Ni 3.8656944766783514 3.2392403940445393 0.3442124360877994 -2.106009882682986 -1.3230053546140312 -1.0133373189933839
Ni 8.442073474731822 2.4139537483909512 12.994986631151951 -1.181402876447475 -2.0067514167002796 0.8027634558634368
Ni 5.471296262782681 7.6107973961053945 3.3665901358351547 0.674249949670355 0.40337754676066656 1.6371699925534515
Ni 0.920547238923616 0.3407249064723353 0.7579447467278373 1.1003177389396857 -0.17947379929103285 -0.7496858593121669
Ni 2.8349675114432706 7.4015733053083945 0.4050582458462441 0.4286579185940101 0.22151956350817334 -0.5497496784017242
Ni 0.0881830953549721 5.515566386004117 1.922067181859092 -0.9799764841447509 -0.3808374566766215 -0.45581596706604083
Ni 6.311348844887029 4.708026550222287 6.054323726314805 -0.5635693578936358 -0.509789850179335 -1.5132016825288908
Ni 1.3384213947380923 1.9206514977018754 9.385389787662513 -0.39651270132003325 -0.9880582327116209 -0.517008222304645
Ni 7.663502560524329 2.404365118408238 5.746698512138906 0.12473321321504324 1.259364123614302 0.2643978509289382
Ni 4.664799271262685 6.5934428320685345 6.923752216116914 0.2816856914751084 -0.8055183929007547 0.5699672910001796
Ni 3.4806542263041984 6.658228378246248 8.960224950725474 0.8418547654379436 -0.6440829391686714 -1.1938441875346213
Ni 5.971593875865303 1.8605725937678421 8.444279136489156 1.6002232401257732 -0.6686125488789195 -2.7931307747787377
Ni 8.833647651985439 6.900878857683658 4.03854360589993 -0.20921503510920747 -1.2351157925898986 0.2256551829431017
Ni 4.826301701192882 8.771584575340833 5.512483996770022 0.846864045727077 1.186847444501814 -0.551180754421296
Ni 8.761746770180515 4.979581350262062 8.762952962614335 0.13731670630700868 0.23292034914594725 -0.48308611563590353
Ni 1.1227833502952933 3.0005028877665816 1.4820994936301648 0.42241579433904025 -0.03891107524290073 -0.2822909291592752
P 6.659991061910057 1.323673915707895 0.21879426335914923 1.2215645362680252 0.1992710365226181 0.7053147893959595
Ni 7.149186536523765 0.348414267879069 6.399484873819565 -0.5077391382978933 -1.783992838578682 0.005314470234377944
P 2.1985925652566034 1.790563597570672 13.275259793794874 -1.0053856682464748 1.5992019979501102 0.00546822220342284
Ni 7.852312744178152 4.755203717182468 11.163645977201476 -1.2480325006515667 -0.852520729792222 0.699909302109672
P 8.615194850906713 2.189834519199246 3.808030726225046 2.0559695302961427 -0.3573144338540169 -0.5757093356902795
P 8.3022492852534 4.422896317358095 13.348090006725167 0.017482987276111823 2.4305828604399236 1.4613906113948703
P 7.309452319276211 3.597646586545633 7.601459787042345 0.8461947875741944 -0.28843972236949034 1.1982839684735298
Ni 8.357483116289528 6.03195886981807 6.193973493168904 2.3489621621436383 -0.3204941797018739 -0.6739912966923296
