# total energy = -340877.00113078405 ev
CRYSTAL
PRIMVEC
9.18534073636991 0.00000000000000 0.00000000000000
0.00000000000000 9.18534073636991 0.00000000000000
0.00000000000000 0.00000000000000 13.44367463614754
PRIMCOORD
 96 1
Ni 8.298771439692771 2.346652421602946 5.306298645699009 0.8229085633527441 0.21970385045567323 -0.7665463825129315
Ni 0.6762229309291782 6.415133662278997 9.092844126372542 0.9077829926996366 0.08569409703471048 0.7782765264656661
Ni 4.224962701523669 6.951226875528022 4.19191200931764 0.2771307251145743 -0.6757576445641329 -0.3165097411328291
Ni 1.1533389098620264 3.705614364015734 4.818279667586417 -0.09337192529494243 1.2362902725139742 -0.23594448068425172
Ni 2.248736691816869 0.11970978720290873 0.9497577785055837 0.6476297759796653 0.82251235635559 -0.6068731628875936
Ni 5.925398862560022 8.265042869357455 7.79261233261634 -0.9651502177651958 0.6502759553532607 1.4788460878671563
Ni 3.15665248871884 0.8293930765246499 7.1191780710645585 -0.35168680325459434 1.1654854338862704 0.25542290112383753
Ni 0.7189907948557216 0.7519422853842932 6.764762626203132 -0.21675093847493637 0.05720678822829503 -0.5226273682636354
Ni 6.861816771049816 6.3200929440710665 4.330409491990009 0.9053926380905892 0.3262236259864833 -0.2338199781420812
Ni 8.313899695504935 1.5104373926850394 10.943110643196654 1.4911845548278513 -2.038270313244167 1.943196317656453
Ni 8.383350055065211 5.620794600724573 10.83463360889763 -0.9246244897370076 -0.3648338821595136 -0.6476575438938071
Ni 4.469200905558546 4.923094506625995 1.7188812433049667 1.0783700310240008 -0.20184342523548465 1.602416648232666
Ni 9.01110378121623 -0.07590765393547291 1.2543859222263465 -0.22509288268172847 0.2937691050022037 -1.1708148165189836
Ni 7.123755126238331 8.381614025709716 2.7983544004258394 -0.38353043012775234 0.017165456035693017 2.016832969305997
Ni 7.491352453258856 2.9599116804366643 2.851013039008447 -0.18239585803383426 -0.3766123628516804 -0.3080968344787855
Ni 3.824601264920879 2.2052073631624394 0.6367516857099726 -0.5155218675671057 0.891108103147117 0.4201213418779087
Ni 2.214429445029721 6.296661140442147 6.305365169104931 1.7210062104438166 1.3106136658178977 -0.43242149940150043
Ni 4.993867555219027 2.474916516418404 2.7914580467744896 -1.1107206794405646 -0.9339681357354368 -0.5748750127144422
Ni 1.6419898394013803 2.3278408442481724 8.645506102823699 0.9625032670606519 0.4949707828886314 0.6868336998726365
Ni 5.67973693074683 8.868832042130249 12.549051695251089 -2.663998661165051 -0.09633203636453086 -0.3105054439202781
Ni 1.4092516816790894 8.683113642454387 3.068975657993976 0.6679494613736239 -0.5998134278273347 0.18334125266623907
Ni 6.356127034873204 2.9417155208957433 6.475898363857498 -1.1819878024166677 0.22125911075793508 0.4982093444305871
Ni 6.004080489328084 2.039549747150066 12.495518612252381 0.122423334134944 1.2242865631848787 0.1632830484637833
Ni 3.978464903724498 7.968659487274214 6.448809876173433 -0.8776522347525272 -0.9657747387230721 0.34115170805122536
P 2.8109254574413387 1.5287988883550552 2.7997395497740327 0.9126770875671443 -0.5474166593931733 0.241569540180513
P 8.35953246713507 1.024992146982021 3.1985192707418166 0.15618628951800195 -0.9962556809207487 0.9420930788354163
P 8.097832930799692 0.6615089339738013 8.817853402326053 -0.13743703393495685 -0.09979608365373135 -0.8172511079566507
P 8.262232155162845 5.871967736840921 0.4722247851137968 1.2949332789681633 -0.8915840143422711 -0.9160354625164159
P 5.427562592515407 7.221928045558554 2.2601375364519987 -0.6563535290059084 -1.4558241730506862 0.37781049692483964
P 8.055139468131241 4.323245844929956 4.400168478991261 0.7652950266043336 0.8475335609902759 -0.22322549045568651
P 5.519664001761655 4.183399035737365 8.203895139079885 -0.689902054385315 -0.06938250435888052 0.23200195109673594
P 2.052556189305515 5.694130359318573 10.830614103892527 -1.0327990272624215 -1.6477696224461684 0.2986395457206276
Ni 6.395146361339551 1.324728178349682 4.493386825642948 -1.022729558841561 -0.33405469199512794 -0.5932787120326105
Ni 8.224609000453299 7.962477753114173 10.412582827759767 -0.4571303150020901 0.5706221509753591 -1.2264791999608233
Ni 0.539802253745049 8.886899606904096 11.936920396231416 0.26847356366020864 -0.32916728199583956 0.44857445501227905
Ni 0.2124514146823726 7.778137154514099 7.272610917398481 -1.366436943435105 -1.9623507790977173 -1.9658047990845886
Ni 2.9687204219812093 5.385052836657061 0.1488493614217972 -2.369497048872197 -1.7560256639417948 -0.9911075610609059
Ni 0.6344985216840322 1.8639535927110007 12.799399987790068 1.1021313951096567 1.1264440037130923 1.4150228227636081
Ni 6.475848763018769 6.138195646045392 8.581567866100631 2.090254676731258 -1.8247605074143476 1.08085988732539
Ni 5.478348340168993 4.703877170127447 12.855231242983193 0.35583810641880653 -1.1215553081622232 -0.019936848133243083
Ni 0.5880234543295656 4.7103160938216355 12.571247152048 1.1302728905408792 1.479087514454001 0.18252441319189855
Ni 3.4350509740927806 4.09102206627596 7.118344960680732 0.7833048329181929 -0.08702181470719851 -0.4658185868047074
Ni 7.2214228518307655 2.6958606969319403 9.504247260796706 -0.054978670228724665 1.2117223533666226 -2.202624740395258
Ni 3.7006910215049147 0.17326307795072912 4.5047068392816305 -0.6229191606068627 0.41543524925614905 -0.7518571559318729
Ni 4.648315045411127 6.717616110457731 0.145229418728674 2.3628607745026016 2.3690149670294556 0.06239913106251189
Ni 4.096514899898106 0.05503488617131891 9.423410753146111 0.15477835342688182 -0.3044736359039014 0.9226370269933336
Ni 8.813609775012623 8.496191963172336 4.705931012264423 -0.9585789923055814 -0.04063937078791711 0.3935644173249867
Ni 3.482309550992346 0.9327713283092054 12.097733663661316 -0.5892693337629014 1.9003766513877658 -1.571830805026009
Ni 1.142261389212682 1.30120452131571 4.595800616674451 1.1526378884996407 0.46039355913439417 -1.4742476698631966
Ni 0.38426320883327053 6.0636474225046975 4.745777937910294 -0.33440101959095314 0.19141477370299292 -0.45720153455965773
Ni 0.1196730458408877 4.4508577805695415 2.397611772192081 0.11831933926889947 0.2794570592549058 0.9913543869643896
Ni 8.690213910664953 2.656979150573173 7.6123059355661775 -0.40365136924734357 -0.15385121362692214 -0.0969267325257363
Ni 3.4429779229488204 4.0996838423724205 9.700176084978215 0.2622777192621419 0.014746819291871376 -1.3778757813996658
Ni 5.928273874138169 4.263853433222942 10.533360870063438 -0.7978745032022516 0.7338051835261684 0.40635899798649366
Ni 3.9421644380477083 2.599221729476094 4.932618786195899 -0.6334429429563221 0.5285756154272704 0.5864349496378997
Ni 7.884622806991586 4.941290666166916 6.5290282104080255 0.7402977332290476 -0.9751716065569399 0.25034882903503985
P 7.591711483619332 0.28559244405766104 12.879766206006792 2.5811032099213995 1.3166660426595644 -0.35104222769205995
P 7.160147445320172 6.868962965962909 6.612889450687003 2.0335420545305625 3.745391023955143 -0.6494537165622816
P 3.9691968951546897 4.915259411175008 4.922777612378563 -1.128570563137792 -0.9047807155382029 0.2687759253919758
P 1.7889552874855486 3.5081111724716227 0.5998192686064211 0.1293812535100159 -0.24461963986074647 -0.48772849950392133
P 7.791060928605002 3.4538349954260386 11.67921923861798 -0.48206024547455045 1.2305829377165516 0.6301951254429857
P 2.76018563649028 8.02428590937407 8.296844355254768 -0.09404735409541223 -1.3171779492989768 -0.391157607655707
P 1.770979576116754 2.631085675688843 6.521204137365644 0.5559627491909716 0.21514297055786819 -0.33073591203454006
P 4.570772400865717 2.2818222883168175 10.632225445523709 0.03129598189980416 0.014167549749633664 0.1271042845503811
Ni 1.1096258743974914 9.140883457215056 8.851502978733025 -0.3019202733544284 0.4301458159934463 3.0808786132875263
Ni 0.5005477825617676 3.5967864497094078 10.508113124616628 0.837366647759603 -0.06084207098803715 -0.9153723750111203
Ni 2.4769372913295613 3.925052148686408 2.723943956992724 0.8261972614063449 -0.7011992245656892 -0.006933236784723544
Ni 8.399066172669711 3.516056492008673 0.5163649389118262 -2.183907623601729 -0.49632164048957106 -0.3207952558820604
Ni 5.865482886444208 4.118146376787994 4.1929747532140995 -0.5160420017366338 -0.04788833904084656 0.9848188998387167
Ni 1.0981441987659157 4.7212558343634 7.276725031410788 -1.0363558913757442 -1.7439255382441516 0.5371494731392104
Ni 8.861300062915936 6.886865194607661 2.3015432143816117 0.6865688762470241 -0.09421087625647001 0.1543358665728245
Ni 2.5014805211596176 7.809275458826932 10.805810010392122 -0.7456026903817288 0.5197826997259887 -0.3781128586566069
Ni 6.2611322433678 0.5638127338258 10.383840060250705 -0.0992738926016742 0.42344012183849655 -0.5385406970597822
Ni 4.1119279012659335 6.291765353952843 8.5032049706481 -0.835924773106754 0.2151907930766681 0.210483874519302
Ni 6.50921910507438 6.828969993403004 11.857683974896837 -0.03872698425655266 -1.8464721880598265 -0.03788263397838637
Ni 7.437654952665103 0.28728530231278054 6.610255095030095 1.7802536832512246 1.1229940974912787 0.7870612146368317
Ni 5.231363719323043 1.9488445096606184 8.467148835028752 -1.112489341305213 0.4993632555293723 -0.23364154358268793
Ni 0.7498296570680834 2.021096398074998 2.0631468869080805 0.6093905299928086 0.4095019144908496 -0.06312315371273
Ni 3.145290222513832 7.2730352801298235 2.017694147951849 -0.22196899234076614 -0.5115587691542997 -0.09267104257317589
Ni 5.921632872952865 8.27809523821543 5.282705180077197 0.6672184967448702 0.07591927703613376 -0.7140071749636349
Ni 7.165162641236044 7.677585232003013 0.5111081685406657 -0.5958624135993866 -0.7422029206715605 1.1280663698078637
Ni 1.4519543296880455 7.136632973626705 0.03250416444596539 -0.8733515504946443 0.3598695961757028 0.15940582489656419
Ni 5.427792226028039 5.804703488320899 6.352216835420114 -2.059471372801814 -1.204704784398209 -0.025691234118517044
Ni 6.753264416958648 1.0996781506302942 1.5291773243838718 1.7497904816653607 1.8263098541793388 -1.5723889915223244
Ni 4.127634833529928 6.022910437363867 11.153839806534291 1.2427856504303307 0.19446307361101348 0.1846239760334046
Ni 2.994944569123728 3.664601818659746 11.904441032204815 -0.24273013614751743 -0.8496588348633948 0.9979649503023716
Ni 6.833498366272098 5.207959471715639 2.1010584613094925 0.4054863655735533 0.6393084005981635 -0.9042883492828169
Ni 4.907663134577157 -0.006314003063316079 1.4305148264147172 -2.212803994921105 -0.9806657969022918 0.14287671689328943
P 1.7888083220374644 8.21853749037932 5.262660930026617 -0.04189072669651495 0.20261012819818008 0.369707408201731
P 3.362367374674654 8.227364602604876 12.778951582757255 -0.5564561438876223 -1.7991690320984886 0.7751814324801102
P 5.2460235227694385 0.9679511824443532 6.486680116542573 0.1644539288434329 -0.3365687166662333 -1.1403511007124878
P 5.973989313832851 7.674076431930004 10.022716561218289 -1.2042532986830872 -0.18335410818204553 -0.2471737737411679
P 5.958723277913108 3.300109136729998 1.0288068188938557 -0.019034648033947863 -0.35956723444393557 0.20609397298172247
P 1.5941893274120045 5.949464454683804 2.8495075616996353 0.6258571601892641 1.092416738925054 0.4037518993809498
P 8.649247292011491 4.510874795430913 8.738132913546847 -0.5004017240962156 0.8218500401812427 0.38949924611667763
P 1.4558672847432865 1.6493932238486204 10.767281181108755 0.7415586022193422 -1.225115229733761 -0.05881527036599549
