# total energy = -340872.43817831576 ev
CRYSTAL
PRIMVEC
9.24414230635884 0.00000000000000 0.00000000000000

0.00000000000000 9.24414230635884 0.00000000000000

0.00000000000000 0.00000000000000 13.52973667758061

PRIMCOORD
 96 1
Ni 5.603235077128684 4.272818139264002 13.018677914635253 1.1129205153053607 -0.051335159938866434 0.451311651437784
Ni 8.844887648126083 -0.056840381236397675 6.746778908239502 1.411929271439949 0.44972142413252875 -1.4302347546173562
Ni 4.921572035173836 6.404692957172666 12.342961629323877 0.06268323796183399 0.8748476754241966 0.9760648077951706
Ni 6.157255004311188 1.7084099102749568 2.469677957918575 -1.006989522398485 -1.302330342763183 0.3594839307015099
Ni 5.356444214217529 0.8042902851979693 9.618303422965699 -0.6537466875106805 -0.04703267590877061 0.4777744736150029
Ni 4.435949515740504 7.475201594418925 10.267256992345917 0.2758089209793573 1.5619359145098004 -0.3807652086777894
Ni 8.422892559093823 2.5862798693099727 6.587209299732424 1.3899879912821675 0.6209813201542015 -0.45094321235477175
Ni 9.292396569485375 4.855679789946631 4.934687624052675 -1.3588051379214596 -0.16915673363574094 -1.2827827596485586
Ni 3.142000718647613 5.311129429410604 10.775122766614507 -0.0281738913310547 0.2593422907829018 -0.428907572710971
Ni 8.943901654667693 2.9717698410018505 9.101750928321128 -0.4229246156546587 1.1596014643016674 -0.2127130209601369
Ni 7.665704875794102 1.2000468011588337 12.797250204534127 1.9970131063665932 0.29752651516210693 2.4595910747468155
Ni 3.5032617937709576 5.414885680873868 6.1860116817035555 -0.593251715449417 -1.211602539959307 -0.998337760260758
Ni 3.4526316272292337 7.809747098736065 5.788454406852363 -1.8175303082144958 0.4175394400833454 -0.09336318354419404
Ni 5.229623828096312 6.777398280274586 7.178269580085648 0.8625292630681597 -0.03807212428137314 0.8591644603609847
Ni 5.38719947514218 4.059712930338248 6.302192060213027 2.240144334607271 0.9455895220244488 0.21419577615325047
Ni 4.961756321088912 0.09579981831693339 6.797704887329945 2.0341233809553287 0.814320821683733 0.9151013807379209
Ni 8.108878294486228 7.988122065613754 1.1155664349014842 0.619292619597869 1.3757759614478435 -1.0577263866317201
Ni 1.2405731203333663 6.096687384960928 6.4644942371389 0.22740738974751804 0.8162108396175942 0.41149477655116234
Ni 3.8109438210075335 2.796787474292286 7.051644245363743 -1.1527371330816665 -0.10818944992374915 2.167175398448713
Ni 2.969218457769147 0.9416360515683021 6.160643906822452 -1.9115007863253854 -0.7563689277592974 -1.3113466873291804
Ni 3.1927510590372536 4.345578782106783 1.948146568313373 1.142037744386291 -0.2420526504645186 0.9190307976993141
Ni 6.1149260774178975 3.84633039714807 1.8906322891144243 -0.0014254195926169 1.594510763122028 -0.796241595584519
Ni 2.014640607194379 1.7418182399959334 1.954708984823866 -0.4092841420530887 0.2526671927555713 -0.371806713932921
Ni 4.998418588845801 8.921549318955098 4.308314720696093 -0.18850222804188824 0.8761046877597493 -1.5144602375263403
P 1.496534172254817 8.258809035976133 2.089951708855648 0.5048227359820466 -0.447948391392506 0.53965192784609
P 6.256333719847831 8.196512762044295 9.158603326942316 0.6302725156481404 -0.5820059673322685 -0.7166559254403915
P 3.5805705545502957 3.9775325066471905 12.559599949378395 -1.4695122120607402 0.039715830532383214 0.028842121042672905
P 3.644983737033905 0.43502748063177 13.212342692624865 -0.7796050154691025 0.33315249189583274 -0.7376484685316587
P 3.790967229826839 2.0474942883865075 3.1247872015547986 2.512941208233182 -0.705637719953017 -1.067141509298033
P 7.168480957965686 9.10214287994818 3.0860921469396807 -0.27378983366679943 -1.7017190800794304 -0.9301569895194625
P -0.1530238314524513 4.744861013882694 7.548916232731325 0.3492005464976309 -0.34798544314360713 0.026158660673238823
P 4.979874839697965 6.679262467236985 4.879702542145275 1.3631603295663621 -0.7929120169906537 -0.44351375265992005
Ni 6.051437309149035 6.9718857869153235 2.7012390966417636 -1.6763667173575707 1.7385719872417218 1.9497516022764678
Ni 1.1353100737000625 5.207798408486122 2.3421596390652235 -0.2722543708588795 1.7491903861875164 0.1993114028422503
Ni 6.96673679973918 5.755439877586869 5.599308165544436 0.3051428940567842 -0.19586021106885623 -0.8746191043531583
Ni 0.7327258343490726 0.054164202084703496 12.732252792266797 -0.1740109764042487 0.9043161171969586 0.2018999895050329
Ni 1.1729429763824353 6.903719482719839 4.140626906555102 1.5755427066599574 0.8468347351510384 -1.180326869774477
Ni 3.977893028190942 0.17657605681578953 1.668487233582654 -1.3838435689473263 0.526117640805081 3.1533294721590854
Ni 7.775562261074701 6.6355376748794255 9.880509817321984 -1.4347784081239807 1.3654280425546161 -0.5732212791611031
Ni 2.0841565561433955 2.2848931028758273 13.110882686071033 -0.31437701106054244 0.3055758678291447 0.45216217236353745
Ni 0.6627929745892054 6.64236909592641 8.728168336129412 -0.10187173523583745 0.41160893353152334 -0.7560866206321882
Ni 7.112748024958557 3.5394895868469143 4.276722864907096 1.0589533170602858 -0.24119235934675234 0.30315003199647145
Ni 0.27052427346058355 5.363451273965316 10.526594929393841 1.353852679012191 -2.5648083294161186 0.643834313492975
Ni 9.356550915988855 3.293974415552111 3.075336587551093 0.7115288886264713 -3.0041676935880326 -0.04530129503996069
Ni 0.11398489474944729 0.5576205205489465 2.886000841329143 -0.9051938918162217 0.12078734119341776 0.3107216736961423
Ni 1.5623062436341055 4.735404256465826 12.647760408624656 -0.4329015243617125 -0.6013866858517256 -0.6854208786855098
Ni 2.730719590364278 7.985006789710054 12.146970100755745 0.3855073513484651 -1.1658631289406631 0.6765451734624348
Ni 2.154938952566616 4.27176430705919 8.41280350235407 0.4883879874647912 0.7357556223843199 1.1470423966897343
Ni 5.437857374110346 8.268321258245885 0.5382549671642 1.0982294889520892 -1.5894886273170883 -0.17817333531205443
Ni 2.981309795698045 6.765963276438158 8.121400409439197 0.35220230943843217 0.22313087385935118 1.223541714599054
Ni 3.5751349989675796 7.142569627526313 3.1053717298024557 -0.3469932544336669 -0.8254308155539655 -0.777840467369512
Ni 5.523837140224016 0.5227248083564411 12.159227833243296 -0.6826232613357146 0.7262921629785749 -1.0871567760776955
Ni 0.44541234992024403 9.211399395989194 9.074299523799985 0.5490549663275447 -0.582424542926926 -0.673746270561059
Ni 7.63418235107121 7.411158177621215 7.591643582151171 0.03174618206334533 -0.7468100804262686 1.1424928296458388
Ni 2.2503292553864163 2.656831162179506 4.324482725312028 -0.9329000994822384 -0.08425247949217748 0.7878621132715722
Ni 1.3962722065232973 3.5879751124104233 6.352698355249975 0.6443719311639999 -0.24119390200864915 -0.8334907097439646
P 0.0540726850774435 2.133076556387836 0.8820085614744406 0.4444781734557184 -0.1370570248877188 -0.6206524760598731
P 8.776878494347105 7.142883928359327 5.434178205535651 -1.33383201291589 0.270141952501567 0.27827383758008206
P 6.433044741138974 2.027147931519914 6.6966516230306015 -1.5580075259896717 -0.31076101157450997 0.611660556973908
P 6.2325208096759335 2.3156206313740357 0.18525445746383956 0.38818618373220887 0.03182845736450647 0.7958443601461004
P 7.981438550841129 4.718755556458222 2.5785240340482405 -1.359383121912117 0.7131772228631718 0.9384786220112805
P 6.763023639235261 7.952171596802221 12.390329538101756 0.218023891650089 -1.461210119952948 0.8571674845356141
P 4.82817846705789 5.941358064456896 1.38758271290467 -1.3813244020698985 -0.7725447661882114 -1.3314406298655779
P 4.421491677421852 4.969179367233336 8.448900953025746 -0.5658357853303093 -0.11000721985877827 -0.7534162728888767
Ni 3.215500892862191 0.18465173939582413 8.471996517767 -0.6487435778691343 -0.7484998094238657 0.8462773199856715
Ni 2.4661614862456753 -0.034815288155822424 3.862725807660833 -0.415549149126194 0.9628542226421676 -0.0005260477067990939
Ni 4.2374130748391705 2.5406877602386233 0.8394041591451553 -0.6332429111303739 -0.9371426768086762 -0.20302793246188908
Ni 8.635165795226305 3.3862494424682117 12.095367450460108 0.7138925037626415 -0.26154418353022696 -0.5276597884812203
Ni 2.664004616485947 6.2765136821557705 0.5155994235891669 1.6452859367923662 1.0159235916633216 0.7994289921735652
Ni 7.49517818559962 1.0492008895963276 8.357088133217019 -0.9221410611935216 -0.6533011153328298 0.07854951557012924
Ni 2.7221964913043055 0.9692667924471066 11.289280104028668 0.5133364298800127 -0.37086029085925165 -1.7830991231198194
Ni 4.853544393110563 3.2086232511044694 10.995115785854345 -0.48021547895632777 -0.7500494132991727 -0.17856774253699567
Ni 5.76257635532472 3.0490786017811886 8.809617548176604 -0.27437090298125005 0.31221702729474615 -1.1286163287740627
Ni 5.049806775043617 2.1941156269876174 5.007572138400231 -1.1134622467414437 -0.7271694233772058 -1.3379401215469926
Ni 7.991061702816651 9.089099395378092 11.087564602642818 -0.44214361178527084 -1.696153155955879 -2.1557442737936356
Ni 5.140843086911957 4.560948805858668 3.8896771040917977 -2.0060700743625386 1.4256149964571576 0.90786578222143
Ni 7.252926196482876 1.1558320692674582 4.751156274685124 1.1855153559539517 0.21770044687239926 0.42222784669795027
Ni 8.186963563205953 6.758170464607836 3.0210281768488887 2.3575316489802045 -0.004720031183488646 1.743593094605397
Ni 1.559588465842748 1.931766872842261 7.9142059050025395 -0.08106971088882167 -0.46798654099030373 0.7331752632516534
Ni 6.954451334825185 5.960595124265793 0.7852103758055798 -0.29763835814962286 0.11719062498109493 -0.2580179155445234
Ni 0.5415403352834128 7.651524361739874 10.948898772773827 0.28723336076621503 -0.6367959185889549 0.8889157234814884
Ni 7.8120581342729345 5.866230921224362 12.116230554872743 -0.3300815662799928 0.2161351592678084 0.644154158726239
Ni 6.92945517445841 4.968809601547436 7.92251269113626 1.1663192426414755 0.24047939244012778 0.9374694640204758
Ni 8.834848509753925 4.4524410653316 0.6735559292915111 0.09227689245855075 -1.222389346162166 -0.8583764172420506
Ni 1.6956160175428505 3.194784770309698 10.743355272124708 0.34732389830020827 -0.7823344985851236 -0.37662907502222875
Ni 5.587862068737432 5.5571900050921075 10.179868418968972 0.9058592933143624 -1.7725465444149537 -0.17106423507109894
Ni 6.6959573879553265 8.131406268899624 5.635486964667011 0.9478086411629548 0.18035645900630232 -1.0625955417985635
Ni 7.1816261280993965 2.011368180874173 10.5996550824422 -0.21201573778279612 1.4275952601119801 -0.02918587753533683
P 2.387410639291331 4.864535678123912 4.264586230681675 -0.6776299218861813 0.4698395350386425 -0.03584914848812535
P 1.680095102877239 8.2391559897706 7.049262954346553 -0.3503683415534869 1.0697653200741255 0.44720997056458467
P 3.5287201612451047 2.1668269193682694 9.424394599623392 -0.6473711230016399 0.4168889509835401 -0.5059581351380706
P 2.4025710324131913 7.96759082590421 9.987475634938852 -0.5636410916718357 0.13757741616756308 -0.5384733341569565
P 0.5986108956592826 6.314793674788467 13.66381642655121 -1.8839807265282458 1.4262243479063825 0.1448112149118409
P 7.486682818966091 4.321738139508443 10.40048449338955 -0.2540712721919495 -0.16259604969908772 -0.2439760927394766
P 0.677881263402315 1.215022311437744 5.17440671822101 -0.10768962746919518 0.3988176953041261 -0.2163796711784467
P 0.1703436561799615 1.4179589640012749 10.610046422630177 0.7619052841964943 0.9394152748929369 1.135535167381083
