# total energy = -381165.5954048132 ev
CRYSTAL
PRIMVEC
9.23643775834988 0.00000000000000 0.00000000000000
0.00000000000000 9.23643775834988 0.00000000000000
0.00000000000000 0.00000000000000 13.51846029278972
PRIMCOORD
 96 1
Ni 3.357620653156708 6.236498259335353 11.218618984474203 -0.8314525962680132 0.5064777550869665 -1.9697373013697757
Ni 6.365854571515625 5.088094994885391 7.078630480901662 -0.9086952201012608 -0.7936769201811363 0.1770839589026176
Ni 5.231213599471844 7.093898312678455 6.620166033237544 -0.6515977594884779 -0.5530602308321959 0.25337424612492493
Ni 2.9737542958406045 2.20234547894151 4.929952400481555 3.3030718058239565 1.6064607363950527 0.3205931671735833
Ni 4.027844293337855 9.396320595795133 12.20334425731293 -0.5204995232873552 -0.700642837841587 1.018662844971355
Ni 3.0579444269025937 4.439179816839188 9.678325669142193 -0.20461353178145406 -0.50794456944048 -0.215138599682494
Ni 4.535682119563891 4.020630635371929 0.6884018735265226 -1.8271830008129113 -0.5077494227105385 -0.2637591889036748
Ni 6.172369671297681 1.2271069514251924 11.860150554097919 -0.6097576835242402 -1.48797890340636 -2.3853862092986273
Ni 7.70668978226789 8.682547151120593 1.6370311472220518 0.7716248254771033 -0.8048349936804848 -0.9082378208488681
Ni 5.508509936799661 5.730082844539219 4.913703659004402 -0.13749154132197614 -0.2153715416289065 -1.7349035372511994
Ni 6.761598987915185 0.5018572327139522 6.897212986743234 -0.2245699202987229 -0.2587666207850898 0.5785974558713519
Ni 6.44915800454339 8.033179387619422 5.01004986592933 2.077313286079242 0.009011202359674803 0.9154618494011331
Ni 5.335936331888832 2.380922768459064 8.309608423432515 -0.14656650704005078 0.8946027465639368 -1.6273895161279197
Ni 1.5044125251908658 2.1241220867348187 10.191513240174713 1.339822683281686 -0.4327621705703708 -0.25183724065510826
Ni 9.632588676164382 5.498765494861055 12.648587667829256 0.37408831087824607 -0.880297128574542 1.5977539526496742
Ni 6.494065565401689 0.3333772170611228 3.270021352881885 -0.3330277933925103 2.097070414101511 1.0588738699726024
Ni 5.015644376339011 8.33377002122133 10.426071655896722 0.7567875033539548 -3.2515949781009037 1.058955888163447
Ni 8.782845629804317 8.445706411604244 4.7160364997250355 0.5648387115243626 0.014528018412845947 -0.6631903494220837
Ni 7.568281760988251 2.904739632176843 6.898119081296957 -0.31993599320555866 0.8894705675436939 -0.047261761200441184
Ni 3.208184325076409 4.809505556257664 4.675116309089387 -0.2619974690175617 0.13584783507096607 -0.8149754245485965
Ni 5.703952961843184 4.699702783019602 10.018206262098078 -0.10927471256812792 -0.1972951437431699 -2.47305594200247
Ni 1.4992308835533696 9.311253003136777 8.766438021596032 0.017115319524047944 -1.0648642832280821 1.1161475068830908
Ni 4.350593141357504 7.1744862329764105 -0.549036033641164 1.5068351168809146 0.17490803429722135 1.4952137305919024
Ni 5.73834021998293 3.486311941811311 4.232778681922715 -0.09027657419907033 -0.6937358263091085 0.5506225679249807
P 5.326792258410897 1.5604315207905333 5.407167740638153 -0.09212236915855747 0.27210036177951846 0.1355434164566698
Ni 7.809343552605022 5.065567322953389 5.261533130379589 0.7535916221244763 0.3060792898281245 -0.5948761384267175
P 3.3076330514773353 1.8200585524988673 0.7505926569019025 0.5734747899328059 -0.6005639328401141 -0.5483129459551976
Ni 2.2431612978293796 6.9257859072523145 9.005849261767848 4.432788309640733 0.48726698648647054 -0.4211022177339393
P 2.7975692437278834 5.39467084021831 13.117151236645672 -0.5656974599802322 -0.49778819773276856 0.5858410248076427
P 3.7246120385089885 6.876731185796448 3.886246006422581 -0.6952676895726027 -2.1899659139806666 -0.709048802517095
P 2.7740994551345195 5.2938089388253395 6.971739956519754 0.23687727691116622 -0.2504737846486783 0.5033204404049073
Ni 7.364590596938875 6.973972403549671 3.268966551678673 0.9133831124952334 -1.5744070503936176 -0.5684655096436727
Ni 1.7665518679961678 7.7637709682210545 13.188069530151656 0.4517711075727058 -2.1473362522355988 -1.5555305252040887
Ni 0.6628714356473733 2.1744052544256 0.9485433748234637 1.3427583688712423 -0.6284238924751758 1.7513102607439965
Ni 7.912902493852091 1.4505086738603368 5.13417650699525 -1.008873112574443 -1.4680721371801038 0.8115851679201248
Ni 4.9252750683510245 4.710407814495285 12.18086276757021 0.22223535862827531 -0.053774622618294486 -0.850882937078483
Ni 6.326193307359817 2.7911591558554734 13.295351679498681 -1.1586524701248369 2.260034388662979 0.09627701475687934
Ni 0.37130849640640773 -0.2563711873639182 11.468386118770724 1.2283257662512588 1.331620864197184 -1.081041921429209
Ni 3.1285292850019606 6.151855542818396 1.6840889508133434 0.3919150546470218 1.1029281799793391 -0.22125268300003184
Ni 0.4802504336362437 4.4135948839766845 10.610733910674139 0.08441523032228687 -0.25409724033387854 -1.238351525918377
Ni 5.781363547518502 0.4857100920532204 0.5736141947773084 -1.28977924557105 -0.20684010711912762 0.5671071958435653
Ni 9.544380694634814 6.699567071270938 8.708605913245135 -5.219683945233979 -1.1077749665486791 -0.7328649311000862
Ni 9.446197360220228 1.4841293076579938 7.423757370560038 -0.6405615562789742 0.2356423760628006 0.45900387787571917
Ni 1.103782033165216 3.7197998543857524 8.33619920437759 0.2771669776691485 0.21278269785580775 0.766877540600105
Ni 3.1790248907634413 3.109686951774702 2.3682854741838018 0.27772130751072166 0.8298749673682482 0.8822753353468353
Ni 1.4461675480677822 7.0535443156834114 3.340370681815911 0.4290867786013126 0.7123382719016442 0.5008706933128342
Ni 1.1374580855900118 5.848327721978121 5.351782364675441 -1.8777468298033921 -0.11965297047865844 0.31844218226885157
Ni 1.0432464194537205 1.3545697938448804 5.2271015373381315 -1.7017669025982305 -2.1926887122284686 0.37130997680216055
Ni 3.5883561072499135 0.887995753742755 3.131686299461312 0.1722870517346065 -0.26753922477139735 -0.9908486509725644
Ni 7.787508613512258 4.473714857984637 8.826959780650743 0.3876483089508678 -0.8436481098929406 1.9739132871243361
Ni 2.600888536011591 1.8626847132066109 7.861349315956041 0.5444742889353978 1.6958163414417506 0.03366448213198073
Ni 3.1525532598667145 0.3893241684455093 6.282879955675551 0.3465188859004097 -0.07271748226938445 1.0443707912604208
Ni 4.429500029965577 6.39478309488218 8.792501401939502 0.16221269821773998 -0.8086250568505364 -0.1456069713402589
Ni 1.8308836576666843 0.882149088579591 12.971801108673088 -0.1421526942430713 0.33088940689326884 -0.5224471339320294
Ni 1.349877683413779 3.1059554308806767 3.709316497418626 -1.2355055718291497 1.085650366735498 -1.3958912441404798
Ni 4.25694489793046 3.6503141323913098 6.440478523889638 0.37503396262096705 0.1406578548650997 0.5665932323216242
P 8.213483891016141 8.636475799092375 8.39822188458398 0.06328436188094262 1.0193238755941219 0.9916279523407503
Ni 7.994303220681417 6.22788066281524 10.657304953990392 0.033589920140303445 -1.2294686216064503 0.7970121552019563
P 9.285298612760014 5.086885021526189 3.277388335716229 -0.036526634171124193 0.49037262199498766 0.6445953600287156
Ni 5.507161416872613 2.425701019187372 2.113151969492655 -1.05912172431735 0.01580714223558568 0.9268988875934812
P 8.950182174450513 4.878510983483569 7.207434454098114 -0.3757446155347464 1.0443810756730656 -2.1180537012213976
P 1.5192370079505468 0.11178029458313815 3.5119338204252397 0.4609661438084126 -0.6995223510838985 -0.34083957612744525
P 5.874032728532758 6.5083635712035495 11.124016617016581 -0.14353491930257858 0.030664261853076222 0.2724541455745114
Ni 7.507653782898191 3.989836351558361 11.517850014423633 -0.6121935466592425 -0.28624914247607475 -0.4552737214093256
Ni 8.14323154467961 0.9317256687743501 13.08107093944683 0.5322607775883413 -0.6852565851935037 0.4070945906009376
Ni 2.6615165141016517 7.41270320173338 6.110452286482853 0.9662789320530004 -1.0185849405455683 0.13833126361445208
Ni 8.582969114589677 7.577749109791163 13.009233620374122 -1.5043110649074802 0.2243673173696136 -0.09358198442321948
Ni 8.953784385214547 1.1831045614768305 3.010926339994085 -0.38366541304371987 -0.06289252575916265 -1.0276815035301978
Ni 1.124600964093765 3.5870814788257164 6.004657203630726 0.2871220319993313 -0.2885207121190708 0.6134410459130984
Ni 6.780302774574597 6.739782521698135 8.683312851818897 -0.663135070704116 0.876564143894671 1.554567132849555
Ni 8.226193229506684 3.1859152734043894 3.9053746692233906 0.5118014812927251 0.47901014579431694 0.5285151945029801
Ni 0.21542975292120015 6.596811700117384 1.3640122042655796 -1.1915952435994446 -1.3866324445463734 0.6973834503640247
Ni 1.0172273740119624 6.793880338223651 10.934041563184106 0.6605310574223656 0.6978742739575141 0.27458944674995933
Ni 5.01073982783721 8.579357667387786 8.10356012044216 -0.6093123684567056 1.3620634969577574 -0.1408522302640929
Ni 8.425977380342761 1.9918008780026122 10.068603037974492 -1.0951230821126237 0.08108925127284745 -0.8532876898652337
Ni 0.5372789718936263 8.31445662966339 6.818887070076336 2.308323819796986 1.4927626979482485 -0.344070167249601
Ni 6.479324210582716 5.674220868383113 13.818300318057947 1.2062644155758453 -0.8168978383822899 -0.748014642257331
Ni 8.487963114797726 3.5609238868161106 0.07755836868102323 -0.2894843615839208 1.6927698413059429 0.16190468005901795
Ni 7.437392200123802 8.42283699147155 11.015773878132482 -0.6966797394287808 0.5525588657157451 -0.19869253831132877
Ni 4.0361847967222735 0.7589423967241777 9.590468672251175 -2.6059421233419506 3.4381927900312275 -0.31540776631790196
Ni 5.298076173115041 5.4083500046837845 2.1931542996305073 0.014658116232807014 0.43358698046451133 2.718586780823576
Ni 0.8577168631615795 8.717229975271747 1.499251203716654 0.20551213233632346 1.8820413434136878 0.5035505541378424
Ni 7.363436042206813 4.395408337837238 2.333583253513149 -0.30546711016542233 0.6606904658183653 -1.4494357530258393
Ni 4.41002038252622 8.60794444255365 4.679671720240212 -0.8146617499629195 1.4167506040879922 0.9015838058674601
Ni 3.5777342037149396 2.3050916136572064 11.802684208686138 4.164047608362067 -0.3019231015679058 -1.1412090778374087
Ni 3.27134308713915 8.785838235669823 1.0599477463858424 0.9220485014797153 0.8906028813759242 0.8442919141245266
Ni 5.2188275363062795 7.814091081663262 2.545228837844541 -0.6799997076699386 -0.36301045579752966 -1.397709271185825
Ni 7.999078459053227 7.119215388843119 6.851696744630193 -1.6201161223949583 -1.5815110084282504 -2.546275303608937
P 6.394736912692897 7.746960651322227 0.11013066678196742 0.6789090457089211 0.5417466055915896 0.4284087786976815
Ni 6.4007498337374775 0.6982081995987677 9.459109900343615 1.8781414941386492 -0.22150336555825725 -0.5775412466926957
P 0.07609716421212505 2.3106704221225316 11.932596554425372 0.15989587715910528 0.214698683931598 0.005220624968991009
Ni 1.431047499296693 4.639407316692376 1.6583368384256383 -0.7185587988900591 -1.3916216702308486 -0.641954579971759
P 5.502413887814372 2.6158330924634066 10.395993196017033 -0.4075735871198852 -0.013386962829867267 0.8348184274164526
P 2.5963164992726235 8.78363072702212 10.690425896500013 -1.2931535613599212 -0.8536281039237879 0.030173181149270617
P 7.365227911150973 1.9928076497289706 1.3943206514478956 2.701057513690561 -1.0044019641769668 1.6086564584947909
Ni 1.9055325484229102 3.3579901106709684 12.242750595783898 -2.1592278614668623 2.969997732574543 1.9279249933196796
