# total energy = -340867.1886118829 ev
CRYSTAL
PRIMVEC
9.32404288367022 0.00000000000000 0.00000000000000

0.00000000000000 9.32404288367022 0.00000000000000

0.00000000000000 0.00000000000000 13.64667924894827

PRIMCOORD
 96 1
Ni 6.211723809769696 6.715725609235762 12.734357820508718 -0.2936382358512943 0.13432728466138155 -0.5173985157645283
Ni 8.063749070178647 5.8883007436121595 4.257518231160636 -1.0736422865310284 -0.24741648587959325 -0.963473087173089
Ni 5.033910746748391 4.871784293773293 0.6570531617647987 -0.14599160837318725 0.6095219133643502 0.4145351060393829
Ni 4.8986095643742456 5.367497019355367 3.0993378722677165 -0.5257803120703203 -0.5016991027514005 0.7547501612089518
Ni 5.602388300891408 5.944757821640927 8.349351954684607 0.4857981152504279 -0.6113355695343213 1.3425195133875587
Ni 1.311902119855609 5.252801971158526 6.901617182025844 1.9764975029117444 -1.1330630516915066 2.385122157003963
Ni 6.1454951350812825 0.7617118104917535 2.1360057615000465 -0.14243911513523855 -0.09718872793787134 -0.43502448424198625
Ni 0.18970137660222958 7.845305399813992 3.8923197244745946 1.918184626103464 -0.46812049546500667 -0.802827733442469
Ni 6.1379986048194946 1.165645187409819 13.308254508219088 0.2828316321540935 0.33189753644280906 0.4096075868307784
Ni 3.666763674403856 9.15978095543111 1.7014811331691677 0.5202226154768846 -0.7806853930174749 0.39523820548298383
Ni 8.50801172861576 6.699585691470642 2.0923496615762653 -0.2510743943471547 1.300325139407696 -0.7660095361728549
Ni 0.8279647276909633 1.8006684336901304 10.214156747900532 -0.7982295725488253 -0.09015984611554795 -0.13912933403571523
Ni 4.129273484236889 6.404656899541995 6.619416640669792 -0.22746472534801468 0.1796406638862003 -1.0036738277616908
Ni 1.6819640471691977 0.24504423153860508 4.753875248087349 0.3750817851397669 0.25209769340534643 -0.12164120455328083
Ni 0.5852608308485137 8.087264305651571 8.375130135299989 -0.37174809278084364 1.2011309510040216 2.033295485737395
Ni 8.243041085606423 6.49827028738821 8.764061127651862 -1.391691347126519 -0.5022955986848188 -1.4619248866317855
Ni 3.299592200300658 1.6685747219752571 3.244988741943586 -0.3354302321864159 -0.6343045196256689 -0.6632587407661739
Ni 5.877307697370059 7.50859557293127 2.250487289121024 0.27967714568551194 0.662113314307821 -1.4006048475660653
Ni 0.0593652469201262 6.713814180499859 6.0151832479099765 -0.645859828563436 -0.6326009066710008 0.0027269120128598197
Ni 6.200087404587218 4.083800128407607 12.543822874496783 0.7160195774079733 -1.1830905485625431 -0.2503863671411946
Ni 7.485080337458347 1.2154262509268452 7.073142269956022 -1.2756376639633449 0.21691291797409737 -1.600403217347063
Ni 1.9241374059869014 0.9809359032232134 0.5954091188297707 1.1196318658872653 0.3745953324216516 2.7601754028986396
Ni 0.5633968833225584 2.9209055335689666 0.6763753752741325 0.12427015753569566 1.314331223878801 -1.1058119292850375
Ni 4.654459508522339 6.62381852118794 10.54589406285712 -0.17977538969185167 0.31292845153947396 0.5838170523990783
P 6.892248384007132 4.9042412861132005 2.2428592898583757 -0.5440559704510566 0.25998943744859737 -0.10558929329674073
P 8.39417449233942 3.497560273084606 6.633568672549572 -0.48421894368876606 0.521231002136741 -0.5407878412227461
P 4.997174018848582 1.2534683447926378 6.867309367227025 0.3484659823244515 -0.8885028043137859 -1.7553332658604608
P 0.9317599700718465 8.81698252872134 12.083765287871275 -0.7673801912681364 0.6651212478962094 -0.9786030008359922
P 6.826234162298844 8.596879178771365 0.5172130354460771 -0.9178077239254903 0.13127744209146425 0.8883909613262699
P 7.532017567978054 1.7790086826974256 3.462639868686036 0.034119567391528334 1.2443933612370828 0.42467553690749443
P 8.426118662335549 1.2446664485648662 8.837343440577891 2.6701453974927367 0.4954328101267146 1.575521109393403
P 8.478827475233423 2.5850535186067485 12.439616441836614 -0.11566570369613627 -0.07225879746541104 0.12799002958944408
Ni 9.007733792521925 4.365451483653685 2.3208362582406368 -0.753149135270419 -1.4006462423269619 1.1595461855837
Ni 8.092047539512636 5.387795460126404 0.25078224736336213 -1.5574274851164855 -1.4635130570545118 0.22619434327602334
Ni 7.758395998607361 9.027043884775859 3.717642177736569 -1.6539492688943194 0.07092439492470366 0.23384311807053276
Ni 2.3163812306795886 5.96236161409647 10.869961420359294 0.1984994484639162 -0.04146032402731569 1.0044505580267153
Ni 7.299224196030199 5.675265017963722 6.732575086643821 -0.5429714791376262 -0.6498260123000356 -1.400880469824955
Ni 5.225519822469479 3.12869182322563 2.2061225619585665 0.4119349494123744 -0.6498812910180034 1.0179429360861951
Ni 1.2446664485648662 3.912330984733116 12.106460007594151 0.577072020365761 -0.9644485637124811 2.077789711495028
Ni 5.659162396369059 0.021866744738739414 11.462159338912747 -0.9868809245740681 -1.2985071123623508 -1.324248482992513
Ni 3.7467453119481617 4.180984624575047 12.208768997582338 -0.8562745404076995 1.990217680711314 0.7843445870366169
Ni 4.452379532945543 2.9604767704234827 4.654990978951346 0.9201497417951057 0.30942995146791225 0.4940243598149621
Ni 4.13211731723421 2.4616964348213477 0.14187742962991665 -0.4410892023788274 0.12475841002602385 0.8197959858656914
Ni 5.667992264724672 0.7681575211509257 4.717342716720789 0.6814312979101426 0.8684178606384527 0.05276495040685751
Ni 2.8092594473069568 4.646142462510504 5.246902649396543 1.0231203665220767 -0.20779424350228082 0.24911058575256456
Ni 3.700759133775101 4.433861984313812 9.040201041308707 -0.47116031073259496 -0.22326071456899615 -0.0910360780729142
Ni 1.3903639384538062 7.805277284871383 0.3315443072744738 0.2642021899783643 -0.2676932338507583 0.03639962167495667
Ni 1.1668479889070464 3.4714995739780155 8.565693053439766 0.7057485344992684 1.0573661750788241 0.7746417579265562
Ni 5.265398752730262 1.1682838914696276 8.961828733519607 0.86683277553952 0.9123510716862931 0.31700853514611854
Ni 3.02179167465423 6.965889672573805 8.582095909206606 0.5567163395275444 0.60482656477121 1.3888487354714016
Ni 8.401512513876769 7.698983199069903 13.185462461416105 1.087298186751566 0.8810172945700181 -0.5435065257054897
Ni 8.095040557191783 0.5007682214874746 11.521617826259014 1.4339019190562983 -0.18313402175143945 0.7627812590435444
Ni 0.7530852062651282 1.987233202356955 2.8495085420595223 -0.6444889163578384 -1.0502871567448555 0.4598384579618726
Ni 5.932254280495333 8.219600442474412 7.397154615606772 -0.19280882583704215 0.1255181710101838 -0.8423928973296009
Ni 3.395005128371407 2.6774920770835795 6.981408609100821 -0.3789476958530764 0.7311752021024891 -0.0743493614458526
Ni 9.27778603875598 2.13728502014671 5.318724817249194 -1.085270614798576 -1.986206245559076 -0.9997500672272526
P 0.055442622192347045 5.920422070417958 12.424727810590317 1.9296687154836636 -0.744013234407422 -0.3970878570972129
P 2.7668630255403492 3.082397951646302 10.634010927582285 -0.8644287940837178 -0.2437938015253414 -0.9231052248790037
P 6.741161597487205 7.1174706333522835 10.393119624624028 0.803043963218333 -0.008567172843720728 0.3198632309860943
P 3.801980940394474 7.476753967403898 3.6273285685715067 0.7374229827844139 0.39937099670443477 -0.9815541130445161
P 1.2622609169777952 5.713409676298269 9.000612088773225 -0.40379072303868524 0.30781221335883113 0.03738949639205173
P 2.1118676799804965 2.378208957254116 5.089869920901563 0.6816128177933293 0.5359539101692125 -0.05191031571604608
P 3.890466104802899 0.43029337779257093 13.148329461705194 1.6318154131097575 1.0041176001673286 0.5975696260984805
P 1.861666320471997 7.6018080269450765 6.9174745812997545 1.9056139885273051 1.0733507234325386 -1.7623618905724678
Ni 5.97503298800912 3.348412887428425 7.331159974387975 -0.509796277937238 0.2882558884934584 -0.16502882751029643
Ni 4.875215541455306 2.510806167270154 11.269795948144173 0.18696290857922637 -1.6728785016986547 -0.8364742178523207
Ni 7.304175262658321 2.945847347561858 0.7136556948583479 0.4956184437749593 0.4572205607230513 0.7909824040681088
Ni 7.057405150831834 3.7103908697955332 4.758064540433892 -0.30895763981718405 -0.7170104805663329 -0.09486779311417856
Ni 9.142251755316481 8.902884933325641 6.293534824474901 -0.08328934424795978 2.657811815628049 -0.4298169718991179
Ni 9.206923314888327 7.08569429612321 10.620977780816204 0.7087752371407341 2.9323930348478915 2.0616971768085395
Ni 8.934577354171187 0.8779723654435138 0.5448122015840051 -2.065140398162134 -1.641877939552082 -0.20962795427690992
Ni 3.6381854837914402 6.72429440439818 1.317835008171002 -0.5324371552652055 0.38228575908737383 0.4070899626152473
Ni 1.3611050927305568 5.508131554104816 1.0618974976462683 -0.14526758572296916 0.35543007234711044 -0.42856947264526196
Ni 0.13773755470922747 4.817686198525909 10.52654294481568 -1.5399038744104252 -1.163189438763242 -1.7042860694756583
Ni 7.114384375246995 4.986656498779804 10.71467601745021 0.1282013742693018 0.9590119660779419 -0.3483173725617291
Ni 5.824692124898327 7.056528690826102 4.487601103920551 -0.21461126642411427 0.3628667311308138 1.842100541354692
Ni 7.136239931134598 2.253798256653314 10.261961114383356 0.38349314913191374 0.6238581274813643 0.5954114421048972
Ni 0.4373796501793362 4.386038969745761 5.012384329565069 -0.49958694150440414 -0.37775393265529134 -1.0531050858096251
Ni 2.114767457233502 1.5559496112387599 12.266481091746972 0.7677357748353423 0.5406135204284109 -3.4151143109452082
Ni 1.2583727912076885 1.626709770637657 7.311276453513269 -1.1559301860976672 -0.9200890637604993 -0.5362315893106314
Ni 2.1003151911815463 7.017535544613664 4.901518665669864 1.5766259124218072 -0.6463583654664093 -0.5320388913855224
Ni 2.4143302983413903 9.124396213710355 10.374000675243684 -1.2391038307033693 -0.11232352669678075 -0.27744414258993505
Ni 4.077114789853251 8.678082265898126 5.613534261432381 -1.0587445434835894 -0.21604028556115695 0.06187231202476441
Ni 3.2230511344809787 7.996578667186203 12.315022057596314 -1.0280160040514812 0.9689667632978086 -0.8947526418782397
Ni 8.086499734157208 4.100769885965387 8.560465995150267 -0.5413424281746354 -0.43713176039297624 1.0827198233522644
Ni 3.0494467850478433 0.4561974329832437 8.073225094687421 0.7708144137606661 -1.276897247402059 -0.2847712723789676
Ni 7.201825246882633 8.941178776342015 9.354088409084738 0.3625803102386465 -0.4896789383620728 0.006125139061131386
Ni 2.3096399478695475 4.007007313437346 3.014633607139336 1.3416767057712893 -1.930577343340862 -0.007126840852768371
P 7.576390686778863 7.653584435581535 5.567340157109024 -1.410050052139365 0.8135299503513216 0.3412720356791735
P 1.0676961197480173 9.082885575992092 2.000507841826742 -0.870893575872455 -0.5443825005525399 2.982765059542541
P 1.1619528665346097 5.62258417719369 3.3094700910461046 -1.5958006855780453 3.5309494503396737 0.839262065010103
P 5.712542540335152 3.836526518279955 9.648720696458254 -0.22991755776388145 -0.3038791968530121 -1.0118085410536832
P 5.081314179398806 4.773452940364311 5.625706799065173 0.6389620730023383 0.2104926162700504 -0.06428786344479251
P 3.99244315887402 6.261215827965683 12.860357337970973 1.1004468083183823 -2.3870312011012182 0.14096998678887981
P 4.418067056125417 8.72615702961676 9.674485823413976 -0.6943302653599978 -1.1871976287523813 -0.13068583125405234
P 2.5370346991438 3.7580740237243724 0.9551707762674916 1.3143631055580007 -1.0375103166951616 -1.6363626661608077
