# total energy = -340870.7837928446 ev
CRYSTAL
PRIMVEC
9.30288123147777 0.00000000000000 0.00000000000000

0.00000000000000 9.30288123147777 0.00000000000000

0.00000000000000 0.00000000000000 13.61570703191412

PRIMCOORD
 96 1
Ni 8.870129912290492 3.657009171825954 8.474062529815738 1.1684470876177553 -1.979833509263513 -0.5530288633736282
Ni 8.034219508875575 7.842673181945376 5.484597423926274 -0.22451412736012302 0.12367031916816766 -0.24802917976292768
Ni 8.384426477175108 6.553638033891498 1.2198124079524877 -0.5415982529391834 2.6685286878249204 -0.052190565960626246
Ni 3.0989386227139684 9.294099426788645 3.9607408054932436 -0.7617602739781978 -1.347650406856221 1.1128940329427994
Ni 2.9630142233561654 0.7467692640619366 0.28656967815874995 0.7306257573569224 -0.8039271371542348 -0.6687261916386483
Ni 6.820705151594858 6.431174903842485 12.903102009712674 -0.6480388384926259 -0.7872931281419796 0.1917011945951602
Ni 9.15393291353671 1.222770724220764 6.514543605319789 -0.09545529018653237 0.20784540845519045 -0.4179654718771705
Ni 6.136506137183228 2.2547579577817634 4.749512578835892 0.24711849502320019 1.9986969218269195 -0.5938759792969772
Ni 1.528463405275955 5.185844692355779 6.93910943451227 0.6283786410595372 -0.11982472016983235 1.9765450683202281
Ni 4.916851878213636 1.4426629306146028 6.736003347220561 -0.39456611911662365 -0.4180832284019574 -0.4938600663229559
Ni 4.384168892297013 4.077508711581757 4.385428502431367 0.6591807140420582 -0.5801370324443299 -0.37326452942537003
Ni 4.765159094973042 5.2092600447056245 9.86486561807458 -0.47164547789912964 0.44739226177871977 0.2716486189540806
Ni 1.5141741795273007 3.0718486322321445 0.8017027784146726 0.41393372500995806 0.21654807843551094 -2.4622642507036048
Ni 8.963977379316809 7.936697403717281 12.705102273992214 -0.8947503278853944 -0.757566033391192 0.6405746689050968
Ni 9.003998374870656 5.975222083274104 8.502519113567402 -0.7580601994187912 0.5583178796867094 0.52223656058312
Ni 8.426280140354272 8.494098145372298 7.731134425461887 -0.45032589048574706 0.47757187068589363 0.5278572492040071
Ni 2.0069012900595036 1.0471323243935573 9.834706607036455 -0.05937628507578806 -0.4495090510114065 1.0956946383453774
Ni 6.326573305979291 7.604165909976629 1.5155230973225837 -0.6644105949824299 1.1915569341623413 0.4748215616342661
Ni 5.622801029214037 9.317207784054046 4.3696480248028235 -1.0692739822600037 -1.4176905994037585 0.17872380849888572
Ni 3.850909127736889 9.050029031774525 11.250359551948817 0.12586886948138323 1.7435972083704552 -1.0213527330986927
Ni 2.1242571382491335 3.0976548250881124 7.99700891377659 -0.1093374474852633 0.2093127370293363 1.8439576491680887
Ni 2.4381735664148776 3.4057848610561594 10.693980266665674 1.420664851540734 -0.9123238179927836 0.44481935884522095
Ni 5.858824431863192 6.7321789326989 4.790550379320942 0.2887492831901092 0.26100270920446017 -0.454178688572934
Ni 4.773327024795513 0.6619204741623602 2.1112247317704296 0.04133433997241268 -0.2602887138565711 -0.5304928870546413
P 1.583471342679465 6.108802156532518 3.3028028948354398 -2.8902020033021385 3.9956601487921835 -0.8463058592307617
P 9.506428390647551 1.1591297129274418 8.723134153841887 -1.0953508818527136 -0.1356506314584954 -0.11582176965802633
P 1.868651170365006 8.131732311152524 10.928034249333718 -1.5503096431247818 1.620671737788112 -4.123390754072654
P 4.373275218239933 7.9589033814920445 2.8945496680845384 1.8754222954352733 -1.258206098750459 -0.4182534354312345
P 5.599385676864192 3.229690620042961 9.754755784165958 -0.8317765552663352 -0.3283239601589378 -0.23822839162242196
P 5.510719914748031 9.03111627399652 9.443241359963952 -0.6405636131615032 0.35819503668675734 -0.15966422076427342
P 7.052430623061801 0.08080482737813112 13.486290338460966 0.1554239574306807 0.22986536436970734 0.08236528977179364
P 2.318705964159529 5.101234986506816 9.298466199292823 -0.11964808538265201 0.20196606685627796 -1.0357413977201968
Ni 4.7921281479973565 6.359282236794569 7.657596078703726 0.7483224033057371 -1.017318415128319 -0.6507850337791953
Ni 6.699535122053049 1.5969233091069088 8.892759171166535 -0.11396440473431341 -1.039482352819868 -0.21035069137554743
Ni 3.578892877157042 6.349142096126579 4.23599631935804 -0.7149715957594333 0.5042082423264993 -0.19372388145214378
Ni 7.22641311000928 1.125844003468663 2.0469855452065095 -0.08591983989227138 -0.46704603145390533 -1.4644715643130393
Ni 0.0355630548124706 4.751883883291185 1.8012899368211066 1.3279022776950165 -1.7979960948363098 1.1538807597678062
Ni 1.9692897407744723 0.7896369413078989 7.509130465002329 1.7649908435548827 -0.21402942577871528 -0.3600542013826831
Ni 9.099027307828015 1.0976190614625323 0.18665208105365932 -1.3511360514119763 -0.04527789800119299 3.5664766967120056
Ni 4.113278290360126 1.6776537134342657 8.942619824320872 0.35613995392994147 -0.38943008344163904 0.7923240056976677
Ni 1.345438517659405 7.649963994846827 8.106029380279505 1.0494268656270895 0.34114553740363823 -0.3967052769468135
Ni 5.163703834750444 8.324050777234506 13.039340846459998 -0.2478108931045345 1.4191941805324786 2.5969054670609792
Ni 4.224977986690914 5.90412946402201 13.428859000466622 1.8995037618645094 -0.6543185008537505 -0.7840147145010239
Ni 8.98102025794411 8.186163469912533 10.054832315752098 0.9952976878828537 -0.00574718689642236 0.31700622115327337
Ni 2.791190004881139 2.9283423845767165 5.801285180445223 0.24230024769895045 0.07322450381279003 0.6749132942859667
Ni 2.904945637989565 7.084339506081256 1.306828769205864 -0.16818819907488453 0.3145665013635292 2.4818928235678093
Ni 1.1451753909072717 6.899826157449222 5.525989664190636 -0.276916038000607 -1.0286060722269963 -0.6553983641814906
Ni 6.585221316063815 6.882699552889799 9.381126951499638 0.26641565268991535 0.6460284929308164 -0.4493516994979358
Ni 2.8349600616177386 4.766684767513913 2.5734365309089244 1.0805829795149196 -1.4290132235054291 -2.337657792874413
Ni 3.9540501732286395 3.3445625989130003 0.8357308578049245 -0.38226878980650936 1.4077373448457884 -2.279527978611216
Ni 8.288374227269605 3.0148870897458107 3.6968413188884615 -0.014673285741458602 0.3364545596858722 -0.08771061324410702
Ni 7.8400683751682765 0.6106699705348145 4.185250962187624 2.1205949795860124 0.44855620017983394 0.18179164879093207
Ni 2.432405779979874 7.693399147854944 12.753165610470353 1.1420423723719815 0.5999877486216699 2.5476912101198574
Ni 7.9243524801701035 3.105441336775367 0.14179916892829422 -0.49989058878775194 0.8923851700873275 -0.25363855552990516
Ni 8.605881567635207 5.029360925221593 5.896703904131011 -0.9000696832157788 1.1364435381279656 0.0008029555172695849
Ni 8.6206359374512 6.352798128495864 3.6777387823309837 0.16425826789285905 -0.9593305257596253 -0.09014184839341895
P 3.277060891860765 2.218411600359894 12.520119129852166 0.6885843640151561 1.349798306437159 -1.1115143789864534
P 9.309207306095816 2.4680079068940013 12.008617874474027 0.4747642260337695 2.7850464551087066 1.3214444378848145
P 6.725490161010565 4.513264976746279 3.7491663053115607 -0.6781276874582063 0.6694733542173181 0.6372818570864379
P 2.1244711045201092 5.577356453835017 13.397978085835984 -1.5121788976913313 -1.451447127028913 0.7337655885374847
P 1.4480306931516949 8.877907121096401 5.827018810826686 0.8188719313895252 0.9464073899400538 0.6924219925936913
P 7.201695354270886 6.621846759926089 7.09630208120508 -0.4008606938760838 -0.5855160373680561 0.057247154547927205
P 3.5716924469946343 5.0973649878665555 6.175254498568836 0.8324789806499986 0.44641241436395374 0.2986770838267824
P 8.020795451092171 8.26851257559423 2.819649379497208 -0.5434108806678899 -0.4502209894767666 -0.22368340392871153
Ni 0.8473548080477261 0.4905111641953999 12.117421583841562 3.5002016276338557 -0.6828214933894499 -3.027464459332444
Ni 5.5513735062334595 1.8787261908635686 -0.03654171793015186 0.42304648594450367 -0.8051365840813037 0.12924164260835805
Ni 8.40325550902099 1.3176601139579198 10.627140924765332 -0.12442133840157926 -0.8626483051445272 -1.7994353983859979
Ni 7.13971025585729 4.22747115889185 10.826107229857723 0.8837552623264715 0.5141172739100952 0.6958047930229951
Ni 4.834456258125206 3.608792337805593 7.477882086558495 -1.4086575426672125 0.5229603261230219 0.5903422551121059
Ni 0.3125451834552291 4.274050685795178 10.617024971588842 -0.7453728337591098 0.3813457637716077 0.5387214456120206
Ni 6.229516344888335 1.5468645045798857 11.332039780461681 -1.2296149173763273 0.6442546888598453 -0.25767518749312396
Ni 3.1630633838373226 2.405697207633269 2.6896602184386516 -0.2425082499446985 -0.3284728270319762 1.9154065491376948
Ni -0.28997918417234486 5.312317364265254 12.98077920838202 1.1323575409840498 -0.6223594314486508 -0.8862949980291898
Ni 0.6928079008099391 8.594085514087489 3.847908018214418 -0.598424517899608 -0.8869300605100274 -0.8229409592525762
Ni 1.2000530879719271 1.669020639544454 4.3920595962553515 -0.09057945015146981 -0.12697907182642645 1.2483132651167792
Ni 6.844325167334332 8.560427689374839 11.2104520515474 0.09294589350111734 -0.4123864351274962 0.35094606843382786
Ni 5.710713257941108 8.484916201483026 6.799397832158192 1.520810348114084 -0.5621177130487739 1.1251180858128171
Ni 3.6134251727162896 7.709390800890057 6.193390465754384 -1.616262295866507 0.6550818613823363 -0.1558888128822412
Ni 1.9943889146480844 6.015345410522766 11.284058309339393 -0.20064220583853187 -1.6523225319241737 -0.9994929569111237
Ni 5.211641582330401 5.398331805197581 2.362489044930015 0.2555781957547792 0.6309363744843843 -0.5650117467671172
Ni 6.820333036340986 4.651282524407107 8.307896323775823 -0.41439806624088626 1.117090330412334 0.8870169637968787
Ni 4.88378943790718 3.829800889961046 11.862398906617877 -0.5608810124281953 -0.8029321202308172 0.8775306215729984
Ni 1.7824320660430488 0.61768899451096 2.18306065124213 -1.6527202815832247 -0.04054783951537533 -0.15278060627056267
Ni 5.675278582891223 3.0164406709307228 2.2961799672664363 1.3706828631956522 -0.005854144787931854 0.5821869729948231
Ni 1.4458538189165484 4.523665598091979 4.5290882476290175 -0.3522131080717095 -1.8845198868611672 0.4786969854292723
Ni 7.224933951875142 2.82028011485252 6.998255293538827 0.6477547315933039 -0.4576188246027345 -1.37879597922109
Ni 3.5073630224816505 7.271811170981566 9.49100607395086 -0.6401218976383944 0.1441956928150291 0.31036120503292997
Ni 6.254187586219996 4.715593343157398 5.982183429385898 -0.2491039008843452 0.3955166559553511 -1.0348026879560113
P 8.018441822111436 6.405843157935203 11.024556294747233 1.0360489016582868 -0.5413905078037515 0.07179111380037313
P 1.2342411769213437 8.462347411335738 0.733637316752822 -1.399813976233654 0.6072362026539672 -0.1834512958815421
P 0.4963896549184303 3.3468138961989213 6.1233918653486725 0.19305719440242236 -1.4869766873940906 0.8512148664966052
P 7.056337833227449 0.8170925350266507 6.152366619591354 -0.7048733309831667 -0.9264458592164624 0.7801714294955338
P 4.958082248342565 7.085381428792095 11.45011567166755 -0.2311426884202342 -2.0285502577429253 -1.7250212451404807
P 4.060130929225972 1.6367024297457402 4.684103089798548 0.4843778378641336 1.4366519709976096 -0.14779343746861642
P 0.7919542890513818 2.6317665272413695 2.608524208484575 -0.4762755204719733 0.3930077734905683 0.09509610707490074
P 5.987036742584515 4.33691025505537 0.15415432564495277 -0.1688633707650382 -0.06176561124357104 0.5458914809978985
