# total energy = -340860.0443048185 ev
CRYSTAL
PRIMVEC
9.38569176038888 0.00000000000000 0.00000000000000
0.00000000000000 9.38569176038888 0.00000000000000
0.00000000000000 0.00000000000000 13.73690861159169
PRIMCOORD
 96 1
Ni 0.2383796764318602 0.6883700978299134 3.071036824860739 -0.32190005891046497 0.43360883484138224 -0.6235943322970164
Ni 8.249788413812565 4.686078795710826 4.803261034459521 1.1201316883418193 0.5725304237416655 -3.4113008507363896
Ni 2.1243668584097954 3.528297403095266 4.092994117756004 -1.5991937704199943 -3.335480818282281 -0.4124062326218381
Ni 8.674828850807835 6.232080556551343 1.1462435617362987 0.5380920395581378 0.440330469835932 1.8218088809851913
Ni 5.182347247464676 0.2538435421738865 11.94359685966165 -0.8647159863068333 1.2467400070923882 0.5102896726338889
Ni 0.35993564754021856 2.0767250870414258 13.438804195271967 0.2424704547282276 -0.327496579161636 0.31998921504099725
Ni 2.8483228065437225 1.2419428906179586 1.656217939165725 -0.18781522927719266 0.6036891087326571 0.24484641115957187
Ni 6.376376181653256 5.917978996146721 3.537858607290096 0.8954815496244644 -1.5733626682895032 -1.161838324051986
Ni 6.502529264585142 0.07009140748657341 9.825969866503947 -0.9477312509578 -0.2843416410407168 -0.7401380677227317
Ni 3.1769252607159024 3.103050480881301 9.6542304786989 1.064779693934076 -0.22347411613138288 -2.139394885901335
Ni 2.730701317420711 1.095985998074713 12.875892639183778 -1.2695904293280007 -0.5982810503432083 -1.5612059783223111
Ni 7.567138895109726 4.402828004117836 6.727554978782385 -1.098135386576386 -2.3090848663327264 3.842143435686544
Ni 3.1634661787335854 9.277277633430549 8.191730401730128 -0.09165777081731312 -0.039506542735054544 1.4882077315877145
Ni 3.3378054031558597 4.1675193260295 5.751877593381267 0.982477396189734 1.048843996540426 1.3333134214082587
Ni 5.270234865095372 1.4562557762415498 8.203365843803683 -1.273703937275742 -1.0365806057920406 0.5788517379740031
Ni 0.5094187444772971 4.487890528529092 6.789797132250959 1.1968428651516292 0.195465803843915 -0.6671418778706639
Ni 2.4235733259929813 3.421169117358747 13.393018913733517 0.8965734971370624 0.1628207641153841 1.7310214285879737
Ni 5.7262386992033765 0.5324099350099917 5.665306788304351 0.9729573725144403 0.5391307652352972 0.7675735382258652
Ni 0.8427196759440013 4.9879977282123455 2.6854284946522977 0.24787851311767636 0.7387386162720438 -0.722189196553795
Ni 1.6906821993045453 2.738970111860335 11.318827963467003 -1.9156009245366883 0.2997636320227418 0.1827316441066982
Ni 3.463864629170156 1.7758855090921848 6.366301580119211 -1.5334619754398235 2.284366280540124 1.1644559641804912
Ni 9.042738582066447 0.44739527762670683 9.097418683684843 -2.321761176248814 -1.195239010999619 0.10388593745238882
Ni 1.6431155134702473 0.9294171878596638 9.899324679015102 3.17919219885846 0.5682600785010858 -1.3250802348651889
Ni 4.669625678057409 2.447497454286514 4.390700751796112 0.02375236522459135 1.4192767129439559 -0.5726859754829233
P 1.2664864745675817 4.741961204443545 12.24954506963528 -3.8662608975600388 -2.884320090600065 -1.7684476917552316
P 4.462558546471717 2.0634818759695643 -0.29898402668849905 1.1337009423858218 0.17105369354813768 1.7713085582427945
P 0.9379806930205189 2.7947680493672222 2.2026031692047754 1.8664339758937338 -1.290841625397293 0.03191998863704826
P 3.1339951066105196 6.073612536893433 1.3032990347844884 -0.8835225774903752 0.8225257260920286 -0.3425881833874358
P 2.4328088466837765 3.8294748659478284 7.613544570873443 -0.23038009922259678 -0.6883995016978596 1.331220800545288
P 2.215971209977031 8.243884813696194 12.02589435928072 0.45096660939353944 0.7286172115673258 0.4798077019949479
P 4.228357380010936 1.0970090384764373 10.142028343640305 -0.5267804712000606 0.08309831128307624 -0.2721103890818475
P 6.9186439087176606 3.76140982931201 2.738054068344663 -0.14463432301434445 0.7864305230313683 1.1909295849909878
Ni 0.43748867997514773 1.9744398182525191 7.5539951723705085 0.8933868718789646 0.8930600846671652 -1.4028442784195452
Ni 6.9537088531290525 8.378588261820473 12.890014351004277 -1.241316522083972 -0.8099728291276824 -0.24193052306435756
Ni 7.260470802578184 1.9257280780236308 1.6521933545394922 2.020890427204823 -0.1568195522266267 0.3736892756676145
Ni 3.066605839781345 4.926549604266579 11.19765492858241 0.47589988230010943 1.0326491319481181 0.12239556622080211
Ni 4.31370147517496 7.361733030965366 2.659246168921564 0.5155900018008798 0.32035971100653865 -0.8294098548063716
Ni 9.136989698709701 7.720989154422238 12.93423316058816 0.4625579137755646 -1.1632951111031706 0.5519477144943075
Ni 3.5050115018413406 9.100179015631147 5.927558033155894 -0.9322449823967429 -2.6679131657281085 -1.9405331690019938
Ni 7.652576847191338 4.392297257964307 9.940754999577408 -0.6752573078889468 -1.3246156365239445 -2.2933970232838248
Ni 8.226014456587176 6.145253522089407 10.932628334677748 -0.8539181243603811 2.0991787186937656 2.0639296656834842
Ni 5.828317482773587 5.420359004779586 5.883600145802907 -2.324264402286642 0.8129967035556709 -0.8566378372843891
Ni 7.308103188254794 2.47847023709101 8.244288398441828 1.1636717777162993 0.11549369689464627 -1.932668421541936
Ni 4.949854276904023 6.818845848244872 13.353470424368878 -0.5322885455024832 2.10632638548214 1.623733150322255
Ni 5.859121323126421 7.765956003639309 4.66197727784305 -0.9467316060486922 -0.9110848033793599 0.7192260001604129
Ni 6.9122428669380644 0.0037777409329725624 3.646737324539657 1.4672681532215697 1.9835796065695064 -2.2026075140040775
Ni 2.219537772845427 8.472773678621417 2.967281756742383 -0.21136190624888113 -0.4707088250174732 -0.19364803390888585
Ni 3.1640011631638445 3.662127981885963 2.0769935178257315 -1.640439921553975 0.5209754344825093 -0.432750600606145
Ni 4.02654623581025 5.396922932457517 3.9525344248759686 -0.4828140929214395 0.14365421848926227 0.12499135197243635
Ni 4.861797716821665 5.074468106387442 1.6821534212031983 3.087855301715676 0.8015658360109099 2.4646839158886906
Ni 7.227695966955972 2.1369249139832545 10.428305082256378 0.15358639000130966 0.04174391670600553 2.192449599634469
Ni 5.084482639494229 2.4639599576316917 1.9427696785503346 -0.08077969045222862 0.21653368025780773 -0.41062265835885414
Ni 5.730734445555908 0.42521407229280855 0.8202362513354653 -1.4729052969026892 -0.09044318168392167 -0.9048213389681513
Ni 8.146583347231283 -0.07842120892263092 0.871897914484188 -0.09717664375301328 0.38647511457837314 0.7262998762880589
Ni 4.667542054486924 3.1119293452852563 11.573098554615921 0.4396473277259783 -1.3420245760290113 -1.1345617477242202
Ni 1.1140909974777047 6.768510383341687 8.4942312471207 -0.4493175038258907 0.6634538874961154 -0.7753902060568066
P 0.31248815999125906 7.920660360901886 2.029285108045874 -0.6131793076112795 0.5106177453972691 -0.12217393712829927
P 2.427252517162485 1.010735759828279 3.9524386908200277 0.5563550995333838 0.13867759121027728 0.7316405717746819
P 4.367387632036086 7.110309120126934 6.070861590638888 -0.9974589572002306 -1.1488542530874923 0.01624114444921074
P 7.982784254654297 8.34980234519581 10.90555342966074 0.4239625700008699 0.24920314546637082 0.27743205840507706
P -0.032466046363342584 2.566348469029947 9.676168594616241 -0.28445142714570365 0.9206040557237047 0.24776692724047653
P 7.8842908053360015 1.9447247181437213 12.47168468361665 -0.5319157355440968 -1.6351599041019582 0.6169261762482213
P 4.907374636003068 4.847174809061239 10.128538288875184 0.5076080120366677 -0.7045300887111351 -1.8669592522695846
P 8.531180838437287 5.818058921681068 8.08382685785432 0.3738288865692723 -1.3381712637211922 1.813639972021154
Ni 7.556767705716099 2.4172379840556983 4.496310432606035 -0.4637642753788401 -0.5032967862558235 -0.09045269476561842
Ni 9.241255348459745 6.871180465492711 3.9498003728665902 0.029574114112691004 0.7432087362282555 0.42386923895611517
Ni 8.947314253953323 3.8647838383449535 1.1719312615113362 -0.05934980271322682 -0.28999935354712636 -1.0381178683721735
Ni 6.87525385571609 4.147715516418141 0.5945563544226241 -2.0809560250381516 0.4453400072353814 -0.8988306686023553
Ni 0.980401204063391 -0.021611493844130737 0.5661064455629311 1.6492132968712307 -0.492712582982074 -0.13500374190311587
Ni 0.7119600954968283 0.014550637933881647 5.390349193949557 0.48249836145323355 0.6362840119495429 0.4108717982551827
Ni 0.4584253425818108 0.12989234252864715 11.619487336134473 -0.9428682664385439 2.1990030844822708 1.794133012336478
Ni 1.7782319320319193 7.154515728311533 6.175166660294318 0.5973631665146293 -0.567202583770849 -0.6984612568092358
Ni 5.920409890312286 5.512629740461706 11.89474808833308 1.7679553254998452 -2.28908913993709 -1.2143963006543599
Ni 1.8960786777571454 6.339152528137308 13.092318244022307 1.6666962841473425 3.1589897557686566 2.504986215052163
Ni 4.478608079379502 0.3399065813266448 3.5268689008095557 -0.3562073168327672 -1.162130144260792 -0.8295625783341518
Ni 5.596800624155861 7.460179551824868 10.936159231917461 0.21642672236629826 1.1651830721545031 -0.7995773448259712
Ni 0.7258481035925289 4.974041204566805 10.085569653433591 0.47342390995579114 -0.9047202946139128 -0.20571987747175538
Ni 4.610289334757402 4.581315704297561 13.371987455640088 -1.6908646538634298 -2.138898405880891 -0.3268998261179015
Ni 0.6821914969450045 7.510308531509355 10.632051556097759 0.8558266542370035 -0.9213846426434712 -0.681316369598833
Ni 6.506715283109628 7.888955494140193 1.7211519090307619 -0.10465444018729718 -1.5533890533810537 0.5191790047037188
Ni 3.3115442376143505 8.610649490560215 0.23696055983790876 0.5890592746346242 -1.7459369122472255 0.7197962708415861
Ni 3.351771312493159 5.826937786085024 8.426838226014821 -0.19960065194789495 0.5152017652235256 0.536494870274347
Ni 4.7571941821683 4.122721419264089 7.61721156064366 0.9829381378762363 -0.5831493369080926 1.6761538300158163
Ni 5.964456941736984 6.125402784019252 8.74991626201769 0.3465931907817708 -0.171632191759427 -0.42522549587369346
Ni 7.702302242130192 6.756215127137478 6.381727903094203 -0.20436439188512548 0.8371612166170163 -1.170279512840804
Ni 5.282117150862187 8.32071608643486 7.578968621002691 0.8781610560681458 -0.42957554531227304 0.7681209260889029
Ni 7.838291530025446 7.799434766143442 8.64246604705384 0.11357025461968827 -0.48544973077207365 0.3686211171160877
Ni 8.458798383592358 3.9294137117970007 12.379578197540312 0.45702875642721935 1.735683352840017 -0.44775298755224824
P 3.715053897714615 7.522951058308645 9.92035613710853 -0.5272404415556146 0.5288152422419021 -0.718410189127337
P 1.6424772864306394 5.487748271608761 4.532754135136815 0.20084892253269926 2.2423701386139965 1.9395291532175116
P 1.0753562475885672 9.074706248197389 7.561275653467916 0.7034599955754078 -0.6137647478011042 0.12204538197023496
P 0.30467738730947086 2.4254880071118046 5.293462575060391 -0.7924859851968288 0.4812968849459646 0.0690027524219586
P 7.491734247518417 5.973974033180546 13.249660919238321 -0.1502724951367283 0.6481573663483611 -1.4921482042927012
P 7.248438345743225 0.2406660309443375 7.488977669848817 -0.5210505106948188 0.12684563157235576 0.6575043547809
P 5.4325134756074105 2.5380881511437847 6.407210056219719 1.883588890406466 1.7275679228217342 -1.4665796117949774
P 8.075758917218337 8.507782308882256 5.162123897431692 0.29028243200518394 0.10878594585716747 -0.17179339992763962
