# total energy = -381167.63302425796 ev
CRYSTAL
PRIMVEC
9.23471114635000 0.00000000000000 0.00000000000000

0.00000000000000 9.23471114635000 0.00000000000000

0.00000000000000 0.00000000000000 13.51593322158858

PRIMCOORD
 96 1
Ni 0.7415648513980299 7.038881533719705 13.147435179282766 -0.5456503115213699 -0.4859140720030018 1.456707089876272
Ni 5.7215130491466795 3.8857355846749084 3.1185176291697703 2.406411662510359 1.386286116950548 -0.3463638483797841
Ni 7.181945678875152 6.0200989648006376 4.050941796757753 1.4753180201092397 -2.1553886902264296 0.16338280726644122
Ni 0.2949040363179465 6.224149142399061 4.439740682177335 0.833553701771416 0.6651515869135125 -0.06290846659876263
Ni 1.708495440673841 5.15036463386304 7.664061320478301 -0.2605589367988222 -0.5503544018652586 0.5957076331890773
Ni 4.6340519333956305 0.6787318767248006 7.637705454852581 0.7982316294313544 1.7648682019340893 -0.9417300390690427
Ni 7.9983126140695715 7.0469896101105185 1.970555303311187 1.4252493855876227 -1.2099459781924906 0.23369527963875883
Ni 4.226385609622892 7.964975306813493 11.418936430784163 0.9720577435183064 -0.3713765683740378 -1.45639907171755
Ni 1.4576252775384873 9.155726666791477 12.209267021358695 -1.0305526544304058 -2.4946442096962067 -0.28607096502699764
Ni 4.645724608290833 5.81099740020247 4.440213499388279 0.7072582862755755 -0.19729205841937636 0.6085060705053262
Ni 1.3453865982059725 8.704823425408502 5.335941695274467 1.019336216889296 -0.6527033338478309 -2.568513546181847
Ni 4.193149884189478 8.865239592817183 2.105160453052073 1.3563674750142447 -0.7916737737081785 -0.13133632035385767
Ni 3.261099722403122 7.922043134671246 0.059381963116000386 -2.240754200277128 0.7779541101292409 0.4548754575296424
Ni 6.417948790619577 6.385147096610272 11.572450575078385 -0.7881907002555846 1.1874246571615226 1.6810823776656856
Ni 0.4319092874870475 5.190203177769611 1.9451995569031495 -0.680380488048125 -0.16578781716350802 0.6884498953198207
Ni 2.352173277339542 9.474813641201251 7.395189011424664 0.4356266366023594 -1.2772931972888972 0.05419216977168731
Ni 1.564849508715863 4.563295576554613 13.2480879900049 -1.146669586731348 0.034990914252888125 2.131256573064917
Ni 6.536430134690349 6.888826712222747 6.585705629922402 -0.5719244147265505 0.352835829257373 -0.1786199359311698
Ni 1.3866657570521417 2.122746113497433 10.750492022281875 -0.875836521700027 -0.24767385330603797 -1.3451903753515027
Ni 8.746047175987764 0.967068186471965 11.704473699581378 -1.6421131954913397 -0.5304607482651251 0.018725858544277427
Ni 0.7117478160328149 1.0600247889206316 2.694347029627486 -0.33580509902733136 1.3963149619414597 -0.3626384171700916
Ni 4.129735122713719 7.917167207183376 6.75149270533666 0.3101927977758658 -1.1852626165131974 -0.06730428167361312
Ni 2.183630564117745 6.583268589649582 11.435141501912408 0.8289339436112176 2.1680837691955954 -0.49612906486279074
Ni 8.58721014418595 5.539967862623897 7.791381206591951 -0.7064005662609705 0.796775613711118 -1.673784815563008
P 3.343584162406251 3.085871078307807 10.548523348576946 1.5859176221363784 -0.39954043240276355 0.8519111212326813
Ni 7.411132740227329 3.2933473337433514 10.52008597905773 -0.7411472257135365 -0.9310566185155966 -1.427974754938586
P 6.038263641635181 2.500353452472793 4.904080428285406 0.22104596630586448 0.4245148429599141 0.6674252134390376
Ni 2.9070778357081015 7.106673548281165 8.69465139107538 0.5872083374688145 0.21799818061847617 -0.44913932637681353
P 0.3911851347810695 -0.21144810470170483 0.7708241102097083 -1.2631858113532375 0.19484822486457412 -1.0880031832383907
P 5.198902275674106 7.263922209764961 13.579999207790438 2.455232283557488 -0.4552546952459321 -0.4612435658395153
P 1.7364489113287302 2.951256693855769 2.7038486239310258 -0.8519391462571392 1.3632251213660265 0.6270804910734039
Ni 5.897702103201728 2.396776932200168 1.2020925087428578 -1.2783100685891855 0.0351354102505524 -0.1311977378934644
Ni 4.018253689695608 3.170220929963491 7.330434293360856 -1.004314032448851 -0.5838011115594784 -1.236976499947721
Ni 8.838024899054394 3.1754293070528066 1.0466750904803581 0.18076886395337255 0.43823347809758717 0.8183240293058551
Ni -0.16628944370088783 3.8098724325672393 6.3542182020224445 2.5963799335748123 -1.2720553459287254 0.8755935524512857
Ni 4.3760248691180434 5.364388299504833 6.83952166591501 0.9563017662356303 -0.008017213877521676 0.9932793719012442
Ni 5.441405790506411 6.263692175548792 9.130067098386563 -1.5615834162663882 1.3444820364305685 -0.7011321187731796
Ni 5.146984729581675 2.8664543413536725 9.23662643036105 0.2286217217705934 0.1588466099589845 0.6668294888365677
Ni 1.6339713216831062 2.494840329915486 7.427775536664145 -0.9143174513840447 1.362556634544092 -0.140170630816036
Ni 0.906071995846723 7.608109129083881 7.320283498863382 -0.3247138742101762 -0.9942219383201717 1.4909773239130515
Ni 8.863484997698443 3.914972680179824 4.070810277799706 0.019071929029786508 -0.37258755796300347 -1.2703882426389477
Ni 3.1291911083184063 4.007365965248263 1.5106352899601125 0.25359741787932455 0.3560718196961674 1.3630315172979817
Ni 6.319275901968275 0.8363859420281374 9.272511594423761 1.4470191731645465 0.7815351426122799 -0.7922556143535775
Ni 3.922692898702284 3.574128726297663 4.233906358384485 -1.8164908112063876 -0.7457628701086768 1.2712187089600429
Ni 6.671192274520807 8.903776042451426 11.053817191698661 -0.8654960590059676 -0.842295452519788 1.4531898207516327
Ni 2.9835320093294517 7.334059840958844 4.078527725908821 0.5038912253067129 2.9215908020260652 -0.20234324769003864
Ni 8.034152528047642 1.8285651550626312 5.358067139721791 0.23839988420327976 -0.07473065604467129 -0.7003139937472584
Ni 7.3092923456511425 9.520433114288515 7.029461204874297 -1.70159026781105 -1.7751145622524458 -0.18013045903842526
Ni 8.502666363596088 7.673527822879466 10.841306171743446 1.0184715548961556 -1.0743804502486336 2.0191482477027356
Ni 5.236071988057961 -0.1387266013276974 5.129945764036471 1.2827267095996424 0.5268501480957314 -0.08609827445166462
Ni 3.707200913987439 5.5192636402227535 13.327953465925528 -0.4518127594439187 0.9695776574089302 -1.941958331484294
Ni 3.3565958704183876 1.2070875640045788 5.491469930070782 0.5771602092041931 0.12243438987853753 -0.696916023809303
Ni 1.8566202075401843 4.48718308724586 11.128546321276955 -0.05943696311039442 -1.012779389607385 -1.0032146287370851
Ni 1.2358167503961743 8.069429124645488 2.630254440353223 0.3989102550179323 -1.3279166758727194 -0.7144545469136986
Ni 7.774703318252761 5.590186221864494 13.452948975242403 0.0646385619159919 -0.25682672344989965 1.1555092965101648
Ni 5.138793540790501 4.559961845829005 10.9067230185968 -0.43155400919488257 -0.6823874911758248 1.0192727106412123
P 2.1638867516763334 6.209826105403445 1.4663299162696726 0.6597772099754766 0.861094330393846 -1.6513200588015884
Ni 4.147244135056524 3.0663211948005715 13.257373492067499 0.5815714508980112 0.29848142287620855 -3.0200612248898375
P 2.848335838074884 0.6216502801565811 3.254595715339284 -1.0275390644150626 -0.3356238362544607 1.9729622360649763
Ni 7.073474761692356 4.517500643955474 5.949551312431639 -2.46922191296836 -0.08482146462177005 -0.29238045218479325
P 2.360493752086835 8.676796077064402 9.968744172251329 -0.889361038549023 1.0467668022964232 1.4607658333266778
P 4.794292641292437 8.469301352206555 9.12702610800445 0.7799806536409664 -1.4043391177975169 0.5065834274268952
P -0.26917151369493747 5.353786851103178 11.759916134920246 0.7569577103832319 1.0151939125861484 -1.6311600389139456
Ni 8.960938904477777 3.2293415507539107 12.155662293538926 0.3284288611679182 0.7095841061952748 0.5722231769138918
Ni 5.594517301394439 1.6859350413312928 11.524860414631439 0.41098286991175026 1.6630574018431745 -0.9869565150070098
Ni 2.380348381062062 5.305553954760104 3.4446035911610893 -0.39252723430972397 -1.0715524938815353 0.389692078853774
Ni 7.724374142478349 1.3043567765608877 0.5448322589158711 1.0497253707041148 -2.0727979147073916 -1.108692593266942
Ni 1.332153257126205 2.118535085212455 5.1640190777713055 -1.3336494645914385 0.21594309786166035 -1.7014100334794438
Ni 0.5084281040864564 4.038523880672642 9.353431674357864 -1.5273689751682082 -1.7753019956729037 -0.6372196363899348
Ni 6.6517532075473875 8.733294039887861 1.993937591946198 -1.4051387308806769 1.4121545000768776 0.42265902069809785
Ni 3.367003389885867 0.9059824191485557 11.827104199372414 1.5627512113222441 0.8279430404528579 -0.7727077741286369
Ni 8.51936272135758 8.783540103261911 3.820102645580614 -1.1812419253895785 -0.5001821518862418 1.0242573083399973
Ni 7.438125800922486 5.580554418133722 9.758395921647741 2.316640052972165 -0.9977929435008815 1.3809148253363057
Ni 0.21945644621208465 0.07367175515147292 9.424335786577302 0.77449340527415 0.9168864976628015 -0.37281227237929987
Ni 6.562158039957783 2.4206117216815914 7.2876424888281095 -0.3280048862566222 0.9001720131215981 -0.3511065052710921
Ni 6.585281756680558 3.609248332805936 12.75471615897947 0.06572048212626101 -0.47096927776771147 -0.09599753584324756
Ni 5.360084924108343 0.30437053871911157 13.231490443652724 0.008396194483495217 -0.8461765327417491 1.6219634600163422
Ni 2.535916325116327 6.425096457050659 6.056841110058189 -0.6614168024614286 1.4206142008084566 -0.8948608853213298
Ni 3.3294550543448103 1.6322444306978188 1.219108387510185 -0.5519767679600301 -0.6668773113553675 0.7141349587907507
Ni 7.371331135165363 1.7770077627051002 3.0005506585101243 0.3796799460334106 -0.08055677580814513 0.17228268085923235
Ni 0.20147276971610484 0.5584848558819061 6.841035235072703 -0.6150292163358246 1.7257591517477697 1.2211739856978259
Ni 2.337056055184916 4.266307265929825 5.658215568502542 -0.8007381979032919 -1.1175626420630624 0.08473713243807987
Ni 7.789894418096597 7.742326420956414 8.714114468297792 -0.8600049539844091 0.1380659257682074 -1.093122249632511
Ni 2.8624095378694174 1.597244875434512 9.042740899326825 1.3798933260503268 -0.45895759801881597 1.5351992698459045
Ni 7.6570346287633 8.015738514012014 13.190415371922997 -0.4194906502724453 0.8170875857955928 0.5052888769851879
Ni 1.7173238245344535 1.992065715995836 12.912960322325372 -0.5348768750549497 1.9642366832665206 2.979520070242682
Ni 4.207094298027893 6.538461771143628 2.0608421507660215 0.40587485926122363 -0.14789011094748078 0.6467216623430991
Ni 3.3553676538352692 4.934724893769775 9.311126539102789 0.2619506749400263 -0.8448177047210096 -0.24143609992644227
P 8.402275818670649 2.080875933137583 8.648223880762378 0.592269811152122 -0.33418376137382444 0.17784346277646146
Ni 4.864633436131649 1.7329489558023994 3.322987062654462 -0.45063519419604975 -2.181395655813153 -0.743831457413919
P 5.905089872122742 7.516620845708267 3.941002560501904 -1.4661862330113007 2.0810043617775835 -1.3867681987932892
Ni 5.5144338862906395 4.964710000877943 0.9731002997959735 1.7268032767415682 -0.5077399096288416 -0.25932249328855983
P 6.494809291531583 4.449339240947963 8.202400653983714 -0.8363009254992501 0.3805957729794606 -0.8027696265110239
P 8.545746291116755 7.213315992656011 6.048082910002326 -0.4102107676324161 0.4504814422270048 -0.40011378840773026
P 7.468646521277427 4.733463598939033 2.0602742160302188 0.516564192788691 0.040317725782440236 0.23189602164649098
Ni 0.6695719667338575 6.377768562400409 9.494672887532053 0.509286171070039 0.3900129525283025 0.6047579163168036
