# total energy = -340872.34534559125 ev
CRYSTAL
PRIMVEC
9.17874787295397 0.00000000000000 0.00000000000000
0.00000000000000 9.17874787295397 0.00000000000000
0.00000000000000 0.00000000000000 13.43402531412083
PRIMCOORD
 96 1
Ni 7.735463320130053 7.307816271335287 7.285325585072666 1.224973047728942 -3.8171219739415427 0.8985702158521169
Ni 4.28307918651889 7.73609665374313 1.82713534810713 -0.2216224076346248 0.7041094562339487 -0.6433041520211179
Ni 5.255237103843027 4.540111667199705 4.612035418775136 -1.9063331260815168 -1.5658745874425741 -0.037116445236323174
Ni 4.98193988167857 1.482184229558902 1.056145297416469 -2.06515325367794 -0.7274152208394246 -0.10624106794812671
Ni 2.4937556908620193 8.343803202359899 10.745004069731825 0.1490892734619045 -0.9758629761970097 -0.8467511742982965
Ni 3.9114775731073705 6.455284976898451 9.384741150064123 -2.1304009099328405 -0.12555853732981603 0.5428881753952005
Ni 2.603762985828972 4.570309748171025 4.80755376600501 0.03621578779892473 -0.3632796502985163 -0.744898979446485
Ni 7.8407252023729415 2.193638166995984 11.060434498912283 0.2867751901828739 1.1024386419374304 0.658344334183692
Ni 1.6977838416973032 7.25421238292419 8.278933318634454 1.076164795842566 -0.4866928591505553 -0.47938269864238736
Ni 0.6872752794143917 5.992878009368613 3.9381170534730434 -0.4361133464307908 -0.5755951787099184 -0.9620044730473626
Ni 3.580987572057719 5.521595192507689 1.4527287093020436 -0.26736696085959116 -0.3774783103964015 0.3375529349563735
Ni 3.2433656837999463 2.679148043281085 7.787772087196149 -1.5925744653312637 -0.2991367970720203 0.1959895375578689
Ni 6.77698173734916 3.068271886654383 0.20995651785841116 0.221262967412677 0.43662679573209967 -0.5049708315241368
Ni 0.6516956984815259 0.8117088126374606 10.758962191839146 0.26970923583952255 0.9404149198020451 0.7029051515132024
Ni 6.801690927007151 7.178542784283593 12.4727803884449 -1.2804435699924206 -0.3002786239859474 -0.19747614940572442
Ni 6.50669514453382 2.1584193108601313 5.874900807499715 -0.4796608920044384 -0.35896739607640754 -1.2280180052028529
Ni 9.083233963748526 6.820993834083956 11.966613739750692 0.608575747400997 -0.7263458990346457 0.7095972188213973
Ni 5.7349184751382225 0.9637593628898633 10.37055704443547 -0.9894394293298636 2.4255910636522873 -0.08294558775529587
Ni 7.407938054689439 6.0748075141558475 3.2612440491847297 0.4433522873813913 1.8978335732509382 0.06992963511160215
Ni 8.34100368421514 2.821446173766914 7.498080703201032 -0.8001255040199575 -0.5766706711622843 0.10040954886801418
Ni 5.194840941900386 8.020096296093774 10.667207755176014 -0.8557726610706166 0.3571930777848042 0.22525563351183783
Ni 1.3295324713114776 8.617302356980696 12.841773401670386 -0.2422665662475376 -0.07423263336233021 -0.5760088692085693
Ni 6.6155826322428695 0.8778857500803252 12.679705165833758 -2.791630793194444 0.39367008966491557 -0.5836059648295367
Ni 7.807351274588223 8.782565715001555 10.95106788055682 -0.6266043227679337 0.49443625054140006 0.46628241381500335
P 8.47923562933006 5.68507787341352 5.658640325504192 -0.11627814046915458 -0.8013825163555102 1.2103622397943028
P 7.474263687850158 0.03798716653735739 7.003197489442402 -0.19883420609551564 3.7356221174938375 -1.237617218855514
P 8.145808428915416 5.063309482836854 -0.28682210736544056 0.25451427326663906 -0.39292884062351685 0.346589591237345
P 8.58063325865838 0.7403780081838374 12.806777589111311 3.0999330588158163 0.053466861569888564 0.6443171666666645
P 0.7161360167998392 3.142472885612484 11.444083219094278 -0.001845023628538758 0.3419081266012757 -1.1582773461736051
P 1.6914688630625712 4.853859631868905 2.3915521674579296 -0.1900016954055502 0.2216337204885344 -0.2381566578442221
P 5.793515602469805 8.626526998736374 0.5314017806134922 -0.2148274961999784 -1.7571818890334254 0.28316536134442843
P 2.2283613707389947 4.947336001659763 8.432631454155658 0.46611117834446175 0.5842335711112068 0.870261598715411
Ni 2.9877375515655187 0.1842009509266408 6.889801400708091 1.1803515523648251 -0.5069863192922688 0.8922563578189472
Ni 2.4808136561600254 1.4967417239116416 4.8153731414394985 -0.02353407856619818 1.294236510011455 3.539400666430821
Ni 1.029892242342253 0.27186717322362536 8.433303338510399 0.10868155906881927 1.8946289502707114 0.5770434811206707
Ni 2.526652323749926 2.835104150814125 1.5155728433404443 -0.007362096792026031 1.1947157915062974 -1.887236771571698
Ni 6.142252954574468 6.383828423597014 5.531177805435974 0.7449048929837558 0.43804758733902627 0.5217336528047725
Ni 1.5091697487247626 4.45305124227175 13.103642164680618 0.6630319694673484 1.221859956021257 -0.3643356023668564
Ni 0.9867245904248917 3.172918792780225 9.141464859034286 -0.2707135087343208 0.20857045954667308 0.3486737274598834
Ni 8.44353029954938 7.742576849842142 5.090635533554094 -0.3797881894765008 -1.662058271154699 -1.459948479631705
Ni 8.367585338468315 4.3027676010123495 2.2008829528046965 0.6400797315465492 -0.4096045015069849 -1.3354284108687322
Ni 3.8378915502663147 5.205111960929841 6.837986450285234 -0.30455976785980454 0.11435572663546113 0.23717038267155283
Ni 6.230414829264295 5.317386406656646 0.6852467761029444 -0.3633940643891935 0.9898073541922436 1.2765336934150533
Ni 2.6812683340726884 4.6954527986157 10.765356107706813 -0.3319260756878993 -0.49463679658798043 -0.24423448860718583
Ni 5.742380797274904 6.061636010753463 8.252777558289203 2.596438811837206 -1.3148505867173805 0.3204473856243384
Ni 0.47808885851448935 0.5505357987268095 3.7099407208036683 1.0425800179085851 -1.0977697757068514 0.1264648511941693
Ni 8.32200367582285 4.682042647764909 10.873674513038894 -0.6864279797937856 -1.8752124934173124 1.1956442168578376
Ni 1.0116081762951803 4.148243378169743 6.771863667455661 0.6013401488845063 1.6594043784716195 -0.1101979957133457
Ni 7.455419718174133 4.061100344509647 4.48039565048502 0.9158230893952938 -0.021126754676286195 0.39725009370669007
Ni 4.674901581808774 4.052518215115063 9.204967109305406 -1.6401059352533238 -0.0557317463446653 -1.9109947932232443
Ni 4.341538632630239 4.503470105121434 12.785349801868897 -0.29595505690992896 -0.5558462782177652 -0.6367506671733163
Ni 2.122658908591358 7.632698057347409 2.7509120846410444 -0.5480319243796691 -0.13099590629530344 -0.21107394269481713
Ni 2.7617384179254434 0.8823126602482486 2.7936593498992917 0.8075593345901835 -1.5705953899570113 -1.6530583816489337
Ni 2.7220678690020255 2.0577651601210745 10.354987134176609 1.280492163842169 -0.30178297644561575 0.018835644649264335
Ni 5.981358680609036 3.861793010098934 10.886678963227395 1.593764628984623 -0.24353334877510316 2.26161227467306
Ni 5.931426291404178 8.240037456043554 3.374936611479945 0.7441291911599959 0.18821734981161778 0.6873430354088872
P 8.405163132844176 8.139777991469167 2.872799433164586 -0.5172167387710254 -0.6394107305039827 -0.6781526271588707
P 3.637088079929059 0.3295087928867846 9.263875396194717 0.8617648740983095 0.3376200407488831 -0.8729653707998192
P 5.3401497017353305 6.037780444660922 3.1151890571361163 -1.2157800683757642 0.9194102925259198 -0.9174487979241748
P 4.298527019429143 3.0448201854745274 6.02419314397343 0.5645895716280341 0.5342310139408347 -0.9046668156681581
P 5.597953197249456 6.023966428897445 10.98228939193188 -1.325666446385962 -1.6911251066136679 0.1603375926822142
P 2.7450330965370537 9.178077966993708 0.8554675759270266 1.1950135252523741 -0.16571042695835334 0.06615139901609253
P 4.709358601859331 7.430187339879251 7.140037018483354 -3.6317428649096675 -3.322742287669691 2.3232927824019924
P 0.2774340838950861 7.990017538846656 9.843567487993075 -0.21773952764045082 0.7801626877447854 -0.2986593432149695
Ni 6.104014290341484 2.7958099305593462 2.702925590015494 1.7251731973373128 0.3232588869312046 1.3844230955998804
Ni 8.328915273078596 7.874787536258828 0.4169299426117527 0.41138010535016895 2.0335561955979498 2.9801319927950676
Ni 6.057340356682163 8.39197327194576 8.554962136208353 0.0763422235061653 0.7346320503028381 0.39348831267141265
Ni 3.93752685997564 0.25940885854205303 12.310780075343589 0.34960318125268824 1.1909051595109554 0.816978056800922
Ni 4.5060401545658015 6.964733028008234 12.774683178799968 -1.5933835914961205 0.01674045268313246 0.3673047122975094
Ni 7.399420176530963 6.695401024986517 10.077749475489057 0.5158275717329825 -0.17931361956408473 -1.48895849371081
Ni 8.310025409662494 5.014790620826399 8.375040317606583 -0.5268596611774281 0.16524042930047025 -0.22376979299493077
Ni 3.7999190697257825 6.922731077088853 4.565217378771971 0.5272664096975436 -0.6479843311056065 0.19146902397969606
Ni 2.038590755516488 2.083814446989344 12.698297637814155 1.5427629411257753 -1.3147441430465034 -0.015007529152425769
Ni 7.75924545623847 1.0784202831007241 9.064420283940953 0.19777594003433036 -0.7001041917292975 -1.7375947109301173
Ni 1.0676444329304111 6.532257957757262 0.9053164385249425 -0.022060322234149103 -0.7082085660039867 0.005792181201744863
Ni 5.337230859866371 1.3043643442527055 7.654291062054105 -0.5574406192880786 0.47241500907530254 1.2751830929244297
Ni 0.7868325697655847 0.9057267285612397 1.3100781148924157 -0.5151403158579709 -0.8259465788481194 0.34796847386274266
Ni 0.9809603366710956 2.98669117429174 3.2681758396861103 1.2732236552052136 0.27898114805975177 -0.49350731096922756
Ni 9.13803108940165 2.6842147121856956 5.2949406962593 -0.4905819097923164 -1.2274335934542926 -0.9444093856734187
Ni 1.5893644701370497 6.671169130225335 6.002322941076663 0.36180949351089303 -0.6059411379916274 -0.16214919196965621
Ni 5.40924731679676 8.629005260700586 5.895105985506453 2.2962149523485937 4.408544092381388 -3.1577525409274454
Ni 3.8414620832443824 2.860602712801459 3.32641224222068 0.8328186233776045 0.38882793108126584 1.7323270347732747
Ni 0.7497495099077638 8.900622771978187 6.221324197229645 -0.2280483657656266 1.2841706411350207 -0.06719500978925846
Ni 6.371648224980314 4.225317325256727 6.893455460293101 -0.07966023213580474 0.13618182137161708 0.3154627879255535
Ni 7.1964046279219485 0.9537361700568294 1.6913972688280494 1.3439788715419045 -1.380865717265925 -0.006418501931834107
Ni 0.669643822351228 5.9987524080985954 9.987297503169339 2.016180166213347 -1.3580248081120097 -1.3530432957370182
Ni 0.1144617413789223 2.8256683978540895 0.39169756431687147 -1.9024736431261107 0.23314686333445653 -0.3427409069152162
Ni 7.511740515997847 0.49831514764166296 4.603518458491462 -1.4058905214450366 1.185457763243139 0.058648662881144155
P 6.687690876653414 3.08256319731467 8.945973130173657 0.2833797913480797 0.15740602085771602 -0.33722897595805146
P 2.3200754209108583 8.452589723840775 4.725203874558661 -0.6405165619736518 0.37294982639842866 0.567870556372151
P 4.888711338084133 0.9292013766111338 4.281450876620923 0.11834787851398973 0.5396904943935092 -0.8434239096972765
P 4.735839289884335 3.611718020413943 1.3543242697016098 -0.4870741537493741 0.704156250311484 -0.6850023030908525
P 8.236659676773813 2.1364912818508657 3.253654142450631 -1.3624404206812022 1.2580898848875688 -0.10488558236149678
P 4.47751260573332 2.5581813231835078 11.727057595291578 -0.8772336591578698 -1.1706626072118353 0.021859519077252674
P 1.0956212568819563 1.9206254860200118 6.858889213141157 1.4624432210291007 -0.7656490675096427 1.173314957233018
P 2.1343893485552936 6.428501390188933 12.150928507152726 0.8442931996761072 -0.10219466579289496 0.23018006739664873
