# total energy = -340861.5235466664 ev
CRYSTAL
PRIMVEC
9.35685630789750 0.00000000000000 0.00000000000000

0.00000000000000 9.35685630789750 0.00000000000000

0.00000000000000 0.00000000000000 13.69470501213960

PRIMCOORD
 96 1
Ni 8.230524778899952 7.004916948103634 0.5403163491487476 0.5810387183229928 0.8017010760371935 1.0023422534344608
Ni 3.5909930489649353 0.6398377448040959 11.952738381509102 -3.891709933760762 0.34652531365831285 1.5326500210614893
Ni 9.189714838453275 4.522720735090864 8.433925058219213 -1.4191383875938786 0.2506661031651425 0.43876749622418626
Ni 0.35247652196228246 1.3825878100097369 4.595244793080093 -3.1216997610689465 -0.7256180197296859 0.5717320962100864
Ni 3.3812965409985556 7.6122237103881325 2.1834972873150886 0.057556715368546035 -1.3171419538547187 -3.0540414384900245
Ni 7.212208743984549 8.119926736681283 9.81465272518385 -2.9074726174571284 1.21735101240731 -1.3811624225707375
Ni 4.398798529410318 6.183459814223647 12.563385541515432 -1.9915335713092603 -0.18670451271151717 -0.5286653469275991
Ni 0.8764174367889578 6.749278275391598 2.305873740324356 0.04090470863416181 -0.39836698091995265 -0.5837167793757883
Ni 0.9384833364205044 5.402564652680201 0.12505906372873363 -1.6624796749628337 -0.6482578964819674 1.1118740763187174
Ni 5.277388628246921 3.5326998338192235 7.90598034455452 -0.9934189828029021 -1.3916602367782678 0.8216299537506367
Ni 4.243933199735089 8.545233285835886 9.977811036654208 0.39601365019642765 -0.6201621666870158 0.1409141938502799
Ni 2.388768002221449 1.227292064941779 4.909442415658571 5.65061446191225 -0.8063547727591209 0.6586613512034786
Ni 8.641346914403583 4.927255063118103 2.3041071658428933 1.2432996139522718 -1.0943036715351218 -0.43630463650599055
Ni 3.555446351639324 0.2277215560653684 7.3000031915593 0.14880645211416307 1.1062119929369336 0.6350851065454354
Ni 6.096459763754171 0.9628298766787937 0.5045114025874987 -0.6517368561695034 0.4804419931448371 1.142447064009568
Ni 0.9372388745241353 1.5294249569249299 11.721311510323718 0.9583293381886204 -0.584092160437336 -0.6606043338624623
Ni 5.761839866476332 4.369146651593823 12.083112139652405 0.6307687385582684 -1.0321295119992224 -0.5972631506016552
Ni 3.6293748737687412 3.2806074096690203 11.335518029907288 1.1957460325430245 -1.016038777084947 -0.42848359779967493
Ni 5.750489999707191 3.4874220058753878 1.9190388417946491 -0.14292633918430225 -1.228721973248413 0.9418791630523973
Ni 4.737329592648176 1.3459931447713935 9.48330959900457 -0.3614063445352034 0.910232996902026 -0.6618628888599117
Ni 9.034774653927137 3.854631833867917 5.684234099795989 -0.3214089782066593 -1.0482333595396205 0.12091101125547564
Ni 6.512044539146914 2.80684170140693 6.097485275211631 0.34836005287420646 -1.781800201802738 -0.681300428759233
Ni 8.194566379894338 7.18941544188263 11.520451617507195 3.0644451503218515 -0.7606176757333223 0.00426160348983137
Ni 1.6721731576091963 2.449671780292627 0.35446391825392765 2.2936988707949593 -2.411468508207976 -0.2076867713901391
P 9.309782019311987 3.4033787220168352 0.3656827890339771 -2.267239133941534 1.611688303342579 -0.4416856983122458
P 3.6697122815525556 2.960537424036699 2.246287407629184 -1.0616360060987715 1.1934405243382995 -1.3028417351819628
P 1.808689691955253 4.737264094653629 7.869073160313629 0.4428522078165212 -0.18389763939034137 -0.6089243889896674
P 0.8056683744519185 9.432927605914347 1.8392950334352063 -0.9870701577667388 0.4450281324219174 -0.7671927578476787
P 3.890066248917164 0.3320243053225559 3.212517565910538 0.06807946927674081 0.45544521399018334 -0.1711969039942213
P 6.754733322651623 5.574805664622779 2.116927932715704 0.4257273752107764 -0.07398452190726613 -1.3855332979449235
P 4.25503043138241 2.2788717242300547 6.260781132470534 0.8923352906859986 -0.7407461336203758 0.14939420629683303
P 0.4343901853124621 6.869457738526673 4.4335508296306525 2.2456914896777453 -0.9103697795902064 -0.11858287734293124
Ni 5.567273395250019 1.1865242417652353 11.71168424081113 4.408826399508498 0.41936286644532944 -0.6685145898484744
Ni 2.7598702824612684 5.746784684587174 3.592394706048214 -1.182306619208667 0.11236003636167101 1.3253604851097691
Ni 5.526795634620749 5.429465614725774 6.699380967461013 0.36066201017001115 -0.4348949006426575 -1.38749402121572
Ni 4.866725559301473 8.373647253838765 12.67614782461102 0.9829083130795654 0.5217331385841402 0.5330825021586884
Ni 0.4814074528543059 2.58037770683684 9.55464533623561 -0.2792570274289578 -0.40900774846325044 0.6212312313814785
Ni 0.6801105902790008 5.9167519804333795 6.302672714096355 -0.31859413446568363 0.1887930198094297 0.762304833627758
Ni 1.7268452693421648 8.578225561374213 5.969412368048157 -0.3966394567058847 -0.5660417306935284 -0.2363615136170123
Ni 5.58332976077009 5.5080444944679385 9.56781978999567 0.6140930776748005 0.49014867890963976 0.9542947631079306
Ni 1.6417353038581528 7.374625056745265 8.03761447125001 0.3673903300327802 -0.42023986973364397 0.5620344093063482
Ni 0.9991157656571357 0.547619375540598 8.151184251049783 0.92053463593835 -0.5349347248760786 0.18251824254431148
Ni 8.521401372677598 1.610296266476196 1.6083612685801874 0.19614894595386864 -0.027055461455895338 1.866431404790573
Ni 8.612041240272545 1.6984004259965848 7.151854213381919 1.26781791080861 0.984835354898949 -2.4666024730676424
Ni 3.5653646193848223 7.302436909899494 6.746723853604314 2.3587840333300663 0.7879449027933655 -0.14354057572953344
Ni 7.944700887558691 6.136020552459801 5.265805775754325 -0.3599287315484124 -0.1728717205934829 0.18026235663059925
Ni 5.887614729716886 7.304523488868593 0.9274918372500923 -0.39224826961672443 0.31356917044726645 -0.41682004541881756
Ni 1.6968846152656691 8.604031771225236 10.073660801872448 -0.07262106590083622 0.19302197028911272 1.2819288962886957
Ni 7.257430430790203 2.3695677329631826 8.702834560311853 0.001765576540855024 1.83057608565486 2.527617579298434
Ni 7.444483346356484 1.836329845653557 3.837530307492023 -1.2891889202852185 -0.31128063152340585 0.17200834415192312
Ni 7.949762946851441 0.9625585278442471 10.770748472337706 0.5465067459843943 -0.12131596000337816 -0.5427819888346394
Ni 8.382077781422439 8.285355957191102 3.9559759451429097 -0.48284263216652973 1.145474280871666 0.2825164149065199
Ni 1.5486813673213786 3.7670329445911666 12.133453898260264 -1.0299656715786842 1.3337111710673095 -0.6853167490074777
Ni 2.3507978790976454 4.751832720011875 9.981632376793133 -1.481286836098165 1.364325810629373 0.9227164740810174
Ni 7.096408289627675 3.3611792998166488 0.26423294528207497 0.8482604118539714 -0.5918754039271806 -0.948240843604367
Ni 9.003522753672453 6.9011587678868125 9.219165543857951 0.6881249078802343 -0.614827898958296 0.020483464665332466
P 4.615868240191276 2.396562263572392 13.122498879413172 0.17127043754463406 0.1665504063611454 1.5018741733312133
P 3.14843245667571 6.766466820531674 10.121934695223933 -1.0217062597833693 -0.45508654509918395 0.4347347209157094
P 8.1984401184289 9.383616972877768 8.392868108181032 0.9709863648309985 -0.68850440270684 1.623262895554056
P 9.207577077251536 3.1089652365337175 3.468471564682031 -0.4141813222443899 1.3084189721594242 -0.6139758353706457
P 2.7255212627502075 6.261973195971266 0.4159805704169263 1.8164154778837622 1.7972751575098853 0.5300771396734613
P 1.6648280253637093 2.0558136253763433 6.655174499570819 -1.191105962667852 0.42587444231160204 1.1304389838050983
P 5.6182682624320615 3.1851394041904175 10.015293667561462 0.7856396516989566 1.7089276820127277 1.3333694714571747
P 4.796305858308435 5.985777509828229 4.675522877937903 0.0248697666584862 -1.2478157566550705 0.8285786171543278
Ni 3.840690117886037 5.345347476016312 8.15570361267344 -1.62246302536058 0.6735328689986723 1.3300056971912644
Ni 3.405895716378664 0.27789489125868067 1.006225105122258 0.30663876187602035 1.079659696369702 -0.48300126923158104
Ni 5.175015262771924 0.2611629607091523 5.386866654758859 0.6183138006243674 1.1116527043365307 -0.42777345910652786
Ni 1.6690760381528191 8.584569509988787 3.5138008553358673 0.005133464571823417 0.7222030805108659 1.53668588169376
Ni 8.3694647390442 1.4713843769010375 13.11310459562404 0.4511000496476102 -0.7259990572181884 -0.1921413674563723
Ni 6.207609860498299 0.5883188936656868 7.822004430061785 -0.9455928644585585 -1.4285141723818238 -1.6592938210356842
Ni 2.783599270199555 2.7816249735068186 8.781209460585291 0.45169911668418977 0.252574633041765 -2.2425102637362864
Ni 1.7014226906020526 3.5746185503284993 4.481250212001409 1.350627487206674 0.31913638012239876 0.48033966323901794
Ni 1.6931699432892888 4.068791562319771 2.1059579543149285 0.027678953972507168 0.6265842681632757 -0.0097629929240348
Ni 2.810481518532401 5.284340772525135 6.062645956227113 1.3525439875030965 -1.2976437359207909 -1.7100347990339775
Ni 6.941000262283353 4.321538966415432 4.337879780368958 -0.6773910664024979 0.031895563157016034 -1.6256079987474648
Ni 3.678432871683503 4.306530568808093 0.12552597086128112 -0.2317283857203751 -1.4165636848881669 0.6424559450882097
Ni 1.284378245616576 8.248125025720029 0.22480783099371918 0.8508181452788186 -1.103016111707455 -0.5130019293587293
Ni 4.763584931604655 5.439280957051272 2.505679115428692 -2.292038195263085 -0.10737878109699574 -0.4331192967994734
Ni 6.125905790730665 7.138570284402407 3.3463149977973106 1.0715234404158127 2.111857085492382 1.3559758960027808
Ni 4.646540015351411 2.8589032502144325 4.086965384434942 0.18846906081110765 -0.42299866342570375 1.5365195313192248
Ni 8.832208070509878 8.05486851438463 6.650751513567708 -0.5778981158114821 0.423069111652323 0.30319682607400683
Ni 6.275119579162233 7.421867824525475 6.185336799610201 -0.18386524349050914 2.748527791357383 -0.23859837336733103
Ni 8.385577245702454 3.2246346949015003 11.776118360788324 -0.27858391262133314 0.43136220489905064 -1.6708213620593095
Ni 3.9299825981646133 7.84486323015825 4.272857114126489 -0.7334614270335046 0.4639838475888138 2.659842472904832
Ni 8.096412956639359 5.196376965850201 12.960339880202458 -0.3397064909642666 0.19584504156020466 -1.0008422718501666
Ni 1.2827407957529324 6.749830329917055 11.918118012963495 0.4031240359889638 -0.013649729572950686 -1.2254983241047928
Ni 7.291236752832171 8.933982597177602 12.81932550500238 -0.6133011779011244 -1.7312849666620054 -0.4721509567806385
Ni 1.8908616045410704 1.7083654780239013 2.7129344195697884 0.27835405599871416 -0.0015863706505133968 -0.5625558290274569
P 2.6511061840898793 1.3605991975550944 10.272370489096597 -1.5488379436752617 -0.8598213772186935 -0.5869067470679956
P 7.465386563472939 4.512044561979908 7.027341590064825 0.08234934893219366 0.1177207864529521 0.3604882035963082
P 5.442452931358559 7.846584891729167 8.237694002245801 -0.2849353087606577 -0.418976172529872 -0.45111599048721024
P 0.21190659743948043 8.95285537646314 12.17998835201374 -0.8097398871812699 -0.8876576827046713 -0.3704813102532781
P 7.150687413393369 -0.06097114743699629 2.521400505490943 -1.250432111231995 0.40362462977446617 -1.5740540379295729
P -0.13986348186734437 4.948729048472744 10.811079330322064 0.729391370729189 1.0369683281487623 -0.5055493297354261
P 7.901397356307591 0.4427552149015899 5.535249554345333 -1.6245433049283762 0.0043392508053022045 -0.07011655431142763
P 6.385109425717263 6.740127269867921 12.26783987641231 -0.4757692702595161 -0.6946596236749585 1.0964492571232147
