# total energy = -340897.77742101223 ev
CRYSTAL
PRIMVEC
9.02906360486606 0.00000000000000 0.00000000000000
0.00000000000000 9.02906360486606 0.00000000000000
0.00000000000000 0.00000000000000 13.21494725746392
PRIMCOORD
 96 1
Ni 6.440268373624839 1.8215503300240241 11.442954559984193 -0.0013673126611718387 0.37008793146960134 -0.18321321172880706
Ni 4.854701643653892 0.4409036105123902 5.820324756970251 -1.5208885096501872 -0.8758131246612593 1.0625423199631248
Ni 2.6318997377820432 1.5420195573716209 4.781947256888217 0.04676296718715172 0.2784859535908881 0.2788839603602552
Ni 3.2979737420640864 4.089172506429369 4.81863234133173 0.3260233370502192 0.4516178698242932 -0.5743211970935012
Ni 4.967781633211006 4.488058467676111 2.3458508842879544 -0.14732883912737205 0.4443208219422477 0.7527747826501359
Ni 7.246220627525121 5.998413099833997 2.5795049859933994 0.06678389039376886 -0.506171022479825 0.22414491694616234
Ni 4.934274779071238 4.49949829095692 11.638601722369794 0.7444248680235438 0.2417528598359127 -0.9686862559429122
Ni 5.644834978542351 7.900863837589717 12.378691473569312 -0.6278770188327703 0.21928296086817073 0.16376127365178247
Ni 1.8916790651637643 6.441099047454227 0.47469939467977107 0.22888294585177998 0.4782629832156472 -0.815024789729293
Ni 2.5772287591196092 1.57156265269507 0.500273313748884 0.8772915089789988 -0.5818784406154689 -0.3985420730452362
Ni 0.4127166805060505 0.09092357097086355 4.989474860846739 0.17333451916251438 0.47725279678357807 -0.4704406589577511
Ni 8.63371679450386 2.3214624812383917 1.39337047560265 -0.24315642505165866 0.29248098231839953 -0.7553026912783121
Ni 6.856815182809437 0.6035314881798222 4.706754120108219 0.9513343949280262 0.5727186284930716 -0.8534100743757109
Ni 0.8873330078028826 7.377801167912842 2.5924689151698694 0.3529368736116115 -0.21629508188444038 0.06279379539776928
Ni 7.602028927467407 3.818282547415273 3.920597184724787 0.20529127457476903 0.5783004934562235 -0.6604091871325206
Ni 7.6348947181084075 3.8096146465868777 12.41902429961144 0.2867258250021772 0.05916596883719487 0.39458103151495916
Ni 7.793968756436198 8.73106815568278 7.12038528015522 0.7822038865445303 0.4668208028169767 -0.7165083441189337
Ni 6.882927234054979 0.6706607684704027 0.3674314132093636 0.2778624610742763 -0.016554819034887615 0.49232820305946173
Ni 2.0013641268964233 6.536491101883396 9.032257845530138 0.06180057824656454 0.2392609466519944 0.41810174034471864
Ni 0.22823305206235295 4.767977490053119 1.418439670029776 -1.3844799169797446 0.5269884734458086 -0.30709230447367114
Ni 6.342483617404498 2.044125770983176 6.966378352186697 0.1324994874240234 -0.623359590578391 -0.04658967483408105
Ni 3.4068010427772695 4.287477825069013 0.33415931471703164 -0.41872060487564017 -0.09984030662810547 0.417126778025959
Ni 5.766302967963611 5.538996297802292 4.642767856774268 0.6034985899884059 -0.11320618641205019 0.6458698558657651
Ni 5.397682427109351 2.764979102688008 9.361970346540936 -1.127693045628845 -0.3810027786098922 -0.2740927096191989
P 0.3089817715295506 5.513091915014097 12.285433889719135 -0.26847356366020864 0.29515621515771745 1.1011525761361554
P 4.056451180802175 6.2854379950776185 12.820441107318807 -0.8992752123389415 -0.6916840859864023 -1.4369036819970995
P 2.4913804246650386 8.563524855920578 1.4277558576076288 -0.11208287144088439 -0.6953401946817509 0.4804013697148887
P 6.449622483268817 7.728670570195615 5.700240922962526 -0.9046123082811388 -0.7150204467194976 0.48043942204167583
P 4.726163897619472 0.9694324751491721 12.683230043017971 -0.01009080857709875 0.4329714583676995 -0.8530737740822147
P 4.005048723077115 6.110490863357828 8.236440715254727 0.17704770634804348 0.7914819694123465 -0.21017482791931544
P 4.693686356703076 1.0282026485783684 3.74990003312992 1.2835180951526863 0.7821005281974466 -0.00388982197270943
P 0.18258571932481332 5.486708991867667 3.6066891562244314 0.24627517318629844 0.028383436238699506 -0.40441704376877446
Ni 1.3533933946570191 0.9516452203242348 2.7174817148674077 0.483707037049354 0.02284862246339936 -0.44717063268621693
Ni 1.8007383389725111 6.502487649258668 4.834543356789854 0.999863195766349 0.1938254400270146 -0.29001580860735854
Ni 5.990548785644902 5.649241161463452 9.209166089812351 -0.6584371510078144 0.38302443702561134 0.23928717190423954
Ni 8.666402003877602 2.4184346217560697 10.142299924429944 -0.40791682939191687 0.5565821279425253 0.17579197956407144
Ni 2.4965811651620764 5.1563175052919785 6.899708651221289 -0.6474814233272591 0.1839513754464122 0.23926891707179437
Ni 0.5363055969112582 0.1433670797016673 9.196162432757085 0.216284283251163 -0.12675924250613654 -0.265027256982821
Ni 1.3950173767600451 1.1527044032895668 11.37854483357852 0.34213669767231397 0.058930455787621086 0.300117930038367
Ni 4.135022090186238 6.877166691629441 1.7788907143532722 -0.1910774449682322 0.05294081386308947 -0.5680998987741377
Ni 5.610641915587002 8.004914763783919 7.986492765804568 -0.5254324418125983 -0.21098343986353987 0.11995610354137405
Ni 5.427893673121655 2.944196981378455 4.792783938736385 -0.8265024513515895 -0.4920284124308559 -0.3313699460741132
Ni 0.9841137321772674 7.5238643259346745 6.9869799660618535 -0.7911466975601149 -0.45357550777129624 0.18717528170034864
Ni 5.035138445898332 4.384468023713417 7.261151086702032 -0.382188057167245 -0.16041729688021406 -0.3838739295101002
Ni 8.095413065870389 7.2337153747674865 9.095913645145005 0.3801967377688291 0.23136046085799508 0.23333969607155297
Ni 4.608777044838248 0.4061101148434075 10.396238719886508 -0.10027713705520795 -0.15204732764896395 -0.19583552847850788
Ni 8.305600631895624 7.140400004911787 4.720617343995635 -0.8481673379195327 0.012053845840740532 -0.14634822038165762
Ni 7.170557076543915 6.012498438680141 7.1043424403719975 -0.9221246061332892 0.41575406604814846 -0.8265821555495894
Ni 2.39248509365106 5.190573771690868 2.4747759771406432 -0.18506312045335224 -0.34498419442343814 1.0528101802770256
Ni 2.4206557713433465 5.169581199372097 11.330283586997417 -0.14509429336989849 0.48094361537160396 0.7509930081593647
Ni 1.0250244182746233 3.333466990143695 3.643202688464049 -0.304922550515862 0.0028372123384789844 0.19637725991459082
Ni 3.5720058151284766 2.5288871538745767 2.7170456111069794 -0.32705897740358514 0.8373108548210031 -0.8077711934906734
Ni 1.1154956331710049 3.4177894128899333 8.101872457800216 -0.9237099483425383 0.2875516633375822 -0.13569691131539857
Ni 3.3142982886242325 2.6326220628510764 6.978667810329957 1.5142224104839213 0.5238756388484397 0.0806490784116353
Ni 4.206414894196786 6.885924883091466 6.111992396595081 -0.10577312717277268 0.4771442962301718 -0.39007491611448947
Ni 0.787579012863091 7.30648962547256 11.132522720878558 0.5274319887411304 0.16721992162434426 0.11434184267839018
P 0.09152942112251497 5.655272575789878 7.9883166366038765 1.0563796427958387 0.08254321011055461 -0.48550423815909294
P 8.482353576287997 1.7253456598921932 7.88768501670521 0.20141713633134342 -0.7574727023464375 0.316377586430339
P 1.6631173551950011 3.322171631876692 10.308808493530755 1.0252957769068407 -0.7038569739035103 0.35060488304432524
P 3.822959602237262 6.053670967615021 3.902572465533405 0.12513276264630707 0.3084619311276881 -0.4360146160693975
P 6.803290895194093 3.994728503653306 10.377420346025525 0.5750771014229192 0.07028573289944025 0.7719349005183544
P 6.267406955541882 7.764922259597708 10.206260003480143 -0.2269204228087705 0.17950799496307795 -0.1434711559441787
P 2.447074810743228 8.577799805097344 5.743480204501177 0.20754407516468773 -0.5678409886857962 0.3192050285768051
P 6.873898170692067 4.049625208899814 1.418083022026941 1.2197621929519638 -0.300413864012231 0.5777394787464308
Ni 5.355309032747203 2.8501683155170863 0.3742817635828052 -0.5035585245576424 -0.1793133624537686 -0.373248331475454
Ni 1.5128466536460512 1.0377192813628782 7.035981595838715 -1.663426355146819 1.1209045619521019 -0.01535128564508969
Ni 7.042723597451801 0.6542739213730532 9.268871674205945 -0.6428554945194734 0.11384767665079101 0.11836536201548646
Ni 2.7565730446971375 1.7155310680167073 9.178468177284785 0.0022507437073896724 -0.4160685119647738 0.5262749923185517
Ni 6.300245658992795 2.2222059876898963 2.5623389307278304 0.41246536799454775 -0.7880600882149912 0.18920439631523542
Ni 4.123347511257992 6.922637054725068 10.490143687579804 -0.14349763830673995 -0.022558087806174052 -0.1635915808431376
Ni 8.287271633268913 7.0631924840955245 0.5059182841633767 0.17630671441696086 -0.5930210874958497 -0.8518699835821005
Ni 7.46854325471011 3.682873684161677 8.22948923937162 0.8771164168537153 1.027009674274154 0.2976190748759132
Ni 3.0648072097802386 8.38185107199542 12.442163080291575 0.2885307394213999 -0.009686631160144609 -0.030850409721953315
Ni 0.26112592989344263 5.041016366147588 10.018990908988986 -0.6123719812186357 -0.7175421847000869 0.42243019251674346
Ni 8.420396143491692 2.3752395826278976 5.680722796690918 1.0729630010758164 0.169536742682979 0.4705653574610734
Ni 3.4668352850772735 2.5858063693143762 11.604573891273986 0.28988211124297175 -0.010342005355956382 -0.5895554975447523
Ni 1.0957490715963156 3.3767794070955857 12.60791862550792 -0.3837350899393907 0.020723605700596566 -0.4641496837427168
Ni 3.1280828858275282 8.598259662677703 7.955371390205282 0.5323335398078058 -1.1003239095872728 0.4006503776374906
Ni 5.563997774254196 7.779630603815892 3.521360895819565 0.6675190587044245 0.16564692071026957 0.6336159781990766
Ni 3.242219275798103 8.482940465406585 3.706792575916368 -0.7138572796493318 -1.352673313992109 -0.5286887439663669
Ni 3.388616509164364 4.242982600816581 9.27031180981233 0.38324863722127545 -0.019715733261372496 -0.1114490945116274
Ni 7.33879561418506 6.141641131959877 11.2482057894032 0.12451544077728233 -0.9251829333436388 0.9958098516325818
Ni 0.581887920392585 -0.028425297279120625 0.4178298390884677 -0.0661907368944602 0.27535280727854516 -0.4642296450510328
Ni 4.746623755199831 0.33815196653611146 1.64075417105774 -0.46663722605126084 -0.310101266503324 -0.39352405100535454
Ni 6.077327113625852 5.718855239991506 0.2856795648025464 0.018008777872594795 0.2745830189920561 0.14780706431537124
Ni 7.9005387913086516 8.563208838702877 11.553035094692145 0.05672702037839907 0.9091855294741181 -0.23613988452450946
Ni 9.043509864293 5.083877329931333 5.862996110423374 0.3803905989471901 -1.5677643482661194 -0.13810757763942022
Ni 7.934849232087719 8.615035662405994 2.4890879454771953 0.2784761833988752 0.9340480970437526 0.6958557008655886
P 8.474471203972174 1.5574141104053865 3.4273232008948327 -1.2882121581942458 0.18908484001823564 1.4857387012219314
P 1.7020958217326936 3.2102563914933935 1.5232336881387456 1.3300272944578189 -0.12212534327855097 0.48333525553223206
P 4.6863728153791175 1.1477655056300538 7.99805628725345 -0.15324571883243931 -0.34116919155272213 0.8894134890535135
P 8.540112494620548 1.5601047712875342 12.303247328827824 -0.9836238510893512 0.21728264260869032 0.8445616228461454
P 6.387556701712157 7.690260934649786 1.383235351977781 -0.9351750115593442 -0.02174304810404642 -0.20596978869903235
P 1.580745210135152 3.2538035640927196 5.851288123960686 -0.44677956789538537 -0.14049484692467415 0.12609126990483446
P 6.791471851252041 4.0700760374168095 6.041582857584754 0.8898806584979191 0.14420803411020325 -0.41001536379215836
P 2.393397029050714 8.61738321888035 10.268872946276593 0.7089163907042888 -0.6928300266653874 -0.9665198444192129
