# total energy = -340894.4258660192 ev
CRYSTAL
PRIMVEC
9.03244743191269 0.00000000000000 0.00000000000000

0.00000000000000 9.03244743191269 0.00000000000000

0.00000000000000 0.00000000000000 13.21989983038899

PRIMCOORD
 96 1
Ni 6.20096485661765 2.3338489346679143 11.384237536199914 1.3669869024013037 -1.3666981675162913 0.8202628981997808
Ni 4.741953619831813 0.3454513722380757 5.91887971622844 -0.9291992535918836 -0.9390892590120861 0.6074550035329925
Ni 2.714602724524103 1.6128338168790866 4.751179361658428 -0.046075968422456134 -0.017147972534196275 -0.01257526556184931
Ni 3.1934217963575326 4.267867550462791 4.554083229071416 0.0812625436259181 -1.6446141075363223 0.8784477340706289
Ni 5.035517194441956 4.683676268876931 2.492770331347345 -0.05995658305929029 -0.44570664654618075 0.09766978133934792
Ni 7.370594541963229 6.1252729469769305 2.544196570910523 -0.8394057896768189 -0.10463901356832947 0.4028607550252481
Ni 5.11062199499835 4.574763017510846 11.466584553122646 0.3447517666976579 1.0478111844005373 0.5520708703357331
Ni 5.614235135085213 7.784262570331443 12.310820319040195 -0.15719930416354863 1.133519679612951 0.22532196797339904
Ni 1.8581189598627812 6.517281166357264 0.4615869685861074 0.35358479160825557 -0.06541709195322927 -0.2404505960847214
Ni 2.7486731163098774 1.5289675422950684 0.2405665924352086 -0.28489082867596743 0.5575108104043818 0.5184500969574942
Ni 0.34938590634780087 -0.11654024999384369 4.796602636645566 1.1830411833818464 0.11925804903308494 0.41053986883706073
Ni 8.588665242989379 2.423541137857931 1.2074503493130757 -0.1251870129230102 0.11440612025742232 1.013311350851455
Ni 6.800195485422489 0.6030341924265242 4.727608286789881 -0.04071984631686536 0.25294590033825465 0.14876917111832444
Ni 0.9399345466625869 7.258727680280615 2.588733762802702 -0.031059183298649738 0.35458032275230544 -0.09055528178175373
Ni 7.506153513310235 3.6470945344869343 3.7346216600229076 -0.03515366508299752 0.36898389977214513 -0.293105760386592
Ni 7.887864742596246 3.9692367728325473 12.664888646146679 -1.5207496700794778 -0.43758324610809807 -1.2636815200427334
Ni 8.023252097441679 8.805209138183482 7.016924545789343 -0.5009156876181566 0.042086901867721065 -0.01931027029283771
Ni 7.057493783516227 0.7189701716858853 0.20579257299298861 -1.498006205735375 -0.4585019985386362 0.11569501427217493
Ni 1.7756075523964368 6.485360497064865 9.18482935588455 0.7031380934596148 0.1853999349674807 -0.5584045258632447
Ni 0.022543182348604526 4.939186142375338 1.2846831944889623 0.34552618296983717 -0.24973562093107313 0.6272992919524293
Ni 6.389011380103344 1.9336121556595742 7.1333789875324 -0.32070115350635736 -0.050345285221771355 -0.9355856167342017
Ni 3.3139688400407112 4.241817972013646 0.6290900935888847 0.5946066868154146 0.5625406595188054 -1.2837687777109117
Ni 5.904980586090595 5.4187368424523115 4.769052768674783 0.49885289155185697 -0.33320802772411645 0.047615030774801864
Ni 5.282157204543325 2.8356284879221927 9.287997970671698 -0.13386680008519525 0.11184684417067833 -0.6828361486774692
P 0.17325860051865627 5.708253880604335 12.423771074416948 0.8423417323766913 -0.19396016583266598 0.06048468764861841
P 4.021308832388483 6.133438279472779 12.68052832890836 0.02153478874798227 0.42806245110185637 0.2419976288568671
P 2.4127654280486976 8.653373696529487 1.4538979682837343 0.40971840137702986 -1.1529019407943046 -0.2126502860430015
P 6.403978145529916 7.747997293815037 6.000446329691393 -0.518143621460669 -0.6273211463293002 -0.2953210228703559
P 4.66855595184369 1.0886086317086765 12.381043984993983 0.04124872223714186 -1.7785408143251757 -0.42596648780477603
P 3.989478487570596 6.100009191456037 8.11013069325066 -0.29451138248486697 0.9258071971911991 -0.2709161116634302
P 4.7757891679838576 1.0683217547333719 3.712148027519677 -0.5361220603159605 -1.059337696982898 -0.13111109171692906
P 0.13450217499522 5.3843051527684915 3.5438717250150806 0.3103228955958268 0.8072551730862032 0.5575799730794203
Ni 1.1993193401175417 1.0275854167286413 2.6248247130833007 1.1144361806189387 0.6340052432176952 0.24395989478956048
Ni 1.6485842438907772 6.519394759060836 4.835164864548801 0.9022558922338203 0.3254882904823556 -0.23235342089888367
Ni 5.8257027948117655 5.435293318630287 9.119139978551246 0.7755820103526384 0.9652029253800021 0.5787622635839903
Ni 8.693215822236553 2.4054310807183557 10.177947856384312 0.20104304082137633 0.3914219170606872 0.500396324779577
Ni 2.473815740371086 5.218713293646379 6.785152847437329 -0.7840674221158304 0.5487104385039324 0.5012794987154787
Ni 0.5126049415244931 0.18236692052840578 9.299604665646438 -1.220044757189389 -0.7686086643585989 -1.1926807633541394
Ni 1.501978589311003 0.9065686857780028 11.317172517119795 -0.37490617879385113 1.481810826922435 1.5305363171525963
Ni 4.2060404476596025 6.935745424322045 1.6916184365270825 -0.5159633259798985 -0.38497436166313054 0.2565801546567323
Ni 5.742035234071674 8.038733712372968 8.141779485874778 -0.676487580751622 -0.8203567434651677 -1.1120118874481622
Ni 4.958217509154932 2.6589538157775077 5.127139631652286 0.7724671188727406 1.2095857666395942 0.13986775486363653
Ni 0.9421384638406699 7.568441270933432 7.048784697683819 0.3453390066596956 -0.6989281691433253 0.1715584010986981
Ni 5.114975634669809 4.554304524033969 6.892498969170637 -0.5462295810636076 -0.5078008447737642 0.35657421325388267
Ni 8.10315312759464 7.015285156576958 9.06364281492183 0.4949648693513604 1.0178156664797116 0.43217853015275887
Ni 4.706456101348755 0.3219082979566278 10.167795385449207 0.12721741308947768 0.0903375093439928 0.9739549605410194
Ni 8.180046352746363 6.870377602118001 5.077102582507097 -0.2389148761664853 0.16849981677803239 -0.9366603378556191
Ni 7.182782862111265 5.838835973405753 7.11032276216857 -0.7876975626692498 0.6613903200988674 -1.1989187738440514
Ni 2.2690591891007457 5.164328927542946 2.503491846471871 -0.17804735125715143 0.3011219458228491 0.5866218688377252
Ni 2.4795513445025725 5.288832183209732 11.446542455473269 -0.6744137289417288 0.04905047766974779 0.4247822376886877
Ni 0.9640421489097324 3.3187650696372772 3.600241423068278 -0.3218612352527296 -0.08478675472909268 0.6527668400959145
Ni 3.721892231829988 2.5787547148586603 2.535748522809453 -0.7311703170064827 0.15722218698168408 0.08198399517297493
Ni 1.0456322467360584 3.407825001505712 8.145004972859587 -0.40765766219325916 0.27686410171674897 0.08632504575049005
Ni 3.3110513595139865 3.105879315660893 7.359689668155443 0.28507543388294776 -1.2631966099865148 -0.3181434200815102
Ni 4.141503610621066 6.862311626544115 5.913023077301108 0.14611887797967094 0.7063447733223707 0.21905901778282272
Ni 1.058675100855533 7.433758446989189 11.517956598001119 0.14951504814541347 0.09532210704277777 -0.5575246943614527
P 0.11910456182522794 5.569542585096875 7.860089966683931 1.4866781823170654 -0.22258271466536503 1.2621218888650974
P 8.399101268331888 1.6439144685585274 8.016758670969041 1.3848714959912087 0.7930076620282537 0.2987467607224532
P 1.9696245236473484 3.2780558289749 10.265000778429098 -1.925068497707491 0.4125777252026959 -0.2684499095111248
P 3.8951707037330374 6.045344819481618 3.846726075073487 0.43418064818445223 2.053398941355489 -0.8116088220692087
P 6.993507925772211 4.075584809122502 10.476982384415622 0.6642501581451656 0.7780315003343956 -0.5192605086739316
P 6.363259872420088 7.704361540178484 10.177908113615526 -0.5657342267554385 0.6461153962176679 0.4507192692694238
P 2.489974788861211 8.634577173383624 5.870045789083744 -0.5194638829339893 -0.6014666471600416 -0.2193492953297319
P 6.767145760198696 3.778345028399737 1.510981229685574 0.2896630532536301 0.9277602071525118 -0.5403535818988049
Ni 5.073905096109385 2.6965649269641365 0.43681819118553716 0.9386480577096094 0.7679520046112064 0.4505624319765853
Ni 1.43232938701511 1.1436794638183978 6.966054704989156 -0.40707942109228595 0.5834275302701436 0.4001724095598076
Ni 6.834527818184348 0.8139562923270265 9.184710127578196 0.7696589599999841 -0.34452139585440666 1.4940089116505235
Ni 2.8173016520437892 1.4628409945051275 9.310603476907716 -1.087739645164359 0.9902087033957204 -0.7633373886573306
Ni 6.377865339948613 1.7832580353875689 2.4156061327720875 0.6477657873368973 -0.1411713041664085 0.239114136661485
Ni 4.081166861647319 6.992333707603561 10.319652504977086 0.08361484590817858 -0.2862982505464553 -0.033533612981071284
Ni 8.179775379322827 7.4547227575233315 0.262158658067206 -0.4575864287029022 -1.040440345857763 1.1200352719732711
Ni 7.578277606207745 3.813996098489464 8.329752846536119 0.2718571354204608 -0.4251748451414162 -0.056975903164411555
Ni 3.163000513342027 8.31157685253015 12.56141654112517 0.5718097435255572 -0.155534514866616 -0.5511239330414315
Ni 9.315975976651664 4.920768982022423 10.187928710817843 -0.6993760553140214 -0.532188015368877 0.457066037423058
Ni 8.438536933903652 2.1221644962025343 5.7175401398288725 1.128970883900004 1.0308015372164183 0.6351555547720544
Ni 3.6923832260070495 2.8018200371125017 11.320385358678173 -0.30318936987483913 -1.0758410939545602 0.9976664452253463
Ni 1.2545527562813836 3.503975404623308 12.658820647948987 -0.32218056626536123 -0.5041797030814091 -1.1159575023594717
Ni 3.2692130629202145 8.379275046176593 8.018754841855747 0.14177011409267196 -0.51788985357865 -0.6456924497476364
Ni 5.735748650645666 7.686242450591458 3.8563501478326976 -1.1046155949840912 -0.009034085177810248 -0.7972484395824786
Ni 2.9443339929969006 8.490419312063114 3.7639436941836077 1.1373097427830026 -1.1000652566092475 -1.094609889921631
Ni 3.617161003633791 4.502042783081559 9.499331046931227 -0.8099139508652892 -0.015530491535431318 -0.82911109261903
Ni 7.271788599294992 6.200567428929799 11.457237776500186 0.06521911700981026 -1.700500891401613 -0.5675987907680031
Ni 0.5355428418267133 9.342621696632586 0.4515085637201034 0.4534852620503351 -0.8028369894138495 -0.7191149285038454
Ni 4.600948082671759 0.26703166346710666 1.3767075756108682 0.19338141051106048 0.5255039184804821 0.3564400016688635
Ni 6.029501906652284 5.706862883696857 0.34548208255940965 0.268630400953047 -0.411446182701414 0.7938018757947748
Ni 8.047883581640992 8.527470411507771 11.381725612563745 -0.5481244840934754 1.6645473561251398 -0.7365986871109056
Ni 0.19021792385295383 4.816001624036422 5.882947737022981 -0.6349120713026808 -1.3495375965766048 -0.9025387135815618
Ni 8.142904928827193 8.65167559640867 2.7002835855797795 -1.6532830960652298 -0.0317567235863066 -0.8121181576054595
P 8.421420445983705 1.5577810496642681 3.6280694904205566 -0.39504614407683575 0.18296047228805262 -0.709996511142345
P 1.654355977812068 3.0762799853634424 1.537368621669392 1.1454357143242466 0.037892404170399255 0.1558571883133574
P 4.45368305942805 1.334580240698659 7.934253586215912 0.685157340611478 -0.8025361703439792 -0.09331793212855542
P 8.596487342482082 1.712244933526551 12.277308132506903 -0.3187887669749929 -0.25303280362510616 -0.38168926315395557
P 6.2791316568599855 7.864271989853817 1.5624598574439688 1.051981513728143 -0.2882805710838067 -0.6019356163766602
P 1.6486565034703862 3.170921969756694 5.791505948761675 0.5035834642583069 -0.18316538921000713 1.2191114467418425
P 6.909623586293291 3.6619980727813477 5.915905331282772 -0.7337555612351557 1.7482462771066922 -0.1383852567808391
P 2.3568726432209206 8.47566932537537 10.02646106720193 1.0863273381978646 -0.9862278643711017 0.7808414589793649
