# total energy = -381170.0957999427 ev
CRYSTAL
PRIMVEC
9.23740029492063 0.00000000000000 0.00000000000000

0.00000000000000 9.23740029492063 0.00000000000000

0.00000000000000 0.00000000000000 13.51986906234335

PRIMCOORD
 96 1
Ni 5.512566504914571 0.16091736296791845 10.610150185438872 0.4473665507471069 0.5644013668766279 -1.0851430880817763
Ni 4.356182532104909 8.877788431107414 6.275220140502899 0.25668299878318374 1.0639564267018322 -0.4751385786540526
Ni 1.636987442373436 1.8610036401975132 7.901511596918622 -0.39196390560708627 -1.5392130189909878 0.06800027929937322
Ni 5.420386486025186 3.259453691271162 13.334701119939568 -1.9286029932233109 0.0020278290633061846 -0.6006559783332881
Ni 8.909555851185637 6.006508780699036 7.240660580247445 1.0114043636367291 -0.7141874092952409 1.3280930535495838
Ni 2.980290212880933 3.414448033083466 4.973527240231622 0.9698021147149103 0.7247232758295583 0.1603702456923625
Ni 5.801115182141518 6.967170713201224 11.862549545796389 -0.09053291318425054 0.90362269067436 -0.8531786750911952
Ni 2.3984078850043806 6.865568545873401 11.125784648652733 -1.9764044289773062 -0.3319440734100283 0.5181325657170754
Ni 3.930282947886654 8.367976301384482 11.974399685161078 -1.0948867977321015 0.7319979551141006 0.6785894575859732
Ni 1.6393891664851945 0.35822454118915303 12.152064455108299 0.7529056518010452 0.5911236133628206 -0.39338932519970315
Ni 1.2289622279869235 0.7665379624690766 1.0247611778248984 1.8516190223680886 -1.1610286836664971 -0.7591490616075958
Ni 0.17904945627165358 7.844511293826245 8.544490091238144 -0.17577963826889728 0.19396222271519498 -1.330718664097889
Ni 8.662612425494695 0.8247280427368178 2.2993376891343775 -1.0481881081239819 -0.3680433902357468 1.6379883746896886
Ni 1.5721778409576705 7.671319273167153 13.499143474911515 0.03192075996799664 0.35053314926612533 0.04139604644828355
Ni 6.727321611040399 8.771096456142748 5.970766507215852 0.7732613326392618 -0.48237186317769837 1.1308457323252137
Ni 8.021268951051255 5.972625995922378 11.950361198022502 0.430447149283949 -0.5867663648353895 0.6646185972281778
Ni 3.79391120534091 2.4824220419137855 11.580633322078068 -0.042469482018120404 -0.15835167260043698 -0.10200491837959207
Ni 0.9648002878947567 2.751581415638497 5.76345245310897 -0.7119158396522449 0.412064018791071 0.08570746677114917
Ni 0.2167260414048466 7.246842248615094 2.064457384664764 0.36622690585229833 1.7755989580880325 -3.802030883936375
Ni 3.856383744447925 1.320504866246649 9.09023293741303 -0.965530741033066 -2.1885111838120115 -0.47287549365148884
Ni 4.88873714168611 3.126453599882309 9.587317776823726 1.890275558398022 2.0903292387229353 0.7594586224282146
Ni 3.8092822396561656 5.558522572053031 12.71033968244635 -0.7571785681447863 -0.030180894458754475 0.7641370017404904
Ni 1.7201702332441553 8.895321017123253 9.880212650952913 0.9942013694948814 2.0881103766947455 0.2075998681032876
Ni 4.890076564748437 7.712268669272639 0.5155716488909379 0.0611194930191399 -0.8873110979985299 0.8421866948560658
P 5.452292467109858 9.011813873943979 8.36420189956885 -2.688496132085783 -0.30911679110286766 -0.8944667352067048
Ni 3.742800668762599 2.032653014984821 6.737897510792524 0.5799382861699626 0.15629916094678242 0.21441483414259202
P 1.5893778805580348 4.542565560577813 7.297268293821554 -0.4006655471461422 -0.7579725248009914 -0.48604828358802105
Ni 3.1592740836095348 8.875303570391786 2.4298723183485054 -0.3802489311630032 -0.07612753639219792 1.162665962159604
P 7.759083814651074 6.74818889861141 5.63860991003971 -0.5163747024857043 -0.04152383027539945 -1.082397407015839
P 8.53140438978923 8.79081830606046 0.47990142713110634 0.09921655700117751 -0.509737913895477 -0.1345165178540522
P 2.457453348551925 4.341541252423611 1.1099651119096672 -0.3826102323063282 0.27312546060992315 -0.4660600133915522
Ni 1.2379594560055887 1.5717713953387575 3.456611223605433 -0.2646863287036345 0.883298377294711 1.1157993795150525
Ni 7.093251991668126 4.712626102491189 7.989363893706626 0.0348585024400819 0.08466205622577032 1.8875350195384073
Ni 6.5104459237485885 1.9687209666098906 8.42717787699929 -0.47661850563368885 0.012941390652016422 0.4784861549700469
Ni 1.1884285149007805 5.398863343023657 13.032883840735199 0.9968714601278766 -0.4833853920438772 0.09684420011425901
Ni 7.4656023655945924 7.1122995113544585 10.049900001888922 -0.7975711130292199 0.7974577273798072 -0.9878836548069697
Ni 2.7284417275617443 3.559964802054753 9.036247721820953 -0.2798707497535567 0.37326452942537003 -1.2151753449122298
Ni 5.569542790765831 4.606044976331682 11.445394084825022 0.64361217017984 -0.3162631723396617 -1.112685002255787
Ni 0.09220957857076012 2.8889507974306636 1.4772210594990756 0.504729147826976 1.0018755982106875 -0.27742974441223184
Ni 8.448341685124099 5.973863807579977 3.365311528977012 -2.0895437667071626 -1.2175459020269355 0.372132729813772
Ni 4.22419855476334 6.883710800317609 7.341478492278773 0.43649592658119024 0.053726800099494564 0.4308994063300192
Ni 8.703912842816514 3.337389638697731 3.7669333773855587 -0.47340951177808793 -0.7999419272542417 0.521572958857192
Ni 2.1771629073092558 6.30343578011585 8.61745631723346 0.1488347342489372 -0.7953051998131787 -0.14727947394667537
Ni 6.643926359959794 0.048437232893914946 1.7394533066414486 -0.7049095835377409 -0.266890792554121 -0.30764226343987017
Ni 6.079632042501658 5.5070333020570965 0.11544348813189653 0.5936713194853389 -0.5941382318194283 0.7932516597182597
Ni 1.4245087576862303 3.913997410928844 10.778877770470222 -0.7111838465822268 1.1265010822032728 2.791249755705941
Ni 7.4100394020090965 9.062776612115412 8.676335507573267 2.1708531044106163 0.42622436945185305 -0.021104900299415266
Ni 1.8437666509954296 2.655253803956113 13.035871216034208 -0.21735103395278052 0.9041695643167653 0.4286568901527456
Ni 5.383168999693357 5.9325911024594475 9.303928187736844 -0.6074501184369862 -0.07783500600160789 1.2240762469462854
Ni 3.8089219810394015 7.950907671977155 9.605042500768507 1.9247746206161558 -0.27166764511747404 -0.3461255071167329
Ni 2.578444819381984 8.56989663738038 7.719034141347455 -1.1015719230617609 0.5319435034582387 -0.4838893282634893
Ni 8.693807126746268 3.758143990876565 12.768840139368534 -0.7746463859122467 -0.7773676414981515 -1.0065768603410987
Ni 4.931340032468538 1.5273579740720813 1.8513976674905213 -0.5122305984103436 0.13681379852866116 -0.3070074580693487
Ni 0.04051246706515424 5.591943486808196 9.698532383038842 -0.38055180711540265 -0.16060678718320082 0.4329658019407447
Ni 1.6752025679516889 6.324127557078693 3.489383672850423 -0.4178459155801707 0.7449036074321752 1.2503691192045434
Ni 9.124879655205234 3.091924197075563 8.975570933357497 0.22602645023959136 2.538039545962706 -1.2427591680677694
P 7.568719466592908 4.093313828072921 10.235203178251579 -0.30023337257030874 0.3279933162923964 0.5397961667334381
Ni 3.5056304127264277 1.3201630824307449 4.170122812647049 1.219438233953642 0.42502340716521636 -0.15752969091977387
P 6.028142772505724 3.424276627140817 6.762205730023651 -2.393376940813588 -0.2183401373389272 -0.9158881383052744
Ni 8.874352118147513 1.3753750247999053 12.815822481694749 -0.5157111007597763 0.4848421790950617 -0.1622443227866238
P 0.27583801423548593 7.693489034198772 10.721972612602272 -1.4007015210449296 -1.0946829092514117 1.2580297210735947
P 3.602937188854374 0.22778598093949537 0.4645525625768823 -0.5767406051682712 0.7943006698080644 -1.199562063855005
P 3.277466622109352 7.642073663406276 4.426012660654294 0.29477697744142783 0.3997810876586599 -0.13519297509578654
Ni 0.9068106592163431 8.578348858773683 3.810980997595213 -0.1861751225706084 0.008846908867668635 -0.5297315834085845
Ni 7.459173134895423 8.97971390745028 11.823788489852735 1.7218773001948604 -1.1150015662041055 -0.14299421630776019
Ni 8.006618433969527 2.763885633011045 6.818097545064448 1.6211620471609696 -0.7407353349870984 -0.794478075926193
Ni 5.363382487972637 6.41213227097379 2.7283234888362426 0.07256347319002342 0.43048700138294893 -0.0307539933534051
Ni 1.9610077372509733 0.3685029966474372 5.613273568140743 1.480676970428308 2.7805907333301985 0.3126374026616164
Ni 5.942225711107772 1.625412979634845 5.488756181566612 -0.7167870517016172 1.6843492213424152 0.8154521070746988
Ni 6.633275637264187 7.057891222822693 7.569977600531453 0.28381302223075633 -0.45962659906138265 0.1887403121946233
Ni 2.984687215485537 6.625765630714726 1.6436235908422339 0.49118406215268956 -1.5271139217346086 -0.712549873691818
Ni 7.044432330396416 2.3009163608678374 0.7485693711529496 1.5587755145039477 -0.8637816474180221 0.8717605518584406
Ni 6.764677658378677 1.8401917770290812 3.337501411242932 0.0997577742166282 0.9103278706086774 -0.5613453536591236
Ni 7.374447698152919 8.035217425700315 3.838845615991829 0.8694208479816704 -0.06284161791656918 -0.6064802983245491
Ni 5.350293091563552 9.112547725631396 4.1430285934462825 -0.9617859292786534 -1.1026163051658753 -2.023281810255135
Ni 6.7040156497559105 2.3603682700342947 11.503191575574494 0.284610064210755 -0.09730597024202596 -0.3744942880674131
Ni 8.311064677336232 1.035374027178743 5.039247649329769 1.0333070772470914 -0.03960655864802857 -0.7564172644987295
Ni 8.512689416518374 1.396907405201865 10.111036812893783 -0.803739446623461 -1.995014330769009 1.6989482022025129
Ni 7.033061090467281 7.145083045479964 1.4183021483374203 2.216738039868189 -0.7861284184099171 -0.46589032058290736
Ni 0.9483022907270605 7.806554815460028 6.008649086378631 -1.9143469975249292 -2.529601699607998 0.9033465541948378
Ni 3.6877549996011756 5.3093252206572075 3.8089118198989285 -2.050544245515514 -0.19274506247864226 -3.3378251501447416
Ni 4.541078339108609 4.105812030854495 1.8367148195072889 0.23754190707835865 0.9815032052019226 -0.6818604150277611
Ni 4.851972287975342 5.276144478313218 5.421751773808717 2.70438554962253 -0.041950119179540654 3.29250868559613
Ni 2.775617131556943 2.303798429801948 1.9882728483596923 0.0352991895219263 0.8009130329182593 -1.0212547740682476
Ni 2.5858162649249974 5.958197176450967 5.891864327704321 -0.3515405074847171 -0.08748487038654609 0.1959885091166044
Ni 0.2222490831218486 5.316354882384315 5.134832574017594 1.5444704107351852 -1.4748109985658342 1.1052784253790704
Ni 7.102544816500545 4.425084301911094 2.279355344524545 -0.25960634307756575 -0.40976853788867496 -0.8427554228753421
Ni 7.052413444367798 4.503011011937234 5.000648247893636 -0.07547781862334098 0.2790130297389517 0.189995267647647
P 8.534702141742684 5.377155452013531 0.5951435399336323 -1.1640381599167824 0.6724717747240097 1.2355518516860529
Ni 5.697739433931167 0.5355493748005552 12.966892775804457 -0.9456584275891713 1.327979667900171 0.970841354612702
P 3.3949478807760713 5.091294858311667 10.515957336995827 1.3569153770979148 -0.4400777303951776 -0.04831694193783292
Ni 4.332821146417841 4.596299518878199 7.6615479509924675 0.13861434207250967 -0.9638482111243205 -0.8797805939494397
P 4.9909027904401535 3.18163783005018 3.6956696042894635 -0.35998503870764453 -0.44172323641840056 0.8303992153028344
P 1.4045097857556241 1.8776956227742363 10.340550187713658 0.7859363570037691 -1.0281926388386615 -0.053399755777378995
P 0.09663891207686895 0.5684529951316494 6.892524204067721 -0.2459059627723378 -0.0968629691673364 0.7337825578183492
Ni 1.520171276537665 4.072649763311365 3.1821856078956694 0.3352638818118806 -0.13292371944563558 -0.40374161496830463
