# total energy = -340874.54749404266 ev
CRYSTAL
PRIMVEC
9.24414157895504 0.00000000000000 0.00000000000000
0.00000000000000 9.24414157895504 0.00000000000000
0.00000000000000 0.00000000000000 13.52973561295101
PRIMCOORD
 96 1
Ni 0.6234859220727211 7.856706891091183 6.775515785071655 -0.34105734856520614 0.25507605930738003 0.5098471857798316
Ni 1.5471457619465026 0.6129633156686122 10.349490439608973 -0.5505269228873809 -0.3648462234546878 -0.38006072641159705
Ni 2.938610934899242 5.881418710093193 1.4312020401131573 0.8041302543039764 0.29547708883224594 -0.05316887071349552
Ni 0.7437669951533719 5.148386012186989 5.2720911153230565 0.7112496668231558 -0.7121693504239478 -1.0950539194375852
Ni 1.853468882752055 7.817724345886819 8.653929983980689 0.7794031838709417 1.3284787190237768 0.7748214780375301
Ni 1.1432969470679026 2.7648672931833254 11.810322726851261 -0.5789520109972932 -1.9250597559567428 1.0141405316209695
Ni 4.430707833508778 1.1298189885884238 2.4156800121078854 -0.30177834845992546 -0.30357786356250943 -0.818063576555617
Ni 9.243115518578714 7.133509959866848 12.5360987735871 -1.8013439282626202 -1.2520485637894951 -1.2885970523374903
Ni 8.698783483526833 9.025443715892644 9.139390703136435 -0.4484700682239309 0.09699075299445231 -1.2855400106787214
Ni 1.9430631033166021 3.7120220433941737 0.5213316862913916 1.184682061419379 0.6519224898177481 -0.6338237233345084
Ni 2.7759047982755733 2.8015665354079697 10.02357251181511 0.7472939620412228 0.28564776144665 -0.049878372887681835
Ni 7.618300478755269 6.6836715404372145 1.023809021338102 -1.2535359469682992 -1.7807769027445457 -0.47717540657842333
Ni 6.750848717577389 2.3934284388184794 5.336858344743341 0.519535359601873 -0.14443994761535126 0.8153112106214604
Ni 4.049821466410031 9.14068118530635 7.322861410291101 0.10548799183218606 -0.08941885418446535 -2.36783585911969
Ni 2.55753968496813 9.180745295080055 3.662513194129053 -1.2475974699966772 1.8976093730552737 0.14303972483371494
Ni 8.232019040794096 8.790309729689607 0.45818587931095744 0.6490991614363402 1.9424077603168868 -0.5995689159166964
Ni 6.967254072861753 2.1264298964571684 12.19475699550311 0.29538915710413 0.9410780073073406 0.45660503862623947
Ni 4.582256291199162 4.395127132419948 9.044898936342515 0.7344032221214836 -0.5339219673408483 0.5329608889791596
Ni 1.0247130983883717 0.16291782746672823 1.8053808580536668 -2.3141671659516403 1.6014100613450226 0.7624830110768352
Ni 4.574463479814936 8.25013755836596 3.878069012798696 0.6420491965680942 -1.6828117016519664 -0.09825547863948886
Ni 8.36661374275652 0.3971597540035991 6.378093497446097 -0.3957894500007635 0.06514378368718458 -0.19337035476746695
Ni 0.019031838763752633 2.5893487762766942 5.779240439543655 0.08266610884166409 1.2200609551393051 0.3635922964429286
Ni 2.175627218149752 6.052694165997025 7.1344057171896615 0.21012212030450908 -0.9327257786879033 0.34089562617636127
Ni 2.778751993894009 7.974819288548181 5.618154800945674 -0.22123777060169636 0.21877671065571355 0.6759453350949068
P 3.2714832304325476 2.7302479828227977 12.199640675520056 1.328137533634274 -0.4607954225585032 1.0920362156571837
P 9.084310409717967 5.772393303846982 6.923165988241602 -1.1070815400260805 0.17993248409500626 2.2027658939588126
P 2.6345988494982646 2.6131616850854313 2.4644410103160856 -0.505203259249917 -0.16990132511124936 0.21373991956275448
P 7.643481520523513 3.717513063515443 0.2969116602239627 -0.8696242222417281 -0.7597116189792852 -0.6075815018085278
P 6.723033095447929 0.06912306895082587 9.881036167788409 0.2906953511728865 -0.09007499971122551 -0.07965920369454023
P 8.185779844419368 8.163242627153956 2.6099539679438815 1.2630875952124763 1.0980495117307993 0.375409857903147
P 1.173922788249325 0.5678611487129345 5.544255284020673 -0.1002380562871564 -0.30025239873370224 0.36359563887703833
P 3.1608308552615165 0.9091437642905674 8.946727076770348 -0.6197911565008423 0.09707302829561347 0.7348855610745408
Ni 7.460789549721083 5.103422507355585 11.697187375241555 1.9264378672511921 -0.3550680610220014 0.9695758576367172
Ni 2.6586983266971687 1.4558968400322796 0.70459864270248 0.8872234233807301 -0.3132608951782282 -1.8285837378151797
Ni 0.05133179399224888 5.1050956969884975 0.5819288834276609 -0.38216594568005796 -0.9216337825397999 0.42515479053675814
Ni 6.5039469390942575 6.951797868075958 3.21953577660852 0.6394176724825182 -0.2940233871048549 0.4376567796585108
Ni 5.287001915753373 5.445945686738394 0.18586178696334468 0.019213853924289488 0.30970994460217627 -0.6298873643945797
Ni 9.184932891233144 6.216620529314309 9.087327697542179 0.07909921742601216 -0.36954491448193777 -0.08240025677478713
Ni 0.3015522193163485 1.7184397061335708 8.00239178975308 0.5876140575476655 -0.76569971824192 -0.11945113888049749
Ni 2.8123821811013787 7.49269108244583 10.806591981108102 -1.990155202904495 1.1132614435845474 1.471391431361324
Ni 7.027997327435591 1.6912619297757738 1.6855481258415035 0.23551664911821374 -0.8926103987242563 -0.37837639673063866
Ni 8.521933810227168 3.948117420325513 8.18907538090629 -0.14932504362179444 0.3344095042313854 0.2658754639157292
Ni 6.063047604609519 6.113751721385885 8.717439085726722 1.0641109500018253 -0.3973323690078512 -0.09417693769474103
Ni 4.057410906678655 7.436560654539523 13.070225276292378 0.7215852444212089 0.5887296592093474 -0.8426929450685229
Ni 7.789834770624413 7.108153279407856 5.806151060208684 -1.2979011033472356 -0.1390105490696638 -0.6103544365679747
Ni 1.4201127678278467 8.76365886940405 12.960661861003983 1.6561676167018766 1.043273958651816 -0.22316686930360918
Ni 4.675668342252066 8.606748809575056 9.370884346370186 0.7811008832883386 -0.18372306148569004 2.3596708068103944
Ni 3.963666066527491 3.666115636117704 3.8134238060477736 0.6740753717657035 0.010942615054432768 -0.39890099904655174
Ni 5.972889491406255 9.154223852777157 11.896466109349698 0.28625994110935216 -1.1243655239175088 0.2012178758363438
Ni 6.993313308083736 3.8845084818500024 2.4153555427370828 0.1521910523156798 1.7226064650514012 -0.16633211970275225
Ni 6.798114013671747 9.132564828965483 4.470279230534228 0.3829933266773598 0.008692385567675352 -0.6877189306910673
Ni 9.0429521201177 1.3358986376851487 3.815926195183847 -0.5164256103282977 -0.9577014747966347 0.027150592272862914
Ni 3.0935797249883956 5.7120937680708215 4.884099700976486 1.7231060303956387 0.06528339458884241 0.4822178540983373
Ni 0.8095667951924196 7.194354899998488 1.3276242065226098 0.9182471254557539 -0.27146607062962924 0.3821314928976967
Ni 4.676121305191363 6.289871107497706 10.696987891596587 2.418217654006351 -0.9118939295442164 2.0465852608677655
Ni 3.134568248923931 4.88615744690072 12.020277520114377 2.24983199420868 -0.38664120784259215 -0.023779361807784855
P 3.163483923905968 3.8600392389863667 6.124411141085945 -1.2120337139594546 -0.10614619424147526 0.5731081506220065
P 5.338750620532607 5.513853151066414 2.2298625970243084 -1.0094657518531196 -0.8970951739684873 0.45933066508751863
P 9.0718493068165 3.7558392746649076 3.7770286960823714 -0.5940729257991317 -0.814427008244294 0.6618927136565826
P 0.18695999098759855 1.3390693782602252 13.423107440772652 -0.03699740315995564 0.39812169767836597 0.7259345225288402
P 2.2496912807955582 6.988469377875748 3.4001441178901857 -0.7865467368942582 0.23007336661545538 -1.104929012459452
P 6.654728133030322 3.3778278356094518 10.18822916232024 0.8651677291322712 0.22211605944159166 -0.3004912542173857
P 4.740155474181315 0.34524465467523563 0.10154134919203633 -1.2455840391110742 0.6323425108032915 1.3140370896771498
P 0.8349484348337812 3.9147553132250748 9.929297057935058 -0.8382459650407628 0.40250748545088744 -0.8377070618181572
Ni 0.398545450832182 2.702737417366742 1.9871659785633418 -0.29694801695081763 0.047781124039020934 -0.9626318222187165
Ni 3.4307505463742096 0.46543883282467435 11.763252482145047 0.9298309736386116 0.8814443548051077 0.3846131216689699
Ni 0.8899150253103452 5.011951726042524 11.92201044588354 -1.8184592477866681 0.5357345950695547 -1.2886577303720967
Ni 5.192425102856562 4.352391465718555 5.809992925465249 0.4183148847967893 -0.5134356744620383 0.5582973108614192
Ni 6.937192124319047 1.5251447048949525 8.137148264193822 0.08870614438815691 1.4157728135557552 0.3448533252725287
Ni 4.654878267752514 1.1340158288831312 4.93099338257779 -0.39530428283422886 -0.04456698797709744 0.6029527447872649
Ni 8.712649695954282 2.289274695205112 10.144717912137073 -1.351537400615453 -0.015332773702328434 -0.1429636201801409
Ni 3.045732047972084 8.460774569280506 1.5205531397531438 1.5152840189792163 -1.1610191705848005 -0.43741740995419504
Ni 8.626679178904107 0.3656233648727743 11.63650605641656 -0.21131279817850057 -0.6382462778822364 -0.35870360089205966
Ni 6.17728670672845 8.566370398986328 1.4192419696874028 -1.861919118742516 0.27784703445530856 0.38833582193619576
Ni 7.428185462233345 7.085514376584643 10.571107641937731 -0.3215233922973366 1.8150985588445514 -0.08216165840141978
Ni 5.194033583498146 3.075590625399187 0.3720822466214793 -0.09366117440058708 -1.082691284107174 0.22007537486247908
Ni 4.630409024888877 6.560798410046793 6.8222476941946395 -0.42616986206483376 0.9402112884316711 0.33074105424086264
Ni 2.370743315287175 2.2255270946053263 4.932995663652314 -0.13664204883748723 0.009775848439841228 -0.5499116579008853
Ni 9.068123917744327 5.950906922637941 3.1161825756592973 -0.5706961987464042 0.42580579385719575 -0.2232103209470349
Ni 4.084043278680973 2.525656640526619 7.894532994179098 0.5541933159953746 -0.4771077865652816 -1.6244175779837895
Ni 5.494606848217117 4.157303101005986 11.779109882677076 -2.467654054260608 -1.2947376180175894 -0.6147409956714445
Ni 6.698868909257697 8.145882129194792 7.818144029916289 0.5147610781416813 -0.06259504912340189 0.5861922374994744
Ni 7.316543963909156 4.8041064458967035 4.6492504343352925 0.5340484656163834 0.13390408108103388 0.6164597781347642
Ni 1.8266054072092797 4.5664580531734895 3.1498580591605965 -0.43464293253285147 -0.2393337088714588 -0.7576441949272952
Ni 5.25941739716437 1.734367362141899 10.181707420408534 -0.6014738462488931 -0.0656456630242676 0.17135322706642747
Ni 2.4394919965024604 5.295626699883245 9.650963349121389 -0.4352954785151858 -0.05505863153704066 0.43726751463989216
Ni 0.3976829724191948 8.066558149968174 4.492819221042125 -0.48440997665364965 -0.32630487284637993 -2.0882975530048875
Ni 1.700598512810255 3.6250531590492225 7.761955363917786 0.3241688003399837 0.3055270168690803 -0.34132988550030247
P 5.640562600228429 6.271715613359366 4.998898998077486 0.29586018320327756 1.146162308077626 0.11572252507600068
P 5.719784893897247 2.401600260009055 3.4336171546900442 1.7094354748870817 0.2705103915845793 0.13674386452267417
P 2.1166865711914817 6.482223206291256 12.945764926786094 -0.7176360299654737 0.8760599505647428 1.432873992012416
P 0.5226572961994557 7.843672651409382 10.464344277145518 0.5138961590382246 -0.5521040375665137 1.330389562893244
P 6.502477120576949 3.8286738664754805 7.452164765591211 -0.7701821794933058 -0.2493921215487253 0.21180259333072554
P 3.7818060684707078 6.737213608690399 8.884517701335847 0.36348019634509654 -0.6180777733541614 -2.368098882973089
P 6.348830242739212 6.961226892526622 12.531525696728528 0.546232409277085 -0.047472334549350494 0.0433138322962867
P 6.0805375205513394 0.40302238861792394 6.528895952907884 -0.812439288390304 0.7084589914518961 -1.890225421886377
