# total energy = -381169.90777785174 ev
CRYSTAL
PRIMVEC
9.20873377709861 0.00000000000000 0.00000000000000
0.00000000000000 9.20873377709861 0.00000000000000
0.00000000000000 0.00000000000000 13.47791271586004
PRIMCOORD
 96 1
Ni 8.565218312489698 6.349504862739563 0.4059780819100387 0.9154307390528814 1.0824578279401293 -0.4207574328000108
Ni 8.593314159441977 3.0323071319331 10.08366209056278 1.1765625176360381 -0.5912141161940979 -1.2919297162551493
Ni 2.4698100426554825 2.7039144743896077 8.007457275027077 0.46040692887083284 -1.0212390903389637 -0.7055590441962816
Ni 3.187676889317183 3.1072846428755607 11.098360501270909 -1.5757607362080346 1.031026765853347 0.8006847189575372
Ni 0.6791478043491641 6.160302217219566 7.974059039128512 0.7659519434620421 -1.8934868662464681 2.036531219065873
Ni 5.348202397151552 0.9245016253448115 12.189060434124741 -0.9541628655157569 -1.31701237025539 -0.26381626739385533
Ni -0.02297579093606495 1.2656667967273103 8.133031253191628 0.09900135566657789 -0.2870245871895186 1.206814374542044
Ni 4.564133962898921 7.573189041880692 12.312680318967997 -0.8072119785530937 0.1214141761441393 2.1293855812944487
Ni 3.568752713171387 5.320594613092905 11.462978476002494 -0.9343342608256038 1.1555540337051713 -1.1813974771308364
Ni 2.4434362289316787 4.790107082650463 6.788272483241203 -0.362839220326988 1.147665889206346 0.8073724153903579
Ni 3.0135213148951947 1.7023173293186495 3.7643674000656446 0.297396674452462 -0.008688528912933424 -1.4872286555038967
Ni 5.389466733498048 0.37185696040486776 2.484733716720006 -0.4754440257096134 2.520106358523053 0.7169734566808104
Ni 6.743620253714195 1.4981689087729086 9.622205070747565 1.1810094976637984 -0.38534228652551056 1.2070257192219018
Ni 1.412058038615336 5.073561119044457 13.093212599425257 -0.997749748967772 -0.3908405906359204 -1.2189592374346943
Ni 1.190864251727849 4.697485637666519 4.592760232920504 -0.540297788960205 1.3156016059507922 -1.663200098068626
Ni 3.2684835287817 0.25241323635900903 7.9698672234835835 1.724287709408566 0.9363852298173616 0.33925731924198993
Ni 4.295570449127619 6.249774275229509 5.508665505223706 0.40248717373591325 0.17399606400591325 0.39755142699719276
Ni 2.046742392481255 1.14749111533151 9.653986252983456 -1.96174888384766 0.2770111688175746 1.71682662514483
Ni 8.983700013210553 8.354255428900794 5.421234102633175 -0.6093059406988023 0.4116665262423362 0.822992638426118
Ni 6.348344562275456 3.8263670424044203 1.8821639012550617 0.014514134455775 0.8338879451823833 0.02961293777042642
Ni 5.461957886303139 5.519024409922696 8.557154224264162 -1.778099870133015 -1.8146123632367521 0.9154711053725136
Ni 7.106315444819547 6.532556074053029 2.331772964109019 0.6793327635099009 -1.3174373736079503 0.8815389714014431
Ni 4.0524690844297515 1.9273143232829282 5.800543691336462 -0.19459934207856164 0.8320004983516832 0.0407805243514717
Ni 1.904927891312758 7.32342976261498 12.384881396657061 1.4438302339136038 -0.3760212662349008 -0.09958319631197689
P 4.1353292715410594 3.455733922727169 8.97391757525008 1.846032015198614 -0.41173928846180063 0.3705203910213296
Ni 6.93600912114356 7.44723198038831 12.187551122648019 0.5545141896699031 -0.9019468456338336 0.7609634891085153
P 8.082330727277123 5.636592314884917 4.185768269414449 -0.41705298736523017 -1.4154974484071816 -1.6909173614782362
Ni 7.445408651087571 5.297250472803157 7.507844787410463 0.5338849434553257 -1.5846169010470839 -0.31425848320480715
P 3.242864831232949 9.127844324041105 5.883526354607871 -1.3507668409980156 -1.2730151387388335 -2.0929769607584277
P 5.660728406285087 5.3737750510310915 11.277158198422706 1.2516646980875152 0.0740472568244015 1.139055778939832
P 7.523388209262561 2.8286375655471483 7.93885497052351 -0.13358063630334413 0.2457946340054541 -0.6641781672566497
Ni 0.1328912380754923 7.3507244497229935 3.462422226116693 0.3527155016294248 -1.4128417559518893 -1.0893807803122078
Ni 3.065872966787591 8.351354677740531 3.2929907321557077 -0.08218197011639396 0.3642083327603728 0.4578268268484825
Ni 0.6659452426397308 2.727599337831515 12.092288612798159 0.697645959996792 -1.4382031175348133 -1.3420482301780952
Ni 3.316286066156094 7.145259180237831 7.619738270579175 0.8739745287906239 -0.9298461431472631 -0.25098543417777414
Ni 8.918520595076098 1.4252265280095535 4.948604126047327 -1.814907782989984 0.43867082274532193 0.08052977922495164
Ni 5.740964104251394 9.055021656817697 8.499495579058557 -1.5559028209418428 -3.8643688227436477 2.016078093417844
Ni 7.962248837976006 0.4092158727289247 2.5949162171408546 -0.16671315719125482 -0.6719737520416685 0.8257012956065327
Ni 8.850468051982904 8.395943367004028 9.830681596199097 -0.973298300793627 -1.1039463368312086 -1.0543731538887713
Ni 3.402350892644456 5.898120356000846 3.166581521831677 -0.6204634999775186 0.7498923188960183 2.4003780547217692
Ni 7.345420219029938 2.1938795418104924 11.849781211433106 1.171273501322957 -0.7678285916594647 0.607565818079244
Ni 0.6865608350920628 8.484439299226707 1.3875913536702336 -1.7660393394240552 -2.4504790851432188 -0.5120002275670924
Ni 5.308494336824372 2.779094577476595 3.4878816125699754 -1.503666746455262 -1.0258480498658848 0.8455977774201436
Ni 5.199361632061525 4.0600478723818085 6.555616585340441 -1.1984274360299296 1.336873113735059 0.2272515808959441
Ni 1.1140449940169657 0.3336600533011789 3.3895470691103857 -0.4816249577093447 0.01143780952329643 0.8743172568420232
Ni 1.3413349627079298 8.232166035622098 8.161145517611592 -0.787489817533818 0.9905586305359714 0.9817590299664705
Ni 1.7242801595320825 2.7031501494807126 5.626799747317217 -0.6246708531906467 -0.4894945902654086 0.3605447678658565
Ni -0.20782638884227986 6.751125371795515 11.36686692089239 2.154995311442753 -1.6066003472967103 0.789791469083801
Ni 8.427096513591888 4.434106641048325 12.019117855435518 -0.6331392956729741 1.2512276105500968 0.13589385781755306
Ni 5.3499888915169205 1.9058119297616007 7.760231318441329 -0.2933731551153657 2.149296718396079 -0.23228554377542573
Ni 4.301086480699043 1.5380703525107722 10.11280128705937 1.6093493707967574 -1.119251085509079 -1.1687193674425356
Ni 7.500246661117337 6.218575084972439 9.782740927817072 -0.9291745710015352 -0.02559301797775592 0.09644825022742098
Ni 3.439314750286686 7.341248662599463 1.1304816630517482 -0.2615755509887947 1.4857731540042927 -0.28022170533507224
Ni 6.526045499226657 3.9282616823673697 9.93753421846264 -0.8616198638800129 -0.4368085727256026 0.006637302810859537
Ni 0.8365250657108275 2.683222449446386 3.2266261499757722 -0.33979365136143413 -0.9375455686740499 -0.1551799597406747
Ni 9.060196965236964 6.028193721520653 5.961631151563112 0.6488129976544891 0.7166983486425528 -0.5128332649913491
P 7.68646567687249 3.2156622314633556 0.36469440722247454 0.24148083712144866 0.6974423286264182 -1.1406444635831903
Ni 1.5528411615935167 6.059033771157881 1.664401288597145 -0.6980272545956108 0.6251511352611749 0.43274494417919024
P 5.653481132751347 6.993738673599751 7.244809276564579 0.6173781761839755 1.3536840146448104 -1.3115487760376574
Ni 3.3792093444992326 8.604079169303404 10.620419847878317 -2.3094491916506805 0.9020088092200207 -0.18580616926696386
P 7.742657370777046 8.787848661856554 0.3811025291823465 1.4813058622615585 -1.3031898625500007 0.5896537136855136
P 1.807812584213864 6.67635045299758 9.93785836589388 -1.1833939387355747 2.1192389797787503 1.4271499450444454
P 6.670355567266366 0.3082375017832653 4.4332760132557665 0.30886379455179713 0.24458210175459172 0.6299976647201989
Ni 6.568571432109522 5.135342514391175 -0.036375419549719505 -0.8138163712434887 2.3582235328409067 -0.2501174297505241
Ni 0.21680674608510572 8.848525009142218 12.444143282424577 -0.5566266080272155 1.3802486525072164 -0.28608562031501694
Ni 5.301302315693685 8.990403971447611 6.230960831990078 -0.3179143347898396 -0.9705104536358446 -1.6654325869435704
Ni 2.7558148983237407 1.1578509409038842 12.423737649103845 0.36389877193975395 -0.7142465446679505 -0.406567514452874
Ni 5.820702530590227 7.793775052334601 0.9552191988219384 -0.1016436783854314 0.20067177352488666 -0.6771049026206468
Ni 0.43464118686699094 3.6152291928725178 7.951726017814627 0.17209601876972297 1.370566906443078 1.1425686771890968
Ni 8.04797294131221 7.528738483624826 7.717021176633995 -0.6406937109814643 1.1435618943403014 -0.45142400864593224
Ni 2.097178627734493 0.836287480377701 1.2697969138554965 2.931431185155255 0.9009286887819645 0.5544936208446128
Ni 6.9449784279057765 7.07063160118137 5.35299554311637 -0.8343800543274533 0.8619394520029607 0.6784760719365606
Ni 7.248792974824676 0.5141935967822125 7.056347934118873 2.283377177153977 1.3608545642513208 -1.5554924728773019
Ni 7.7800448301760134 3.3805998633093917 3.788479548757826 0.3400710733925369 0.6966668839129744 -0.49301982980984765
Ni 5.922090690191859 5.084648434590357 4.2231152103845115 -0.06725388805165192 -0.4110880280310469 -0.824250164982303
Ni 6.610204117809702 1.2848485893204258 0.7255156209909575 -0.6653899281765638 1.3237553454061783 -0.23600772982201937
Ni 2.5159550079382966 3.9857518077436636 2.3832322896921148 0.21907624417400337 -0.7804087423173204 0.07955018892050171
Ni 2.067102903006161 7.058126140623784 5.163711860738563 -0.1739569832378617 0.8253642239820883 0.5303903000385058
Ni 5.540379463702549 3.226270692849467 12.795862583663519 -1.3989053483764553 0.4053027888078375 -0.9584982596663169
Ni 1.2880256024959538 0.5144063185339652 6.3899321251798105 0.7228697675605873 0.11789819257108082 -0.23836157476617653
Ni 6.380473834650579 2.534326431953306 5.4869927501263 1.654856096979305 -1.954100366163467 0.3710107003941868
Ni 9.084977668006083 4.220335093637579 1.7612937443370602 -0.2522984965622429 0.3773289293027308 -0.45426816296294664
Ni 1.9739841863947425 2.957753222747375 0.37749454726300763 0.4197685865241803 0.6695147489782147 0.626990759573075
Ni 3.15620143704485 5.3028401742453175 9.195185032008304 0.23938204561089094 -0.419542072335671 -1.7113820570904914
Ni 4.856419175047499 7.115680727136973 10.172387320258128 1.2337078564987785 -1.2835150098288928 -2.075950087183128
Ni 4.2521144341267005 2.693121838326655 1.1693692251935954 -0.3016819320913772 -1.0530408082305929 0.573560664778393
Ni 9.074636259901393 1.6458401646649876 0.7422451277619191 0.49437300140363244 -0.25297263981113205 -0.0021047050478286335
Ni 8.673292012860703 3.6769921707515505 6.0076444319519835 -1.2086678828110153 -0.6276911280742092 -1.2271543716509767
P 9.184984517531399 0.9798276982682096 10.606699755326956 0.5674152140022872 2.658245046510725 1.1407779038372612
Ni 5.327095979185435 7.7526488469957355 3.60995074663422 0.24693517536780055 -1.9924262583268586 1.327203451855779
P 4.273110347286712 0.3218369599212936 0.6898207268721699 -0.956081165584392 0.06331701489109094 -1.514959288649946
Ni 3.6902343300165046 5.218350041243956 0.07287515700630749 1.0117663749618382 -0.989199802515232 2.8614136183155363
P 3.229723968040258 4.148101785380066 4.967041852946 2.164623064340504 -0.25551931749238577 -1.2651529623819373
P 6.279555320474893 8.660952309512275 10.663414505313744 -0.3933397029086903 1.6755979575123463 -1.159897912496164
P 4.947355421738337 5.684984211225206 1.8838481786747838 2.4577748474736834 0.004020948233935011 -1.1684830830620134
Ni 1.1139621154123869 4.582864527533773 10.153302219370355 -0.16698800811919629 0.28844769278929033 0.9608436199700421
