# total energy = -340885.41562837595 ev
CRYSTAL
PRIMVEC
9.15570724632080 0.00000000000000 0.00000000000000

0.00000000000000 9.15570724632080 0.00000000000000

0.00000000000000 0.00000000000000 13.40030302806585

PRIMCOORD
 96 1
Ni 6.158467363866952 2.7904947246346796 11.653559800164489 1.3749570650909742 -0.9969269959561606 -0.14255018679180612
Ni 4.93705025675469 0.42284900834522043 6.1743506845627145 -0.7704840270044407 -0.32983474037650934 0.7715752031860905
Ni 2.964187644233096 1.5997950148790507 4.933870479675118 -0.2740045207807668 1.4967857030647127 0.39475663786087495
Ni 3.503477104471666 4.392633600534087 4.3879019310992415 -1.7333673031123311 -0.9189001856587207 0.7233001702297865
Ni 4.067367949716876 2.7891213685680643 2.689694967198658 -0.7297053024251821 -0.41097721348479543 -0.67183285558843
Ni 4.958749282607214 4.912366470384053 2.396536550077494 1.4353846742494119 -0.5355582173926905 0.9400835046045553
Ni 5.4750487622906405 3.1500576542888363 0.5237577186958601 -0.10050185147150434 0.23006693885755217 0.7215685322506605
Ni 6.065536936692636 8.172796173893222 12.570917705269503 -1.4247693606274108 0.990687699914668 0.5148292123754553
Ni 2.351139807510163 5.168323418372737 11.85684213400349 0.5162453759966916 2.326804395099676 -1.220910190513478
Ni 0.6824911284459894 8.104906605666862 11.918537866369416 0.9446747235196633 -0.4714973823570396 -0.2550246372441543
Ni 0.5486017299409343 0.4070114661850106 4.785168062635549 1.0967323355812726 0.0034239380798844255 0.161486875795309
Ni 8.741045135723155 2.857496189271294 1.8217714714968234 0.3290047882760463 0.3407256762574003 -0.8458895976289497
Ni 1.9305815570840574 1.280910891918045 2.580978269823954 -0.49669779288206717 0.738920650375863 1.3286388987507247
Ni 1.9811119046283965 6.69560523293449 0.31363515607440134 0.342720595200242 1.1739644178915587 0.7947045901147023
Ni 7.874796218851881 4.372033259534855 3.973926634085779 -0.10731476062827969 -0.5347809729070337 0.2586822886013997
Ni 7.721117674997608 4.311953509473983 12.872344641482405 0.6982691954030879 -0.25084016684916155 0.23503713837863394
Ni 8.428368582183253 0.4371364892915769 6.90906230408569 -0.6194399438090106 -0.08868120468749242 1.1844342070746312
Ni 7.147704894357198 1.2570144963589354 0.17365080334570673 -1.2355917037850528 -0.5231441599990538 0.7898922563277235
Ni 1.8944714482391807 6.943697428515023 9.623146243886017 -0.9115260046818366 0.08355828163863029 -0.4333545527387311
Ni 0.17720871112895192 5.322926688645198 1.9755928443820245 -0.3909341787909913 -0.48919711362964785 -1.026997847199612
Ni 6.504406601340281 1.9914120751280129 7.191044349536739 0.26968969545549687 1.171457592309305 0.536846854297127
Ni 3.498761915309619 4.721762959752045 0.5536895563823891 0.4552634369966804 -0.1053913183533217 0.029691099306529516
Ni 6.45062597777162 6.066031344876618 4.651567068904483 -1.3121565848249852 -0.11913077942660127 1.3818085407951688
Ni 5.239151968581653 3.518794602467984 9.617183131844774 0.0761067104565915 -1.9471493887669304 -0.7878274033788948
P 0.08660932698503919 6.05048495420253 12.914474627752613 1.2622105919241615 -0.9037797850775144 0.08975978246365186
P 4.198267094279553 6.606620915524918 12.900914109950852 -0.41896383123469777 -0.32762950519507444 0.7114612686133295
P 2.55825105806289 8.689388636204193 1.497376528425845 -0.2693245988065942 -0.661779585117486 -0.38376620028764225
P 6.673430110312205 8.181072933121357 6.447542335616712 0.31734329277771794 0.31095744385603225 -1.7205940626070626
P 4.717084393418441 1.442948596364451 12.611146051172806 0.08349888915560459 -0.4792099205099489 0.8039878151888411
P 4.123492434305895 6.602693117174397 8.362981268710266 -0.32100402945875683 -1.2189792920393523 1.9463214935489963
P 5.044455856871131 1.4721278349264748 4.0809953041805445 -0.44190501341190347 -0.8264080918655703 0.04487860568024529
P 0.3064616595531131 6.240337696851456 3.9682986209247892 0.5192605086739316 -1.8393219501682905 0.5603030284375382
Ni 1.1104407812226198 7.931039727633341 2.9450247492502544 -0.2043199118004352 0.6440903953678391 -0.5137308371049539
Ni 2.265662125924015 6.60415803031212 4.962118582823976 -0.6096921203936275 0.5231230769531313 0.41764794063675165
Ni 6.150025801910821 6.124582091849991 9.506308434304062 -1.0518131064710787 1.5073773625376299 -0.753986800680366
Ni 8.656885875960958 2.651913941806066 10.847263369025246 -0.11245208185484505 0.9510705997436781 -0.7045275176079738
Ni 2.29949246369831 5.688330959436025 7.29891689071583 0.9795481383580807 0.3997728601285438 0.5273728533684208
Ni 1.0270048223221735 0.46344175139152993 9.349149806176985 -0.966924021836167 -0.7520268487405177 -0.19217273491494002
Ni 1.3762492700624922 1.481475811886571 11.855918323156015 0.6250688599600138 0.34105914833741907 -0.8351819814034583
Ni 4.501238598282041 7.103766655932613 2.1375225114845233 -0.8561287588584545 1.493825591995124 -0.7948832817844117
Ni 5.9063741242790115 8.268207797694554 8.438264070428573 -0.45113064577522954 0.7198525780008184 -0.09646573372891774
Ni 6.970999747119339 1.160650679018082 5.066400255674224 1.429814636360802 0.4413077461475368 -1.278794978645404
Ni 0.9164679703738481 7.990387021125351 7.310119813936568 0.7168574999282364 -0.5848874026451217 -0.39192996704535726
Ni 5.182679567122425 4.839606065974764 7.481429502974051 -0.2784088204960496 -0.24003999090986405 -0.48929198733629925
Ni 8.567526174559845 7.717665973416848 9.26877551573438 -0.5721367878476727 1.0269785639259024 0.6947946065909261
Ni 4.777154987772203 0.1905650566621431 10.532812439447277 0.5186501287834423 1.591081425725505 -0.07057755310824619
Ni 8.410762157409241 7.603036520390009 5.241193691267355 -0.4810827120526296 0.18974124265531195 0.313984146497498
Ni 7.370756230989775 6.288661518982099 7.476216243345179 0.30528147651717746 0.07574829867590825 -1.0356606650809324
Ni 2.4393550455224315 5.769899154085875 2.5504796938672682 0.6521544033228962 0.2757970939048153 0.8754693681685954
Ni 3.4404583724282367 4.76083951770081 9.604720383325594 -1.2556398806851794 1.1036591446080928 -0.5933093081602298
Ni 0.9823249716216161 3.7060562800045616 3.8928143936500463 0.9332963064793925 -0.16243252753802995 0.36146547990791295
Ni 0.6853742606151708 0.4262988787845585 0.6070993738130654 -0.5374801170057518 -0.1928561341352098 -0.12023841066848324
Ni 1.6089415662827098 3.527565769880102 8.144006968454116 -1.3075147151775999 0.47112765772244664 0.32826893855128625
Ni 5.400979091764511 3.368650161558468 5.208282586486982 0.9212355186601165 -0.176183044354903 0.3201869328741002
Ni 4.393979489479371 7.002934853521704 6.306249632341888 0.5587467396940119 0.9282515449666336 -1.0783682312517882
Ni 8.053579711603884 7.581456518729923 0.4992405661946404 1.0711184916679104 1.079887753220108 -0.25772095312939486
P 0.2707113699976898 6.096309268291933 8.283276260457459 1.1541962341256962 -1.5775381398234316 -0.32718778967196555
P 8.844495470367745 1.9624159507082044 8.598103489597683 -0.39901695579912566 0.8065481197168496 -1.3203622605642291
P 1.8448658271130294 3.494394643017782 10.719693239568045 -0.22884257953214782 -0.7630190860859634 -0.9118224528763329
P 4.306441773793299 6.291252584094447 4.1590925702647015 0.4132559822166431 0.9457278473745262 -0.43198029809902383
P 6.867210651311651 4.624602595892555 10.610869420420144 3.4507019782418316 -2.3051387372007848 1.0546840002609705
P 6.763119417169307 8.057113814548643 10.461871274040897 -1.8250926939427856 3.194937891728491 -1.382907173175986
P 2.6361478141613204 8.583933201702344 6.113365435068587 0.17010084271656511 0.7583628182608746 -0.5835458010155626
P 7.067436810117079 4.42976914857537 1.9458715879590431 -0.5644448185200537 0.024043156992132785 -1.0782818421855689
Ni 2.6611795174021653 2.032090881821164 0.39766989821989207 1.2598629176275917 0.05229495274897445 0.15981385896826025
Ni 1.7086563724261052 1.285690171029867 7.067775571280177 -0.46561007033832713 -0.24760546196194774 -0.12895393616461018
Ni 6.9891921371484385 1.3178358586957801 9.64217454997433 -0.993214837211896 -0.08920031041575605 -0.9522584494041924
Ni 2.922043924402222 1.965620448196974 9.249331540543237 0.5903689945849833 -0.4040033532701236 2.141778298531847
Ni 6.464936347985753 1.9751423835921746 2.4853276820670294 0.27466195185910763 0.6567191398754432 0.5346966407233437
Ni 3.892402386830062 7.237522381113851 10.746708068969083 0.3348460775481717 -1.262766978648264 -0.04059694758575589
Ni 7.730017022309276 6.810994609651523 11.630015899329145 -0.05667277010169594 -2.42669998044575 0.599304092291084
Ni 7.278256122049667 3.908305850081469 8.516615865170408 1.9872601407448875 -0.4402847041996611 0.16495786506304494
Ni 3.502634779417475 8.65440467933394 12.787962898037415 -0.6054066056443961 1.1878293487991092 0.35740313691308123
Ni -0.06103102802968125 5.063408170590424 10.784778414706373 1.0240469921014042 -0.04105974615478735 -0.822934274384357
Ni 8.778363797906655 2.696548013971069 5.999985736062368 0.011631413591341259 0.1562981325055179 -0.1335181584965249
Ni 3.895606884318831 3.354294012808781 11.939415625294105 -1.5615047405096527 -0.9168628435137176 -0.4383275804732903
Ni 1.1626374674611188 4.022981081643863 13.37369010474181 -1.1316584580344962 -0.5735784053902057 0.7565594465035487
Ni 3.4084683317832067 8.636111576526622 8.256033453949364 -0.4578571658657857 0.771480072369123 0.2829974683079965
Ni 5.978667587625651 8.426958603288194 4.0498796335645935 0.42873248058568736 -0.7578773939840239 -0.5540729883674265
Ni 3.629633592750965 8.72954556759203 4.0891292343777526 -0.9679552913141588 -1.380341983551971 -0.3704697402890523
Ni 3.8146521220454037 2.63781415285548 7.187506584309137 0.37283978318312566 0.9184826385053279 -1.0967755301143822
Ni 5.199342954064027 5.254817383448181 11.598163194290777 -1.1805181598496766 -0.07294862444358403 0.35727535308596536
Ni 8.07906004449316 0.16890906263303898 2.3352839539357317 0.5102125395390503 0.33130104050939074 0.7137804036648094
Ni 4.417537123875381 0.49755408494483655 1.879727097507997 1.1405233646242938 -0.0797821024256497 -0.6239779408886802
Ni 6.225139223047578 5.93346586161978 0.33392511860257856 -0.837468720555106 0.2963875164616573 1.4256988144202154
Ni 8.051693635939067 0.44578771694054337 11.540983972242595 0.2265548119392356 -0.7519363459092405 0.1906454996371362
Ni 0.344704132584088 5.04968376563138 6.162826396022388 -0.8543418421613608 0.5510442288434316 -0.5566381779914413
Ni 7.784484323911247 6.916184528647158 2.7477320790031174 -0.8221133211449584 -0.18911723591806787 0.7455116733298193
P 8.745320850943886 1.9305907127911681 3.704460440255154 -0.8620852335522057 -0.47510181187884626 1.1394334739942247
P 2.0824198038090658 3.6798068677179843 2.0257771061975767 0.2469775985699618 -0.8132293883917672 -0.7833572834226832
P 4.946599659271222 1.3612888446434943 8.522820687879378 0.14036500621502923 -0.47078081590598925 0.6603335966995789
P 8.839990862469246 2.3490614619960186 13.042970399198712 0.5668865951923269 -0.8621309991884766 -0.37025916694014294
P 6.283406143100517 8.174389266930495 1.692565217178927 0.36601967493749865 0.956357044953598 -0.3737044451762661
P 1.951685461974382 3.3597599699539105 5.907121229979251 -0.04937469377838593 0.27169824124509334 0.676285492043145
P 7.089593621325141 4.422966458192068 6.312360151267616 0.24189992693673826 -0.7133960237421971 -1.015939018282289
P 2.4611730955673963 8.997871875887363 10.728966139729833 0.7605138031656064 -0.8086726222590201 0.2690626033944592
