# total energy = -340870.8972381924 ev
CRYSTAL
PRIMVEC
9.19565215278459 0.00000000000000 0.00000000000000
0.00000000000000 9.19565215278459 0.00000000000000
0.00000000000000 0.00000000000000 13.45876643636318
PRIMCOORD
 96 1
Ni 0.15278851754528625 4.986048064517042 8.146335277084487 -0.5025442243605152 0.3915047065824806 1.112659291224174
Ni 5.887893248246428 9.16419372667143 12.261326120508592 2.7194275315573164 -1.041295751879523 -1.2747377778568947
Ni 7.691675572225723 4.923977413163731 10.852005084792609 -0.6241679454122991 1.844965778717629 -0.3765239169029322
Ni 2.8304584843192293 3.4791473670476254 5.659801536044509 1.1465042647980772 -2.0693989163281716 -0.47892195695588485
Ni 8.206181500206338 2.537530988191859 2.588066613610712 -0.0930687922322268 -0.134893955798129 -0.10353729586371846
Ni 4.0977204893046 0.789454085215245 13.030360340776404 -2.7008261144060453 0.8233371662497303 1.7447148669146662
Ni 1.3088723305222212 7.273898708183698 4.582454574200551 -0.14382468262885553 -0.6104066299621488 -2.664763307245217
Ni 0.9836956826472859 4.085536250335247 2.1695531778392954 -0.897932582268118 0.23821296500345426 -1.335437923950429
Ni 8.73249464542216 5.760864510795368 3.7073788531607397 1.277099336110536 1.096849320775111 -0.13962787093868856
Ni 8.925456208088514 6.781379584260233 12.01524587376188 -0.7724136399269859 0.6743918745648579 -0.22213585693593355
Ni 3.6963302772198507 9.042801923928456 8.215163813131065 -0.5425757863611043 -0.3681272081988047 -1.467792401156156
Ni 5.761425445570562 1.1348997893439536 8.428646392917427 0.6827582442516822 -1.306681677753343 -1.0880774881197517
Ni 2.039347342604152 6.75620188894092 8.419817647381974 -1.6870555645299847 -1.2653434811261886 -0.8046550164591948
Ni 5.288327538781645 8.547340191348244 9.935893766469217 0.7108061515278339 -0.7796510382156895 0.4845909823162042
Ni -0.0829236315124089 7.3106997076971725 7.345417892020792 0.06448249595410185 0.049567269405166245 -0.30396198637480554
Ni 4.330462442749389 7.832525374711452 1.5329133579950833 0.004333337268031247 0.5870661554639954 -0.06799256598988936
Ni 6.468148088401292 6.256519352068682 5.829167055544553 1.2214712052232706 0.19887045865008976 0.7477171656215704
Ni 9.167283465761017 7.2293181870339405 9.766016968715064 -0.03064857812379237 -1.2387389911647828 0.13072954000779421
Ni 6.645982803441543 2.9337348525190876 12.05371128629683 -0.17949025435126506 -1.1364715631524231 -0.5058133820300902
Ni 6.291858242905834 1.848215714696213 5.072245348160085 2.3393506071958035 -0.7308802965698896 1.7226892545731944
Ni 4.346462877320465 6.16069146203122 8.499184400680535 2.275175358069475 0.037315448621006705 -0.45970450348716957
Ni 3.74629945047228 5.785655988728483 4.4347714826747255 0.6787699490278954 2.2701349674320905 0.023750565452378452
Ni 5.720918598279993 4.676485633826984 13.219981123052143 -0.8062935805038822 -1.2491082502142488 0.7879580154194882
Ni 4.533346113980222 2.6753370298482633 0.6969504233947057 0.15172465420222256 0.026594719769392906 0.20667581362712145
P 0.8529914430709055 4.911655239413592 10.319427861398728 -0.6396516428701952 0.145013303620318 -0.5237072315913754
P 1.1827171800161347 6.338139959685273 2.2120830685813795 1.5261582426895588 -0.00924671540924859 2.4250863561017266
P 1.069960094550311 2.838320766823982 4.367867596602703 -0.21922176861293213 0.2632046019517854 -0.08054494873360322
P 5.785278966994338 1.587473000752042 10.420853144840452 -0.8526456854058605 0.36783744487252773 3.042621626688857
P 0.31620445016746473 -0.24413628590284608 6.017360672621768 1.1348679661107295 1.5019286807182326 -0.4337232489320595
P 5.839560901059316 6.170107809732819 3.5677980506582334 0.8304591220064923 -0.2974779213123586 -0.14880439523163402
P 7.966110612075831 4.6342408082985225 13.133010485071498 0.3245030437509508 -0.18607767776079565 -0.18752366617870284
P 7.014710059436372 7.623112790523456 10.849999513079991 1.4889880613971647 -0.4575584036784442 0.1963052690260748
Ni 7.354507794074531 8.94083133832003 6.859475498445163 1.7366122924121896 2.118264788790939 -1.5824623165979261
Ni 7.5906429431266345 4.101122880563968 4.675790442531827 0.47709390260821055 -1.2061137489305935 0.2707875565053659
Ni 6.949981864639933 4.149280510362085 7.1067806060452465 0.3275053209123843 -0.4013096084880443 -0.5979946294510411
Ni 5.21851414840026 4.1827067055723495 2.576155485507313 -0.3146125241101162 0.4460748285188769 0.5635845274022875
Ni 4.5354519183002076 3.9577534694158953 9.60436384259132 0.8536435305427557 -0.41103172087181467 0.3594767316126583
Ni 1.8977251053460251 2.08923375498811 12.282173583276458 0.46191745197808837 -1.0945407272465923 -0.0430081281304098
Ni 0.2132278602245125 2.6245034653029142 8.711563502220617 -0.06138817329949428 -1.0661475208158802 0.9289894515739227
Ni 5.911158247938854 0.5553070361368585 1.218598614324375 1.0491730977450706 0.21510054735570697 0.5373338212358747
Ni 4.09277322850044 2.6665643777903285 11.690095893277897 1.7364618828772547 -0.27599326907602145 -0.6803529772442992
Ni 3.297349325972814 0.6825629061936106 10.455792944378532 0.044476999366452434 0.8489525528249896 0.02793349318547447
Ni 4.747200198109499 2.7389709420504733 7.227962747921427 -0.22970081376738502 1.687477996779384 -1.6832778426551074
Ni 2.074768994309775 6.4534810233778055 11.253964507739397 -0.42830284924743656 0.1535588791974839 -1.5835581207652663
Ni 2.1369591891397675 3.1412071541240385 10.27522987937435 -0.04283843532176493 -0.592160025047135 1.34961164434765
Ni 8.532930604582223 1.425795046367756 4.652681768924291 1.074279405894395 -0.8922339892214439 0.6180572045288711
Ni 2.4552115110192885 3.9473255999885386 8.290424707788256 -0.13027856851330466 1.3997355575872346 -2.747282348986056
Ni 0.32987010868245087 2.595445204817512 0.2890634831349758 -1.3049307565005073 1.19264553924083 1.344365308347046
Ni 5.151588192763312 6.297154938487982 11.289051437710315 0.5232840280110279 -0.010484444471091621 -1.310656346130375
Ni 3.1342368498683633 3.3398240428025847 2.869974040318555 0.2525121552349458 -0.9884230722502074 0.2775001926388511
Ni 2.2671512308968325 8.083805762693764 6.327678985910528 1.3162988891281329 0.9594899341556249 1.742921008239037
Ni 7.310653729436911 4.97948236895167 2.095947500551525 0.3357549625156863 -0.6970152683913287 -1.1960303965526626
Ni 3.5360132793393118 8.09658771904652 12.135136946089911 1.9486707105074632 -1.7315191941599986 -0.3817802802058651
Ni 8.968547033605791 6.346590763921376 0.7504093466009988 -1.4354625786751989 -0.4306590081844389 0.4421541533082321
Ni 1.2964306132954018 1.6638612823508507 2.4946626974542485 0.35378070966914554 0.0024278927152022703 -1.331042880206527
Ni 1.8527675624621227 4.931655782627436 4.115394532549203 -2.896781456291869 -0.5688655732955686 -1.8968863788463204
P 5.49161581870278 8.179210652736815 7.105582412582826 -2.8874267545498467 -0.3447386540715353 -0.1685268133612259
P 3.309561151898325 1.9669775609522167 8.575387849673094 -0.8872733027820591 -0.0057456442345255885 0.3467500280746093
P 3.772332341432461 5.134732562551368 6.732572741427221 1.4362259392037846 -0.6689372792081899 -0.2494592273412349
P 3.3182786300439457 7.529547030890871 9.705937176031084 0.6120655057218104 1.6542184633953059 3.9704959908217297
P 2.639667095537227 3.500187018943385 0.5430069319516452 -1.8879605371116004 0.0254228109484788 0.6751382658125792
P 6.4272642193765765 5.096570606534146 8.913014490861695 -0.7960734454377708 0.09163231689601638 0.9816245612711352
P 4.3937101375654 6.44301637134224 13.28085450050824 -0.7237406002013148 -0.013016981084958227 0.8440255478370174
P 3.5612553442229915 7.890908569591774 4.363884040133628 -0.901843230176434 0.8574163673216266 0.8776095544400497
Ni 4.612778156408356 0.28406196798370675 3.455524656490363 -0.9702183763167225 1.3867692272345535 -2.203746512704527
Ni 1.5443821752347648 8.694443037229567 11.593044981517474 -2.7314695503235153 1.2306119911822742 -0.9615177632189312
Ni 1.2927891350826741 4.791670371434627 12.767107213821944 -4.583374222252823 -0.43245132419817134 1.16348177319268
Ni 8.234678825916546 1.0843880726204362 12.51208971284556 -0.36263173230187223 -0.8012087097818071 -0.5913601548536589
Ni 6.892830887134624 7.183891665895369 8.288500057813701 -0.05335064770699844 -1.8410592445743714 1.6064239696198461
Ni 3.2636104785927698 4.741048306886482 12.25364131408845 4.541632619539663 -0.09490815943381074 -0.8159233902841625
Ni 8.094132479948543 -0.06315849699110394 9.078893019103491 -1.1087774396712649 1.20465027701119 0.8115694841908411
Ni 8.185868304822712 7.8775748741158775 4.664229668771623 0.304392903264637 0.48616218345806594 0.03130729475371383
Ni 0.9445222049043069 0.2166982993090666 0.22622683396570384 0.32086647543962804 -0.5514427498334309 1.253355455526377
Ni 3.3684409119894743 5.630966729903978 1.6607044150012817 -0.332349279268247 -1.4128996057730183 0.5604876336445186
Ni 1.6206049350966318 1.7446450856306797 6.957172864544866 1.6645219022038429 -1.6736331204764918 -0.21094744441928187
Ni 1.7603328680319759 5.493381383896829 6.27580907137888 -0.6135279491999497 1.0684237184445664 1.4139758695563327
Ni 1.9476299090340878 0.7922192177873845 4.555334757167783 0.22842168994464532 -0.6932979674407415 0.8968591466982813
Ni 1.1890713755843032 9.125884640221372 8.608146440544358 0.9614221181813315 -0.13562106377214064 -0.619762617255752
Ni 9.234917486605996 3.2627093046916404 6.516828950801187 -0.8459075953510785 0.6463946180209835 -2.0796699592368766
Ni 4.238928922220372 0.4897576696121455 5.905127739322928 -0.5641882224245575 0.48342524414287713 -0.07503327488675464
Ni 7.146557318562859 3.03938369894845 9.460166822758536 -0.8130913201520061 -0.22726752173554407 -0.6848554931003431
Ni 7.39681698916736 7.469214357775452 2.3338307430587784 -1.9434449433321495 -0.7949385605023794 0.13795948209733014
Ni 5.355933972670467 4.456893462817046 4.948222669364937 -0.332547254211666 -2.8994638882200388 1.6368619743947297
Ni 6.56588867406564 6.741286541312021 13.52202242992859 0.6673424239172442 1.7270115360976321 -0.343338431289899
Ni 1.9978841475001397 6.989799038026576 0.2832812571244629 0.47040672039602205 1.2758032430069317 -0.5856471636292817
Ni 0.004142641249580294 8.853803687296661 2.4756589629228776 0.6874291673647902 0.11188618204904602 0.11761588544397164
Ni 8.918504295136943 3.074455915876085 11.19990051062806 1.618930329616973 -1.375661033136534 0.5236966900684142
Ni 5.918110160890425 8.29271258601888 4.871804042114356 -0.4263629519122464 -0.5133464571823417 0.18349731862812912
P 2.672697877709241 0.06946855342942136 1.7479306921089817 -0.24609930973006652 0.2431047458781168 -0.6871967396390101
P 4.548151113784493 2.291593274051959 4.3544759685188765 -3.7221428520604802 1.9633676503980058 -0.6310729000622487
P 7.951719416613916 8.441194779708054 0.35950493655153504 0.6036682827970508 0.8218834645223393 -0.3558355353156452
P 6.9930083205928435 0.19732857782601235 3.283467569634598 0.35561956265009725 1.4282202952904888 0.28599588881468807
P 8.852001339494402 5.645422294930261 5.9860283273838215 -1.8891033924667917 -0.8620374110334058 -1.0274999836470111
P 7.392209967489136 1.9555197784949978 7.275714849464035 0.9956794967023046 1.0050848491766045 -0.24662381477496884
P 6.424340002023932 2.790025202245079 1.5397631992088732 0.9164231848731379 0.12970392695675725 -0.7049682046898181
P 0.4220151400729488 0.9453406179369654 10.315525226667713 -0.29383132569870685 1.2078145336717845 1.538357612969228
