# total energy = -381172.5289048786 ev
CRYSTAL
PRIMVEC
9.18705703390449 0.00000000000000 0.00000000000000

0.00000000000000 9.18705703390449 0.00000000000000

0.00000000000000 0.00000000000000 13.44618661106977

PRIMCOORD
 96 1
Ni 1.6015153646270763 6.499668383872057 10.41666666648584 -2.2693289265910273 1.9840398340353766 -0.4894696505647441
Ni 0.2961787795391482 6.734811111783061 1.8985209793102755 0.17616478952245793 0.6296994167534897 0.2870556975377701
Ni -0.2165793602213394 8.887393725805948 10.064833613400605 2.0914188722426887 -0.7305815343825482 -1.4377416045173625
Ni 0.96261066176156 0.13288343211761475 3.213947709272775 -1.0016524264562878 -1.1354153539737672 0.11581791300328441
Ni 6.970211077294437 1.6980713353379437 6.588779163463601 -1.1357457407299925 0.9045215483395456 -0.6712260752423665
Ni -0.048311058761195846 3.282379341911599 7.474574084225658 1.1456686562706593 0.6989399962178673 -0.2994363305903101
Ni 7.134282731045663 6.721012151934562 5.772353873876008 0.5940929804037898 -0.8460009263958334 -0.7428135576723659
Ni 1.8841276168637753 2.237783382088785 3.135570168556731 1.2799720296726407 -1.6449293247838959 -0.7726098150981919
Ni 2.1191784742032183 4.826640966341708 5.905618568865602 0.8059400538192055 -1.0345232090423797 0.08698607637325664
Ni 6.674718570924852 4.165815945101679 5.319284963164576 -0.1094649742020631 -1.2396679307369554 0.9445250853156765
Ni 5.394474595047446 8.957004057877903 11.861768708207036 -0.35049792515281575 0.5218820054571786 -0.6210828787290723
Ni 1.4524278010974894 4.398037188837035 1.256359464682913 1.9130868998655826 -0.12497926778757831 1.7705793933862537
Ni 6.857035720188141 0.30429095100800596 9.943509336596827 -0.8491469282239829 1.2332687120788308 -0.43441333302054863
Ni 7.669235882189631 2.656171152035847 8.99134435882178 -0.174113563420384 -1.22693299966879 1.996233290777775
Ni 3.4751054269327772 5.692741592678181 8.419679727281938 -1.5200999523106207 0.7010495863617023 0.05617526163998713
Ni 9.021818746114361 4.783131063650303 5.604518282807918 -0.4169557996657335 0.5935173104059779 -0.9285078839518137
Ni 8.191207721571997 7.0490084665225154 8.125987884114954 0.27781720965863765 1.199392113936044 0.469000841187431
Ni 1.6107759182404495 8.013879144344482 8.140684419447606 -0.08178704867082044 0.7255177467063957 0.9984100082595903
Ni 8.838977934593172 2.3079541246472632 4.229552072828008 -0.8293836295541265 0.7909739194276765 -0.468199171221742
Ni 6.572521747120123 8.789358638892944 0.3411099199726058 0.39334253112216777 0.1490774463873626 1.4983995845190516
Ni 2.930184318774413 0.7635133526026098 12.491588330250861 1.652840609211173 0.17288740432276678 0.415915017106045
Ni 1.3843517075706075 6.71094313729145 4.2666631902101715 1.3794115013179018 -1.7876556321422503 0.27722431326964514
Ni 1.6163708360485296 4.364807603103334 9.737849712511256 2.2384792882000224 -1.0367564692482725 -1.7199919102466894
Ni 3.0927584822091916 6.565337468424033 2.2688824892679813 -0.6674972043275537 -0.15811256000643736 -1.0247275631081965
P -0.0058595050541761515 2.68536761967801 2.104409361119033 0.003028502413678655 -0.07279821490864881 -0.9592071128078835
Ni 2.9690271964305075 0.47274758713985005 1.6711192657590217 1.004566000558657 0.746454753969379 1.0927000744934277
P 8.675531000728563 7.287164549180729 4.174019068436382 -2.301556419166165 0.4847835579429845 -0.7370956813519821
Ni 4.91918219307535 7.287522844409818 5.201858754712141 0.5570850357208729 -0.7902401265854455 -0.008373054555043646
P 3.7663535128962335 4.276051443918016 2.179532846190378 -0.3965895773045557 1.1063755150979915 -0.4793086508713423
P 0.26701630400846244 3.350593241295823 10.797584105115934 -2.1393105537176447 -1.4745441180576928 1.4547101140509011
P 1.881591989088685 2.5330370249723115 5.903292405993671 0.31111196715602546 1.537987631224319 -0.3262174553388963
Ni 4.524588901162649 5.0712831113521455 6.311882179483726 0.7168760118709976 -0.3485158617257804 0.5190005701443255
Ni 1.2611165228783545 1.7759775800218789 0.3494554426932292 0.439870756590694 0.8147694791853775 1.9264484087741531
Ni 0.13078786438030277 1.3701117689786144 6.156000787187186 0.5267064234290155 -0.9659922540505169 0.40475231562100616
Ni 7.114089579416501 7.299943745684899 2.5600194118398485 1.4677234955914336 0.4408817143537117 0.5942271919888088
Ni 3.568583733496343 5.511039976244352 0.13732629295831653 -0.00816968029498593 -1.0027523443886859 -0.3810146056844341
Ni 1.0882712295430297 8.656532166529697 11.891027647837861 0.2517436525000374 -1.0209367286071966 1.553751578926795
Ni 5.569827954986392 6.5114553782033635 7.972647631827796 2.33819129678038 -1.3795369711521726 0.19462890976491642
Ni 5.493345704161657 6.380374446699781 12.374202544849913 0.8071304745828808 -0.14950862038751025 -1.024468910130171
Ni 4.192182799139756 3.463832907802212 4.154737272877108 0.3959411450872794 1.7907959775434448 -0.6445948458080833
Ni 4.001128758520993 8.013796460830077 7.23988427823245 -1.133997390580318 0.0036339972081614836 -0.5623357425968509
Ni 5.983254714069147 3.743744165235011 7.915689714871256 0.2774325726257093 0.3796375228312494 -2.0046539107413026
Ni 1.0707606986034566 1.5867517637771844 9.002719772992492 -0.8363513191212112 0.3807310130057443 0.2118828117493577
Ni 3.3151955100732753 5.300931979083787 10.928240594578902 1.5269933369963444 0.7179242506298539 0.5423148193902337
Ni 1.4575909272192311 4.201029935181103 3.6846447452553783 -0.20691749732428236 2.6944387228224627 0.8815361431879657
Ni 2.0537298790229883 3.7858116999529043 12.352420032332741 -0.02468567567213813 0.8156361980610469 0.1334955327887056
Ni 9.036398605821129 9.070703077242099 0.5339692173225475 -0.41906590403020083 0.17300876039197946 0.8766340779006581
Ni 8.31925692421406 4.841147329591228 3.098028178193944 1.5661574087903156 1.950271736445996 0.3747953642475997
Ni 4.167717665932996 8.015918671033143 0.23928149715983843 -1.2140841687305801 2.0215694555497183 1.8166787588474775
Ni 7.663696086724489 9.164668297834938 4.86375483984102 -0.3312840712285262 -0.3491560664129406 0.9655263701576922
Ni 7.741868756065951 0.5716977049456037 2.63798077886672 -0.23648981166476044 0.4898015799828662 -1.3222818461844452
Ni 0.9511084662020922 5.68337998143609 7.8525057292800104 0.8079339443207828 0.16998180064019758 -0.8152579887860217
Ni 4.881800057507079 8.39060361008852 9.312358509971078 -0.8161918134542008 -0.04905536276575422 1.384568620038809
Ni 7.381754489660186 2.1815494052361473 0.5053395911069171 0.5517520535437336 -1.3120995063348049 -0.4701102722015258
Ni 5.411461463729119 6.689656725860709 1.219353998458044 1.86574620579809 -3.0500073776299668 1.351323484832434
Ni 8.63469453166959 4.993514672525551 9.399879928674613 -1.1142250930493973 -0.5878117753807682 0.5544923352930321
P 1.877981475626328 8.266688583166715 0.6715132435354643 -0.8985054240524525 -1.628079857326725 -0.7523608350411688
Ni 4.275399162859931 3.7087506645273334 9.380758906615572 -0.40546965340300495 -0.5652269481017169 1.5489585284135257
P 5.407391597408957 1.0997183027595607 8.228689996063267 0.6215065965300522 0.7831297407929094 -0.39473838302842984
Ni 1.209485261660935 6.1801057877534245 13.208176032311417 1.2193572442040612 0.49746938094076915 -1.0459893007004502
P 5.182391380598313 1.8472599564962482 13.06392545437453 1.7710558188020402 -0.7906396760167094 -1.4326405358453715
P 7.799352172691822 8.910278685181854 11.875040330974773 -0.852128636560126 0.3877400973337258 0.2797774187088021
P 7.86997308105095 5.409669987583675 0.8240808643157911 -0.2601367616597391 0.20757184307882962 0.09441964983316642
Ni 5.95603346371555 4.140882271979957 0.6262238078729176 -0.4931933792732344 0.7273054347344378 0.012407115415101212
Ni 4.703387407535143 1.626311231891456 10.391723806306961 0.758911491675493 -0.4192109142484974 -0.4205746273652434
Ni 6.305637736734709 4.637222221896734 10.018000752135832 0.1425674131829867 -0.24250079374553077 -0.30380103531690905
Ni 4.001689169007516 1.4046183556570178 3.7402990188014646 0.30865733496794584 -3.004476225967387 0.1548122919886108
Ni 4.900174171819328 8.161836699843866 2.90656806964888 0.8984622295193431 0.8751068426228542 -0.4415571431541815
Ni 0.41694080844497233 8.09241929597219 6.127884717466582 -0.8096676391824379 -0.17321470575519846 -0.2334008883267916
Ni 5.495247424992974 1.5584188795076968 1.8748284776103463 -0.8618885441603671 -0.8445024874734359 -0.3000441393776381
Ni 7.649502083418276 6.896374698930665 10.545010773662614 -1.0651483901274044 0.4849514509794165 -0.2564760249787002
Ni 3.2105181808363943 0.8937435626135358 8.292020974569011 0.30493077804597807 -0.12043047207463131 0.3698125663210276
Ni 8.372119251090398 0.39295891444462516 7.960196413264101 0.9072500030143019 -0.008628879319591592 0.48336482321858687
Ni 6.6149108288384815 8.517587114100472 7.140302090894356 -1.8380446261177636 0.6500059895213256 0.07223642886790785
Ni 2.9453154019105505 8.276151252037522 3.899138643502277 0.48314422256734857 1.0177449611427762 1.3296480567415294
Ni 7.725846528385669 4.798032470357536 11.72112129408678 0.7918259830153266 -0.0232563994247793 1.4994609359040305
Ni 4.800457853446753 3.9395846626321154 11.772862799990072 0.3807418116390217 -1.4572431648853998 1.5399105592786446
Ni 8.312982164176425 7.104608536431381 12.827957728730906 -0.7826713130992521 -1.3812688662416148 0.7152353909437811
Ni 2.9073085464556634 3.3326049833841314 7.749171547799354 -2.131267114587878 0.03491583804057858 -0.7067299245759312
Ni 6.738715611074413 2.5399273178394046 11.509882370190295 0.11802520506724835 -0.5043213708655959 0.042058619732946924
Ni 4.498102615381543 2.670502961199401 6.225409922707421 0.5206422195128065 -1.3202313914133197 0.48697053829197423
Ni 3.3076804973195655 7.598982456116747 11.80852236234157 -0.7053492421783207 -1.022113265413801 -2.3952903557862166
Ni 7.0662617598617175 3.161606288537188 2.653510580283433 -1.3384376300087015 -1.0988997755462364 0.8252176711018948
Ni 9.100579387113815 3.7283007221555655 13.320868150211304 -1.6821002774072384 -0.21558520030160938 -0.8894060328543457
Ni 2.5253107099040104 2.2690836858197008 10.762690743331257 -0.05497455646366661 -0.10749679473209874 -0.9751091287501208
Ni 6.01996619446502 5.3733719247598275 3.5545394792217757 -1.1508653699802505 0.5895179594385976 -0.9952295536490795
Ni 3.7234867042057567 5.621597022061153 4.294268459552895 -1.0729887121074293 1.0284664613253383 -1.4032181168191962
Ni 9.019595478282579 1.506319078375315 12.070198230025177 -0.5323813623266057 0.9276913015877895 -1.4757666776108842
P 5.258414278565243 6.417876014011081 10.206879297620024 -0.8365747479859271 0.717602605624377 -0.005465136879629298
Ni 4.808202542629367 0.2522251419871021 5.649200453992445 0.822150602140797 1.9535527211901134 -0.48111485084214556
P 2.3133101789692834 8.598221914759776 10.139486721145557 0.3223862545182642 1.1138160305364366 -1.00543580475812
Ni 3.59748621530951 2.7039162880762255 0.5852826063623648 -1.0078600979288965 1.0171695482552805 0.7336889696632783
P 6.301494373957297 1.636582361792003 4.128732388890983 -0.34323250183965404 0.010769322701362098 0.5077681917636159
P 7.726801982329907 5.159506421222408 7.323640840913406 -0.6967229339618904 -1.2197038289102025 -0.4565549021145944
P 2.41005907788043 6.859029311591018 6.448844664978661 -0.4860827363703822 0.17314425752857923 -0.6393649648677118
Ni 2.2970674619172557 0.48025616895355056 5.8429196598922 1.1544446026910764 -0.5555811974818367 -0.09012924998792865
