# total energy = -340854.13410625857 ev
CRYSTAL
PRIMVEC
9.46059555253188 0.00000000000000 0.00000000000000
0.00000000000000 9.46059555253188 0.00000000000000
0.00000000000000 0.00000000000000 13.84653788278353
PRIMCOORD
 96 1
Ni 8.779868028951176 3.8748518797147606 8.908903932351734 -0.37673191914868026 1.5124552912811693 2.7737428571704292
Ni 3.8021377408999624 0.464070602560802 3.6809635925547126 0.057396535641597926 0.4323183981647329 0.12735393866734196
Ni 7.159050385942099 1.3173690348273615 5.097769164908333 0.8058477512157154 -0.6039673020947082 0.33255985261715626
Ni 1.3731581678732718 5.557570200614188 8.364486382337597 -0.08694339606077929 0.12851016375897223 0.7043655381088127
Ni 1.5643851894532261 8.928437224364604 2.847914619398119 -1.1357177157055343 0.5262281982410163 1.2992285639094074
Ni 5.759979646352234 7.373493709454335 8.556689737397345 -0.503159746457327 -0.1734821004839722 -1.8720122413124596
Ni 5.388935081648043 4.207287753226758 13.051594737903832 -0.10529901574983157 0.3410298377613804 0.2465130002287174
Ni 3.642688860391945 3.3662597136277497 0.543498926168323 -0.8415629452291377 1.3807297059086932 2.365286610335275
Ni 6.1500116266954175 0.38419952307290994 7.093858366795742 -0.4220707522947957 -0.13530558941425086 0.74592073584278
Ni 9.070696202423168 1.23456044036393 12.299547385425393 -1.295473981962982 0.7841574107264753 -1.021249631861925
Ni 3.171106544818009 1.799149872603009 9.924285074978775 -0.942688289217254 3.4718588148251044 -1.8860970015403002
Ni 5.90510518491833 8.53979595159438 4.55646604300997 -0.5171126090929932 0.3184049012730129 -0.04459501300155545
Ni 8.986846942428949 5.148021011270884 11.307581217241058 -3.1485626468980614 -2.2528347855907462 1.9191570173190624
Ni 0.7868557223641117 3.478859724058889 10.507113589734253 3.8876769013419694 -0.994504759667913 0.9583781891486849
Ni 2.425271019498795 4.478608178294364 2.362800813745233 -0.7508032607460617 0.630587732895714 0.6628702470785036
Ni 3.9178313661362587 2.038957053279241 12.83744374679979 2.18302162145235 -1.1285003720214888 -2.358025300787171
Ni 1.4567709129741295 0.7313873035135982 13.519856384374984 2.7128910159903796 -0.7706629757844663 0.22842914614381307
Ni 3.7943800523977327 8.792592530213978 9.450733063372931 -0.785752266017421 -0.6930696534800193 -0.8298942506419579
Ni 5.776289713398384 3.6060101307295755 1.7853449713073344 -0.1345298875904909 0.03453840009650181 -1.9306655321792943
Ni 5.845115547366334 2.779447342008504 3.857271254661477 0.767241351697427 0.6610187956920616 2.4356211941947796
Ni 2.7273478412990197 7.635211629851498 11.711222264548214 0.35496495978523385 -1.2173078178742003 -0.9948958244587446
Ni 4.429148183794784 5.593586688575148 2.2016547023624597 1.8048974499418335 0.20167013288241398 0.8824637972085576
Ni 7.417589546172495 7.90633338240868 6.46607026293155 1.4419546141574457 0.13646361427809403 0.7781274024823116
Ni 8.199942971026593 1.8630656573847915 2.916164303085842 -1.1583459946280117 1.1023121436618952 1.1024044462653853
P 2.1453225311213933 2.741368444177439 12.153937464357695 -1.0878419750701782 0.2945422357228024 -0.6145126817107224
P 9.027527504086981 0.4131186721139035 7.796224346834415 -1.1661868308286691 -2.1753306805659953 1.5449753753960618
P 1.2357808572136708 5.869249527084855 10.726497236339007 3.4922034399197277 1.4761389733486383 -0.908475647891287
P 7.500672497912224 1.0342890892618646 1.0907310034134505 -0.8440399460147204 2.2336846950248566 -1.7276959637591662
P 1.053910364815064 9.32757975840004 10.66020021961087 0.25874270952568984 -0.5949884956348657 -0.07475739551754867
P 0.618366296572277 5.075609611519586 1.0899949690653121 0.1842750773344181 0.3002454567551668 -0.54371504217187
P 3.5817247814793034 7.5367362888518565 7.723958640257427 0.48148149015294506 -1.082509250003355 -0.6325178600388913
P 1.9175303070278824 3.181778096806441 8.329592867090314 0.4280064010529403 -0.1411713041664085 0.14367273043202353
Ni 4.9851757768942075 8.026473487640157 2.1555598417656157 -1.8249975631258182 0.13662842199073244 1.4565445961564787
Ni 3.4439690469903255 3.284614772439653 5.232856065340629 0.15413043543023777 -1.1629598392509388 0.09446901501386311
Ni 6.897266241374795 4.511843251109402 10.521194740425372 -0.42576234221377 0.38177488088922634 -1.2364867047954964
Ni 5.470731392367892 3.2803480437634267 7.336740241085662 -0.09773688713185749 -1.6768362007948219 -1.579626646921344
Ni 9.221876522259297 1.4066297555816714 9.787633392012003 0.5340286681220415 -1.4375508286627954 -0.8304444667184729
Ni 0.10243460031449828 5.260346664425724 3.866507634276997 0.08025492829701018 1.2925714636042063 -0.5123103026083435
Ni 6.008386508551059 0.7588164087264196 2.729097105450315 -0.4160433151537931 1.0290135920780599 0.8727391137216259
Ni 7.127026269381066 8.59025876924181 1.7874499538582442 1.8239768351707877 -2.55389065406235 -0.6353630427971704
Ni 3.4814235455029183 4.643629349689958 7.6221314101890805 -1.8943826385878597 -1.083550803893992 1.3595864961721746
Ni 4.954627513267745 0.7701643933098636 0.5796147503844945 0.6720827668157071 -0.3866841452653857 1.170221663019675
Ni 6.092481744034373 6.7147335072747785 0.6404813851610714 -0.1658163564085983 -0.7471612931181004 -0.4422215162110577
Ni 6.7448749652846605 5.45566066336295 7.1687408741528715 0.49174096309742404 0.03647341233568557 2.1164009961093226
Ni 2.2933808543651613 6.890577600190556 2.5812715128616137 0.9547909860180589 -1.1136260260128177 -0.5810677717887154
Ni 8.513325204729457 9.057650040905395 3.803768747604577 0.48215897583594375 -0.2817237438018954 0.5956672668694452
Ni 5.150811887012539 4.780647157711651 8.946746315289438 0.7427821902137982 1.4930935989251062 1.524105473925588
Ni 5.496814254807704 7.684113449202746 10.733476317812292 0.17400943374235195 -0.5806119151982194 2.08886653813448
Ni 6.690911727215493 6.264721349975333 5.023634990673797 -0.2809572979495161 0.6308664404783975 -2.4032124388467713
Ni 7.63121925845157 8.758137040549201 9.407061061343672 0.3696703843162085 0.20148552767543362 -0.34037420645525257
Ni 1.9805000322362223 6.049048149017622 4.848475844889192 0.5797390256749628 0.7878842247587592 0.06712173334916183
Ni 7.527758183499886 4.9602376465382605 2.635937673193848 -0.12905060964347453 0.16593154183022388 -0.16730399669771834
Ni 3.488197332048767 8.28150276685308 5.408706780673421 -0.660557796895243 0.2521221188853787 1.0715249830777094
Ni 0.4962489268323054 3.304841526119856 2.448206341737764 -1.7089050563049086 -0.3935433342790641 -0.07027879092090476
Ni 0.11987804672963306 0.7152683405012831 1.5498707434774694 -0.024974410557150536 -0.26675169587309544 -0.7653125101058305
Ni 4.812500983549462 3.3801100257829497 10.923976765639843 -0.8041551940046409 -0.6900956584533599 -0.41989199947592204
P 8.580798173507384 3.84956370731664 7.060959145129275 -0.733463998136666 -0.14353774751605602 -5.323264692741122
P 5.013368352182797 5.592214902193657 11.111127216517833 -2.2539408741707314 -0.5541876595684196 -0.5799382861699626
P 8.11031328703864 2.875444006925725 10.715018695534427 -0.12574391386774475 -1.0185232340696972 1.9878250121094219
P 4.3024708069108195 6.853151483465166 4.080865812427623 0.6139336692788007 -0.29142143070563353 -0.9200255575124154
P 3.984471802489556 3.227766052671486 3.049284345664951 -0.10108626322006463 -0.17615913309550307 -0.8822072011130613
P 0.3253669163792345 6.901712721369975 5.913123039803256 -0.8395322879523541 -0.4653344480794373 -0.247178144616542
P 7.813629004807039 6.465692785161746 8.905955064661313 0.1068920712685643 0.6659185469865242 0.4245870909587462
P 6.646806429901599 4.224534419250618 5.478936567048359 -1.32252327277129 -1.2543748979298266 -0.8169716290430188
Ni 3.0259242426775064 5.021353094982653 11.945630283238808 -0.43192553360168834 -0.31487194841909 -0.34685415775264133
Ni 3.0523760683509615 0.41659827922502546 11.463548598518805 -1.074519289819343 -1.719645068430232 2.2433245321074655
Ni 0.6996574114799066 2.9382055990279077 -0.07814735894507967 -0.15066355992755986 1.3234915502218303 0.650356430882209
Ni 2.9815445880873135 1.4498457568965295 7.065140728443892 2.2587593786052973 1.470905492863841 -1.4233665667426132
Ni 8.737266966359055 7.254271282009097 11.535647798610865 -0.24515854308335194 2.3796703898607725 -0.02854824395133793
Ni 6.574603163256459 1.9856371357200155 11.887807122109995 0.4254260419202738 0.658296254554576 1.0861489036384715
Ni 6.679199509696274 6.0424351925992585 12.18356899625749 1.3963607275777306 1.5139776414629667 1.5358718704328969
Ni 6.955354299184171 1.885052081871598 8.954459538991715 -0.5110599751410102 0.3641774795224373 0.22955400377687563
Ni 3.565689071709451 7.848254785195038 0.21926822733679302 0.16998617151557177 1.4862230970575179 -0.3789034728787023
Ni -0.046329483371057904 7.349634087012112 1.467871976008905 0.8832664956155111 0.7445284834809436 -0.4625160047940357
Ni 8.530250210498345 3.450288724940922 4.880531181416147 0.078013183450685 -0.47118550754357563 -0.6101310077032589
Ni 1.253216735152218 4.260673894956125 6.412359622768493 -0.2901541339574358 -0.5605776222551636 -0.02244418793612909
Ni 1.6282252894691334 8.153046797971042 7.074625921727227 -0.3133195163303056 -0.14813359441685456 -0.6317485859730346
Ni 3.944046676916353 5.440107443975554 5.75338844930406 2.3375225528481294 1.9262136670555277 -1.3232922897268307
Ni 1.162177422399836 6.9426865614957745 13.238647744645757 -0.14526655728170465 -0.9579824963721632 0.2367255818246504
Ni 2.387882745156343 1.8615708832587523 2.1249585988030413 -0.48670082957035526 3.0191333137589296 0.8244725654057543
Ni 0.4495353432744298 7.47914018202067 9.380129583466482 -0.3449931932845026 0.8819333786263843 0.019973100687817213
Ni 9.33262225592649 1.8360840383502084 6.407389025769625 1.153476325240536 0.2823786037770749 -1.2325588304959998
Ni 7.400428025510245 3.2491186172440862 13.761105359841144 0.8430960940442126 -0.7291663992025765 0.861500050472697
Ni 7.048824985040301 8.554847759407853 12.665054663446224 -0.3094016693331382 0.3970631745068645 0.2596618789058496
Ni 3.0451954761885323 5.688892730003756 0.42023020192747157 -0.9588427874899292 -0.6210926489210852 -0.9633740997013795
Ni 1.7293022942957414 0.512129482832113 8.485047484079256 -2.3600575007258517 -0.6923006365244786 1.9566069346354042
Ni 8.220283251855609 5.813053588422364 0.08565528771992019 0.5691797621018777 -0.7446902058697884 -0.10966037804232082
Ni 5.463560260801196 0.503096506024883 10.665268260745801 0.5956340996386645 0.7508521117061262 -0.6547645872522336
P 4.966311348999763 1.3618432953748982 5.55966193833107 -0.8116808129577247 -0.3979180663079921 -0.5904759524764928
P 4.755888778674657 1.1332279994524923 8.73504751059976 1.2035922680603206 0.7843697838475975 -1.7495644816974836
P 4.842547835602001 9.199360304411362 12.57530104565415 -0.15015859526668332 -1.2392413847224981 0.046730057066687265
P 1.1675415801812559 9.309831680802256 4.908389797675311 -0.24618749856849856 -0.12499340885496536 1.369193166024003
P 1.381171292460331 3.39806623648689 4.447882055468095 -0.19505417022779312 -0.14010326791321032 -0.765599702328946
P 9.40057771508687 8.70564019481887 13.07484320586161 -1.001512301333998 -0.7375453672948912 0.8223334075755644
P 8.315532529709811 6.974729599248276 3.1711614162732684 -1.5011781757054534 -0.36218410324149236 1.2267080281421778
P 2.9358499106900355 9.5886922006702 1.4561294845833355 2.085181633083725 -2.8200813352256526 -1.9634985195489152
