# total energy = -340870.54234854854 ev
CRYSTAL
PRIMVEC
9.23065074391213 0.00000000000000 0.00000000000000

0.00000000000000 9.23065074391213 0.00000000000000

0.00000000000000 0.00000000000000 13.50999041219228

PRIMCOORD
 96 1
Ni 6.832306167702268 0.5508926227456789 6.651346643787863 -0.3540403910884354 0.16051808412413648 0.9692493275352337
Ni 0.5557396374673943 3.1335936329914276 10.344478327040413 -0.24345313035647104 -0.7242417082074495 1.1661420936336626
Ni 3.6940602867204686 0.22207007326901226 4.433262800592326 0.6343597983436365 0.5047108929945308 1.940856356669367
Ni 4.366799345820343 2.9024027536920842 9.21737986793001 -1.3061543444949633 -0.5466324729289812 -0.9385315867364029
Ni 8.768010557728203 2.1649383713610746 8.062897760231833 -0.22006637600141452 -0.06905777402961011 -0.514080764245205
Ni 0.3641814803336524 6.774503832552045 1.9475593148156878 1.6830603273276628 0.8890501921768237 -1.1028230218600426
Ni 2.600126632777942 7.280214265886464 11.162643519898069 0.3321896137619311 0.38668954458202437 -0.4909714319212512
Ni 5.385770884822762 7.616006879762992 3.118308598373853 -0.19005157480687915 -1.040866377651588 0.24837756424128193
Ni 4.321993766960685 8.74858003784778 1.3689673552257438 0.6342644104163528 -0.12838032304932728 -1.119269340341524
Ni 1.4479660337495628 4.937604328416879 0.7738174542764142 -0.739164905176185 0.7145288517950596 0.49472061455103833
Ni 2.732992620026794 5.8519649021913365 6.858184297148716 -0.37881425559900567 0.7014733041626822 -0.025801020223503956
Ni 8.729177209919678 7.994805095598142 6.446008048112798 -0.17358982970643008 0.9366834777840707 -0.686192980964844
Ni 9.0231918983906 0.6957547637411343 9.956052542447408 0.7543894354354234 0.7590392755026089 0.5559442372482103
Ni 6.464510887590381 3.7989850940747623 8.724332964393195 0.781435383809622 0.31432224656320706 -0.2738975628892573
Ni 1.785050938734528 8.060979631000881 5.6303831303482985 1.1788803671359376 0.8055106795912708 0.865435123861045
Ni 3.043179408654724 5.572303875674839 12.763522668248648 1.9413469231525404 -0.13379455208636312 0.12438097208194708
Ni 0.38063419227420775 6.92746494653709 8.589827613566783 -0.642866550263067 1.1156273727135624 0.35920856555293623
Ni 5.460622231953575 1.6892460143454882 0.8765758278939214 -0.0424244877127979 0.006955091161594474 0.5758877702496727
Ni 0.5949403651767472 1.9618271317179077 2.616249810485846 -1.8046346831987499 -0.7010696409663603 0.32843786002898273
Ni 6.333444877242565 8.603668051338142 10.633888766904988 0.24763837208241224 -0.5497447933057177 -1.3628307141410851
Ni 7.015331511260018 8.959998863188039 1.2741491874045032 -0.06515046855540392 -0.5384419666983887 0.0019342409082353782
Ni 3.2146664387442883 0.5677597909060115 6.874139477012523 -0.6460498330870551 -0.11073792737721573 -0.1862121464561309
Ni 4.787163182093286 4.954681032349794 5.7320190568316205 1.441919390044136 1.3707707949237684 0.13541691818113452
Ni 6.50174733281491 1.3746100520442253 8.9411544896318 -0.6311610889006807 0.47548053537450374 0.542245142494563
P 6.6896187680292964 5.119826605357242 6.960752519360267 0.7735228138307646 -1.009998741538454 0.5231729563544603
P 1.5263527201270295 9.174029962697498 11.335300996505843 -2.6360520553534537 0.4061931618325908 -4.706449588149469
P 7.322232188212209 2.7991394634772093 10.471418236492005 2.152267370988629 -0.8752053158739314 -1.670084741003601
P 4.883752711798162 1.3182200064625078 3.1363305209460814 0.8471406964272313 0.20213575966492286 -2.8678421475496996
P 4.973013104788047 1.7343008207760597 7.197150408761535 0.21099680959997857 0.5081749402837312 0.829286956075262
P 0.6248744425735308 0.28185976753099573 7.536440516216539 0.7781011772300663 -0.42160743950513196 1.1983058228504009
P 4.463222723811278 4.497246902566264 3.626622075226694 0.261964044676465 -0.45352639970091574 -0.3841233265167449
P 8.022238589700102 1.6710247097165292 0.680754956232493 0.3244176831259961 0.08577714366682002 2.2398296315803297
Ni 5.371315685709818 7.2126551328675435 12.409290906384882 -1.0026831817136472 1.810842611781675 -0.21719573932183883
Ni 0.8162230639346905 1.5789858908435053 5.719319527495997 -1.6087862992044357 -1.4220550470200413 1.0903374877985224
Ni 3.4080485724710807 6.437298929107011 4.409444952398758 -0.23076370781426067 -1.1491743554310725 1.4257690055365186
Ni 2.3323916070621604 5.908382639725378 9.288821412664706 0.5824962767051258 -1.241022644992637 -0.26110966709596967
Ni 2.6167418041721295 8.012934093719355 8.66734754183652 -0.22960542584010138 1.546409536739427 -1.4221519776092217
Ni 5.150703132198108 8.68660544854746 7.895833134928355 -0.6275841701826997 -0.8081265199475631 0.22406932651322053
Ni 8.795010211243758 4.579851996347699 8.86175704699452 -0.10565614197893418 0.6358592657072986 -1.3036801719228581
Ni 8.251103345004259 5.3881708540241435 0.2980854054624973 0.08506623364272446 -0.9264391743482432 -1.0539293814831332
Ni 6.458852498665582 6.553420515850833 8.794341912127681 -0.3344413859105853 -0.31623129066046185 1.3143718473087493
Ni 8.73474329233673 8.475232776461073 11.786926277756951 -0.8850539265332371 -0.8658223319971347 -0.33187311096277683
Ni 7.3436565286599365 6.30360218328845 2.287376492429919 -0.10610325681868178 0.46853624284618656 0.8221549730161711
Ni 6.520494784538018 7.105496508025809 6.612816061324743 -0.20628680571881894 1.7815394919421834 -2.4688858697851805
Ni 7.71440561701968 8.651907432285931 8.532234814189142 0.5209407245898319 -1.0701872381028923 -0.2685985192738471
Ni 2.894898234612376 4.203472211015481 10.770407322665331 -0.9679347224888685 0.5929192718106627 0.32225872780146436
Ni 1.0197653749690287 3.851913645616024 6.903970171120632 1.4968978031625444 -1.8308365384050984 0.5473019881921799
Ni 3.5750771982365372 3.528360874666547 6.846187220337035 -1.6028269962972073 -2.0145488012575115 1.2091983013931886
Ni 5.039021488476844 5.216249983348176 10.661881638443885 -0.630685691926159 0.3584367203839182 0.2279144112909236
Ni 6.5803186322078675 4.924561418872441 4.090365354814627 0.10165216302586363 -0.17451054174848654 0.040738101149310486
Ni 6.523910125324601 3.8241940013400546 1.4116314231057072 0.9603067736299655 0.5440441433765146 0.6208265397438921
Ni 6.645385489517659 3.1230614604576683 6.266001127358326 0.57727796572898 -0.46670690294693173 0.07664818478235831
Ni 2.6023419889638335 1.1648712051449326 1.532276028729057 0.7368542547651373 0.47671312223002416 0.8497498519153043
Ni 2.1237604382558133 1.533515705128079 8.855745124145056 -1.0457460743413927 0.37541628566105023 -0.38033866266333205
Ni 1.4011481730210524 4.917906119663992 3.2057994756102564 -1.0538620185803074 2.202313894023059 0.9117710308131072
Ni 7.036617391946128 0.9690798715659825 12.499469749126835 0.5009815078590856 -3.1030430651997074 -1.1084210847731104
P 2.770764442996247 7.236064063231798 0.7580930406819708 -2.2556072061295604 2.389900809339529 -1.811752268080138
P 1.397372836854262 5.325439351360312 5.230730105218211 1.2686023543831186 -0.04176551397256032 0.88179685304852
P 8.480005022911515 4.235807180678725 2.7095910741831584 -1.2818144821980184 0.7669896406979372 -0.6132520698307439
P 0.16782615399237755 3.80924957773606 12.515939076238784 0.5949414444470141 1.0828054410875352 -0.17242614841563209
P 4.453835151973562 7.762931148141482 5.870752968777853 -1.115420398909079 0.39686288557060034 0.2801623128520465
P 5.602478873056838 6.526457784938376 1.0398817322020024 -0.6659571135339434 0.5519847383798301 0.3710356400948513
P 2.123483518732577 3.822412485740567 8.860094606790023 0.04400468771572421 -1.0091420499651136 -1.8210496342216638
P 5.079193280647679 0.353924381192974 12.04618295073631 -2.1958532259993797 -0.6167264015325894 0.9904943529569392
Ni 9.161587045453407 5.743153990860959 6.6683282720178 -2.1770664323101796 1.0168378759474745 0.11347640935430134
Ni 7.355360993842064 4.945801146304678 10.804776727759284 0.38382482143971963 0.8697450640903086 0.7991649398789011
Ni 5.8680446958406005 5.117786631536067 12.961255207685484 -0.3676836929034829 -2.106622319456004 0.12199653101017054
Ni 8.752715369394778 4.096101281205931 4.879443844016603 0.16389805633996288 -1.2546849729710778 -0.017396598209892616
Ni 2.8546710585368933 1.937892054259503 11.319763965122123 -0.3325030312372919 -1.5394014808527101 -0.0695416556445641
Ni 0.5297405864958007 1.4382553891347378 12.524341737638855 -1.3620480703387898 0.3044517815270305 -0.06509390428585564
Ni 0.3490127519158367 6.987399562016234 4.200242406309466 -1.1319734181717538 -0.32234100310262553 0.440062560886526
Ni 0.5008809568491747 5.703536037736596 10.90176502157762 -0.26512007380694336 -0.9368981648980381 -0.8494886278341177
Ni 8.57915144288094 9.052120757918034 3.2352775588587774 0.6238786963066546 -0.04307137726817743 0.06561660955854506
Ni 5.420764281909075 2.346948343333623 11.222154448506659 -1.5547386254304127 -0.09252757501677614 0.2685836068755117
Ni 7.2750820240558145 2.418993572628975 3.265432248809073 -0.047150946654189764 -0.6144046953779484 0.17746011129511374
Ni 4.641734279140273 5.257538684262732 8.325463621513867 -1.170247374051288 0.1607080886477555 -0.651626041623252
Ni 1.9851252942728683 2.8974274329246024 13.44679113068705 1.234162427537694 -0.23863282614969228 -0.10684450586008051
Ni 7.29603560131404 3.094843361039873 12.580368095580054 0.971700360178888 3.1092499653413674 1.1891125863869068
Ni 0.9932641765952999 6.72452908925864 12.75971317867399 0.02611469480918083 1.684612502306131 2.1022997808212507
Ni 0.5352808230906848 9.127498252142997 1.1228209755414764 -0.07431902242854942 0.30918184001284815 -0.5893703781171399
Ni 3.529837778790475 5.981720160129167 2.075418597084425 1.2389799035309954 -1.8255848030878559 0.9705194524969092
Ni 4.004154768840653 0.35635019621652536 9.751051788590692 1.1314381144935741 0.14525910108253692 1.3736447740374536
Ni 2.6860178382351165 9.138833491294143 12.827249235065976 3.544745989903134 -0.12461802779341763 4.119869371182956
Ni 4.770160323366567 2.4424578868978775 4.962651699293616 -0.1633385842920671 0.4503539155102051 -0.5162155512000206
Ni 6.477978407070448 0.10631217416570835 4.281153675673772 -1.8003715370470221 1.8596647754907005 0.0009052854230887634
Ni 4.153968230911577 3.8261324380027095 1.0329282829735351 -0.8474710831834565 -0.12056494076996656 0.4183663068600149
Ni 2.2326636560939375 2.8208868767020454 4.654623959881852 1.2872623926864668 1.3465039519566036 -1.1844357497365279
Ni 2.7448263143197655 8.087083911391305 3.094908898660372 -2.381841943590795 -0.6732377063557566 -2.8471573655068387
P 3.95361695585 3.477749216469697 12.423138728676859 1.08846546758679 0.45872311341050676 1.281566113632638
P 4.369688539512778 7.25914069016817 9.89953972921039 0.9717792930459394 -0.3980044553742113 -0.8223411208850483
P 7.851351551910883 1.5311341972282455 5.217477659901191 1.8026194525409343 1.698252718797385 -1.4457549617401424
P 1.3938282669568354 0.32855116834389486 3.9745982250605487 0.1686646244906708 0.024412367406093437 -0.2268533170162609
P 7.376037651577053 7.490599258339976 4.3746426297834775 0.825765573185565 -2.1151925776235188 0.1638317218784017
P 7.9910020674790285 7.040928105857842 10.118996605245128 1.5275666930013112 0.21103229082360428 1.14339065886976
P 8.444042407493873 7.6026132054891224 0.20392076771609483 -0.7299282170692655 -0.450351858627676 0.9803125273279312
P 1.9888175545826878 3.382811973253465 2.148709964234341 3.1933654050350486 -2.758421910542643 -2.0797157248731475
