# total energy = -340889.88292561896 ev
CRYSTAL
PRIMVEC
9.08844596698903 0.00000000000000 0.00000000000000

0.00000000000000 9.08844596698903 0.00000000000000

0.00000000000000 0.00000000000000 13.30185934688202

PRIMCOORD
 96 1
Ni 6.448379704832258 1.7154532788173222 11.44468020868968 0.5312035399684206 0.4992336719300435 0.9203536302757955
Ni 4.486256911997098 0.4509959579273857 5.99520161101026 0.42152233599049344 -0.3479209084542589 -0.41549155641538116
Ni 2.569376403557531 1.6308943768453255 4.727175257359747 0.9659356897809686 1.0692654976195715 0.26067437933076393
Ni 3.2931075387503563 4.4831850172350025 4.5727671033342485 0.058541704989634666 -0.3189553744598443 1.4817717461543836
Ni 5.007379319582258 4.960773768280409 2.887262071913543 1.2597011952387467 -0.6895017336231029 -0.9543287016696596
Ni 7.276773384641325 6.360276308903997 2.9029178290649793 -0.1814221812666553 0.26971797759027094 -0.5025470525739926
Ni 4.8477862070899675 4.354901601356377 11.413235094229995 1.1825696430620667 0.0936028103588259 0.6590238767492199
Ni 5.678970039833837 8.014737026335457 12.782275890255612 0.19275971776666156 0.005237851360171624 -0.07342530696968644
Ni 1.913063361102052 6.296984370669584 0.20680031892209902 0.1976047045637887 0.5022197511415609 0.26740707006890724
Ni 2.4076838600296084 1.7020569093518534 0.2746819224075724 1.0803916894397199 -1.113890592528114 -1.1788065764752085
Ni 0.9094989722852174 9.112621308173077 4.341500687667887 -1.730780002001129 -1.165728917355644 1.5280711434415555
Ni 8.752055388360628 2.4397842514489 1.4557954665612876 -0.25329351348566054 0.07287483378285514 -0.12886446177459743
Ni 7.043645655225624 0.5858775856322872 4.957031146200436 -0.15562861724231908 0.026448423999515736 -0.659572035943206
Ni 1.026558157302341 7.217071382593385 2.2957278374649004 0.05580502278476195 -0.1449991625529309 0.7014434793660114
Ni 7.636812174583357 3.82370010711097 3.727340766798427 0.5195227611963827 0.03401029550717369 0.5185341720308683
Ni 7.545109754022581 3.7666337544151216 12.837318246017972 -0.23622087427408994 -0.7637109699466654 -0.4148140707323824
Ni 7.92083520183259 8.5467746576167 7.05042472712813 -1.144568481227945 0.6156251980486108 -0.008008472126773305
Ni 6.901565978255694 0.8345683700497999 0.36237724710856056 -0.02354641986137235 0.09419030743117972 1.0652131819270687
Ni 1.9063469994772342 6.374417930944886 9.252161673318954 0.3718203407796758 0.04979069826988199 -0.34426017177322
Ni 8.801487446381445 4.940670125636164 1.367883836844507 0.6313477509901901 -0.10025374001644023 0.5143651282548432
Ni 6.54481720578076 1.5438725059960274 7.113382210548209 -0.7854146801723441 0.8682666797725692 0.5869327152099246
Ni 3.414420116514997 4.17540479203276 0.23705484695032134 -0.35949087268004537 0.31514602801608305 -0.45910697911248677
Ni 6.095393549018588 5.6182319549371424 4.998997954642601 0.5824602812608678 0.5498039286784273 -0.7404018629070798
Ni 5.191647563077768 2.471030328940272 9.682037900334633 0.0990167822855456 0.6838077685621191 -1.0145084564833498
P 9.165061641833697 5.850841642928467 12.376742157118029 -0.7348997021419279 -1.1172325124171532 0.8309139501557238
P 4.154401393230386 6.2663563075090485 12.797638999444505 0.1986881674359546 -1.4042321599060075 0.6614815942610931
P 2.361369139001094 8.494697861797746 0.996299085051098 -0.34291137105480946 0.5450201341365388 1.5552767573220698
P 6.386950898036393 7.718971726800343 5.71074142950642 -0.6581574149838666 -0.3657612790697894 0.9918385256896597
P 4.515276320208253 1.0458074860186664 12.649869046407865 0.8639744801551186 0.016203606343055964 -0.29102110994342134
P 3.9873375780918168 6.212143726870295 8.40262463263847 0.49865080284338 -0.259548750366753 -0.5497702472270145
P 4.589465305246668 1.3404821720287752 3.976830425623005 0.7162350358528891 -0.95969613662916 -1.4136459970207398
P 0.15071279186494257 5.56210171218359 3.5930317111941523 0.12299566169864623 0.3519176883184778 -0.04575895140266958
Ni 1.5003570263483577 1.0989021877942902 2.36562889366084 0.9447184322734051 0.21668408979274295 0.32560424723492953
Ni 1.911936393792881 6.512816787267926 4.799391140762508 -0.8379184064980151 0.7629491520799763 -0.0454740731723991
Ni 6.215361036769057 5.773789797386916 9.121909700027695 -1.166432628290888 -0.11929764402176876 1.5058917791310389
Ni 8.383300778664605 2.569412757341698 10.207075610474558 1.4018603172397213 -0.8441204215436688 0.14715760365683042
Ni 2.4264333242136398 5.447823591655228 7.032334175282121 -0.7109429342160143 -1.133827697771673 -0.1626731827939263
Ni 0.9235678867577723 9.151338088310728 9.050611749675147 -1.4710965258287245 -0.6446326410245543 0.039343534794629015
Ni 1.511326780720692 1.0467890381911702 11.44912354995947 -1.7109287716031565 -0.5209522945540576 -0.7502309331823597
Ni 4.149766285749117 7.261077638327306 1.673826378257118 0.08251029999009016 -0.10206791040704356 -0.6627779444750134
Ni 5.390039251722085 7.86669532876217 7.901304131288972 1.842610648221891 0.7127604470407273 0.48867106592284876
Ni 5.300336289290485 3.202650235297295 4.699387333587243 0.4491100158007749 -0.2931985772107144 0.5153696582599576
Ni 0.8212937857612898 7.601567180833635 6.9586814085601665 1.3378071955135542 -0.926058908190689 0.2951243334785175
Ni 4.819321194087356 4.73609829368349 6.754777577391559 -0.06824839075443731 -0.11117655757653112 1.254594984360433
Ni 8.348528384109052 7.175273619247596 9.220582958702456 0.5905859956917958 0.30735507121675454 0.32977997587917396
Ni 4.854502568714786 0.1635556749664719 10.615615801562734 -0.6760139835493132 -0.37695431957213144 -1.1190903915614985
Ni 8.412147506400967 7.304020545874349 5.0067803909881095 0.08709020605128873 -0.17575238457538764 -0.9552730678607999
Ni 7.323151724792131 6.192112791794383 7.160177710372329 -0.29036702129919023 -0.4195438721078839 -1.2785101004151336
Ni 2.6176633173770947 4.990529340620942 2.2780898902317688 -0.9916130399424149 1.4650408065529477 0.4839986001478438
Ni 2.6783923138277483 5.2060163962697 11.493378829114935 -1.232694841853232 0.08342561271550794 -1.1350859956588064
Ni 1.2544782071361478 3.4423216458630224 3.882520529892866 -1.8801207293522073 0.28291262190367406 -0.5321183384732061
Ni 3.774095368615359 2.758188870073893 2.4020235758348356 -0.17988106203178053 0.9336184657055018 1.1595341013988416
Ni 0.8272776186351464 3.335068894124895 8.064984317966216 0.819483339721279 0.17904673905594326 0.2720489397162928
Ni 3.7361783717293777 2.692952004386555 7.310516058260354 -0.3692710919952608 0.8126449766432069 -1.2434654501061746
Ni 4.162726409804585 6.93945570980355 6.0293469027889355 -0.11304009314783113 0.6784074234821541 -1.2187499496373657
Ni 1.0093264636072738 7.283889637891979 11.184256240432331 0.06713895974034244 1.0926291120461764 0.18720356383512274
P 0.13377556382162642 5.587204000150772 8.052200509763956 1.0378229628395739 -0.17879117140171144 -0.12309027829498158
P 8.568096152030533 1.2933858446406745 7.955722110808268 1.0325915392373055 1.862676565733831 0.20974673924296133
P 1.7291950092323758 3.1063127072552525 10.095924824229144 -1.459696768632215 0.8462330970112975 1.0545677863980807
P 3.6964709509731812 6.4436173591064065 3.6804516559800775 0.7340162710957101 0.22210886035274005 0.20154774837193679
P 6.69085035677883 3.968142780051742 10.440204248734863 0.7403553259398604 -0.07192532538539226 0.024259386767996927
P 6.57808091829339 7.661014706392409 10.520320718281678 -1.2697464952898905 -0.5931951511798688 -0.3376166983147734
P 2.4289508237671913 8.64981945883752 5.819536490537824 -0.33117017135848126 -0.6919856763872211 -0.21344449980952274
P 6.754369506164286 3.8445308254385506 1.704393548829175 0.015421219651076668 0.2565117633126421 -0.4583965833090235
Ni 5.2321456786395935 2.8179363143520435 0.3927971848547418 0.9768142843666854 -0.03871824250580429 -0.07110540058725819
Ni 1.6904509637565996 1.25678667243074 6.993864600876805 -0.8400382810544952 -0.2302111777449003 0.1968824816857835
Ni 7.379254702207559 0.19133541913753865 9.34140385153624 -1.1742757784843905 1.3738224372658985 0.7156097435640644
Ni 2.896469576598391 1.5133171504038248 9.25623147945643 0.007935967017625042 -1.0763607139034561 -0.09660765862342072
Ni 6.560794693922072 1.7138537123139825 2.721134366717269 -0.3367304390550781 0.1858038552741187 0.18329343014743918
Ni 4.401307206845308 6.792377387510685 10.686142142846343 0.3696284753346795 0.19656957843105502 -1.2313105599111955
Ni 8.153390359147664 7.141564572878923 0.6368146903176112 -0.4682639630214065 0.19921292959117304 -0.24228456396966658
Ni 7.632631489404174 3.9028604721341953 8.229846911473484 -0.9347937169605255 -0.277286019745516 -0.09783407483135409
Ni 3.270731784595686 8.236967708947159 12.373190392404931 -0.9767209533219308 0.7280014323601978 -0.4413098030300658
Ni 8.749474269684784 5.012041692401651 10.257715522974317 0.7089930095784951 -0.2470925268812712 0.4264840508711429
Ni 8.482237602274573 2.376419605646153 6.043340383159343 0.8725336825790393 1.1159986400100523 -0.8610382803449301
Ni 3.309848456359172 2.5362308408434435 11.416334254330215 1.1892758514376487 0.7010935522257603 0.9335426181622438
Ni 0.9654474461179359 3.825436000304935 12.532798955255492 0.10339485674858323 -0.967208128735489 0.10032855911843366
Ni 3.114964907886953 8.365887316048703 7.866573543585212 -0.43741740995419504 0.20444512452438982 0.9790809689136751
Ni 5.45616678512151 8.009883796149188 3.7736573055161493 -0.11839004460583481 0.17004916354302327 -0.19844365552531631
Ni 3.041575706100208 8.577220951856402 3.6803316884923265 1.1309112954558267 -0.29239562169344485 -0.8872853869669171
Ni 3.491181131783213 4.217475208759799 9.243275899623983 -0.21849646041113338 0.29721798278275263 -0.03425789274160551
Ni 7.005628685433184 5.932483153721078 11.889920453738858 -0.11070553147738353 0.37261686853904213 -1.4296449435521572
Ni 0.3680784293105203 -0.0033609073462214545 0.31387221058399617 0.8939160049095572 0.5506989296888709 0.029152196083923988
Ni 4.406151348585535 0.734988993304682 1.6191021181062168 0.5240245057214782 -1.934693936612397 -0.26317863380985645
Ni 5.992376013135895 5.7922847850817805 0.6595994245441585 -0.39234262910274365 -1.09605973499428 0.8652826574435808
Ni 8.064823452471277 8.576684733539942 11.778277982562589 -0.10635522492848781 0.05669025360319269 -0.34430079520316836
Ni 9.252219839373621 5.163055311830574 5.812620183100089 -0.08930212610094297 -1.4465404337559153 0.37386796733732386
Ni 8.504231641695492 9.000715272061598 2.5432889280394293 -2.161689949854109 -0.5206255073422582 -0.3809027626969182
P 8.661561731123399 1.6806263535855197 3.8027621451200964 -0.23152758256347866 0.9102422528734067 -0.1819464292012415
P 1.799957650113069 3.1767299871863606 1.5707097783125696 -1.2590455639326188 0.8623498000675018 0.019012536546760803
P 4.744505106272064 1.0341379213011206 8.140924646556867 0.33641625024876903 -1.6071091686123289 0.6740195788271037
P 8.514056251866572 1.6046105908927228 12.393329479988738 0.4831462794498776 0.8462608649254394 -0.3480864874978457
P 6.4550415357808255 8.289371688823612 1.8173265793433657 -0.07687958406687405 -0.4479517338266156 -0.6533306830191845
P 1.864585589915613 3.341630752167004 6.076914920526599 0.2843354703931297 0.34135482520096694 -0.28787279412242683
P 6.763830578493698 3.9401776315814243 6.229872558563843 0.6671853295140897 -0.2966623673895987 -0.5636266934941325
P 2.603294484185163 8.46619649501097 10.089021240615867 1.016110510863147 -0.055987828219529384 1.5103950663180312
