# total energy = -340863.311252544 ev
CRYSTAL
PRIMVEC
9.36181982330399 0.00000000000000 0.00000000000000

0.00000000000000 9.36181982330399 0.00000000000000

0.00000000000000 0.00000000000000 13.70196961865808

PRIMCOORD
 96 1
Ni 0.7372451593051937 4.02767007793959 9.095243578340247 -0.022018670362936272 -0.8339087711179897 0.48684249735454216
Ni 6.84143046642484 4.068712294700869 8.622306924722656 -0.043925497738356606 0.03044263276057338 0.4218447523269186
Ni 4.198073916782834 2.0418502838735644 1.623258992550502 0.8288781506726177 1.4359523738274238 0.15016707990711556
Ni 8.033658181878469 2.0210576827269406 1.9641640331599615 -1.460048495544679 -0.0023116788523121477 0.5619696175066838
Ni 7.668818713492577 1.0745496441285245 13.245392468653113 1.8610074055615238 -0.376573539193945 -1.4281873851700242
Ni 0.20444996787967945 4.491482702256192 11.928769576371137 0.22159798215459253 -1.2806842252483168 -0.5641139175431963
Ni 1.7112844367383648 0.33108074720861885 11.547992546439989 1.0375398843815165 0.05377616528019126 -0.7518604983659826
Ni 5.51093803852885 7.022010603082752 5.5019300957898665 0.5362806973810119 1.9572561381836293 -1.6523323021161866
Ni 1.5014673377297527 6.708614332941208 12.315603703529598 -1.446497753443438 1.7142976880753895 -1.2218329594380635
Ni 0.49364593457051625 2.262499008063015 0.8626092844535216 1.9598380399781927 0.5284185210241158 -1.1733854054596373
Ni 2.7242801175444895 0.6832124817825226 0.539834343520132 -1.0280725683210292 -0.8563447315240026 0.5006354373735765
Ni 0.10379262061791363 1.4418231855887629 9.195131384037738 0.7376294423682652 0.39591337717313746 -0.20783923780760333
Ni 0.32214114575210784 8.642017299533146 8.418818415707342 -0.39499934999930036 -0.47940763834305183 -0.6962215688454396
Ni 7.907713623920105 8.54135901608943 6.025755727936416 -1.398070768290302 1.5054114970605108 -0.26477940263807304
Ni 8.655928963334985 4.676809281409078 7.2051390270131135 -0.9279579249856147 1.4303849070419754 -0.40047837083600063
Ni 8.569715967405559 9.269062608943187 11.14355164531644 0.36121865400442954 -0.6694425009793825 -0.12887011820155225
Ni 2.8068981747794974 1.1193833977940717 7.8289760408747755 0.7755655552924062 2.381193254263202 3.3838142152803465
Ni 0.6894727304933497 8.614971002949359 4.536968974742054 0.858212895080993 0.11597423607549061 0.10343316618568639
Ni 5.287256084815984 2.9296971613802456 3.7888135509720806 0.7031599478364858 -0.3430697510095447 0.5321674465435868
Ni 7.717593793174661 5.279757267383094 4.405566476005445 0.5727283986850846 0.6842610540494538 2.3316709791633583
Ni 3.838804731009386 7.927813450422492 11.536482189344188 -0.5567438503313702 -0.11555334648798808 0.05488431074270548
Ni 7.158674444387754 4.156395096294419 2.636313652819582 0.33349496283691593 -0.8693799674414061 -1.5746875577485138
Ni 0.5891177700019739 8.810792181780482 13.414104626709687 -0.7850261864846738 0.4038033214441755 -1.4915249688864056
Ni 0.37919207388696785 4.088887015759388 3.0047461875359898 -0.12022632648362519 -0.13383183308220176 -0.04018994195532433
P 6.981099451794708 7.633271884787611 10.236892191490922 -0.451867266830938 0.4947072448145996 1.074157278494234
P 2.3664713756156495 0.4056335969299771 3.372383903775428 -0.013393133477454352 0.028503249646015427 -0.3730380152368608
P 3.2647098727858843 6.219618414124643 4.176360112595765 -0.6135132939119304 -1.3725289152654556 0.6698394793074851
P 3.991046639990202 0.7240178445100273 12.402556283200845 -0.6409593059380251 0.9472070030232138 -1.5966967150297535
P 0.7900336510140934 7.717874647760162 10.38447565908022 0.45147260249568055 0.4366807888984867 -0.0022885389238605745
P 2.550843049177831 7.975764689987105 13.657657042346779 1.3098703598939698 0.34032844081898167 0.8464053609231036
P 7.830122863765573 8.24239867164266 13.243185887793024 -0.9634926275571147 -0.012670653489133018 0.11203273492923932
P 3.4813423764026648 5.613421876778327 12.565733733559137 1.5044470762647122 0.12493273082035902 -0.6531820732564622
Ni 0.7826780694198106 6.17289357291672 8.413269665279785 0.2929862040895922 1.8132255101915546 -0.16116574501046435
Ni 6.820956167141785 4.493448684354702 11.51518966703537 -0.40644178750828713 0.43152649839105683 -0.1437740318965782
Ni 0.8065366664581582 1.907639239281941 3.775728535833568 -0.597058747900333 -0.23850864186700216 -1.6223447546151606
Ni 0.9240911617656427 6.142224252179962 4.30898152023345 -0.47541522935420705 0.2487904834089844 0.00248805652917636
Ni 4.531232987924163 9.044004467761363 2.293750633973713 -0.6722879408479776 0.7802002258509402 0.9980171436965458
Ni 4.711756953664975 5.617269584599696 10.424005941989549 1.197142398669919 1.8337575687066352 -1.478157546440564
Ni 2.229620297920313 4.347666430840419 7.039920700000178 0.5030610160959337 -0.2712860934083392 -0.4214632006177838
Ni 4.86459801909486 4.7959290729397575 5.33956150663782 -0.898730138468749 -0.8293764304652748 0.09179146818169998
Ni 7.947520080505177 2.7855625881009045 10.354290344412476 0.1014197353000834 -0.8798613265887041 0.7275553459617148
Ni 7.318770919943094 0.38222062250062505 9.00576986067315 -0.5893099571928496 -1.0480747224745692 1.4761965660594512
Ni 0.22474171168215876 9.201620061144775 1.788408042099013 0.0021615264276930515 0.6308731253466168 2.580823988118084
Ni 3.400456255778249 8.246770641356965 4.591570850891341 -0.08926561643605271 -0.6579818086379507 -0.07349704074788632
Ni 0.2631878958914514 4.835005307602525 0.7174102722951301 -1.092126718488461 -0.7721639858100251 0.4261228108769823
Ni 2.1205925478286525 5.852438490859572 0.5247674311899313 1.7007621154828 -0.8622235589022829 2.3658702507528866
Ni 8.471107922436001 6.568776834820038 11.85332735379569 -1.0136599924401253 0.5631788073234365 -0.4312449625948961
Ni 0.434264849557946 3.5624999897930656 5.627713630452543 -1.024132609836675 1.7827090867702526 -2.0657638906787454
Ni 5.682221888406663 7.101801390823712 3.0132963373006056 -0.11163395682892387 1.919833988781429 2.178149123851397
Ni 7.786552955734782 6.396378928419735 0.8201627947647366 -0.3424375167421844 -0.00869649933273341 0.17094056500904106
Ni 7.5951692793545815 3.8682476533894543 0.0357958531041107 -0.07241254943445594 -0.6902841203150822 0.20702471232610797
Ni 2.1434915583665366 9.212695093633048 6.471727532800014 -1.3533333161736114 -3.5500362917677952 -2.526480123259881
Ni 8.01444772823017 7.811427310190694 3.5055801271314393 -0.21246568083602116 -2.3293693276133753 -0.45704675414934837
Ni 4.242065106691876 6.79292687950874 1.0324954146774898 0.22660083468582262 -0.8769330971983157 -0.33729505330929654
Ni 4.457377593756799 7.124194863107694 7.4814400235016265 0.01639566774920402 -1.1956231338119152 0.46300991371131867
Ni 5.234034140863459 4.334681587170736 13.594011648544347 -0.9799052645871833 1.724827641072436 1.372925379372926
P 4.843711799753069 8.791694069966383 8.563744062735847 -0.003635025649425998 1.7570826444513996 1.9643431269373977
P 5.80528300595388 8.998084743031878 4.314434780101936 1.138234825700433 -0.20763843465070692 -0.6400717611267492
P 8.347194879312765 5.0269413313342115 9.890122907136194 0.43226671899119107 -0.02429358244004203 0.5322844317374252
P 6.269423293953566 2.0067528225054003 0.6559190331634923 -1.515991586569202 1.066599520751634 2.2342228269165134
P 7.704983422285647 2.6166753640193696 4.229441629255538 0.20151766646494976 1.2910591407247378 -0.003507241822310089
P 5.5583556543810095 3.0270881698126297 10.205925164893534 0.6465306293782156 -0.24449442713679181 -0.7276095962384179
P 2.59797981044449 3.7488470072732736 1.7251736321733628 -1.3224260850717935 -0.4261909451107564 -0.16917575979913443
P 4.541343753002215 2.662089550494953 6.008162996700606 -0.8021091101088895 1.0446464135193103 -0.3532322933648433
Ni 7.45337516095442 7.053166738434379 8.117567234024833 -0.23107943928246655 -0.33876392454533916 0.003327778821652334
Ni 3.8936743551968513 3.8491963506729396 11.377649559423604 -1.1652182962678124 -1.1762200466949548 1.4557789216350476
Ni 5.2097495810371015 -0.00030706768014824535 6.548130278057876 1.1662328535752562 -0.7289769088995898 0.5566083531947704
Ni 2.4643960077604867 6.8133262842356626 6.185822245669302 -0.9006263270501973 -0.8164692354853036 0.7900514076134071
Ni 2.730196787479053 8.148846009212129 8.988066659967041 -0.26790920651630634 -0.6124617127189645 0.5102158819731599
Ni 2.416912859171709 2.7098816391277825 13.022351799577143 1.7237390359939475 0.5432525007131548 0.7622935207738485
Ni 6.938896369413358 9.057251442377515 1.5872908819672837 0.1508381378322112 -0.08168626142689804 -0.5123401274050144
Ni 4.160738980550175 0.971101538468826 9.981692736193082 -0.5318488868619035 -0.704831679111954 1.815743648627718
Ni 5.830335234980609 6.492786945802864 12.439072060225792 0.09021872437794139 0.8463557386320908 0.21447834039067576
Ni 4.118226958124772 0.9139373323178137 4.886149863804289 -0.7732402495933393 2.8644871150345375 -2.073112617734333
Ni 2.725338003149878 3.745598455900973 4.068608378504233 -0.784018828266082 -0.03169424577948735 0.1565560141525949
Ni 8.952623747458711 1.576099762917003 6.377718949759019 -0.23940827086313607 -1.1506295998203602 -0.3139239826835239
Ni 8.228571264216471 0.6142991921380332 3.769480457488113 -1.2015724094168145 0.2865818432251452 1.2365391552999865
Ni 2.297755620362963 5.594070995837277 10.615600259308875 0.00014192489450298138 -0.919072706680843 -2.1324253965620374
Ni 4.947843318237488 1.9460695083980553 8.06448571736506 3.218285822425812 0.13193255917695987 -1.7918632424656948
Ni 4.867275499476641 8.704881917587887 13.6865682133783 0.883860163335452 0.37607628784255226 -0.3623687084484727
Ni 3.5487100296449445 3.241707882233316 9.160410267814148 -1.682041142034529 0.5649058173168722 0.5407161074445461
Ni 1.9971756811398012 2.0025493655423956 5.579743667248896 2.7330353521487383 -0.5283287895237868 1.63646679583884
Ni 5.442390796027464 2.4643960077604867 12.42098596110145 0.6544025759271246 -2.11032907888363 -1.2512998585489288
Ni 1.8826338193527956 2.581596626290239 10.50861525823576 -0.4768959276647916 -0.4240075643061923 1.1519506326246292
Ni 4.168659079861315 4.934502725426169 2.7519854862222553 -0.15038845188930228 -0.40815002844864545 -0.38044099256915126
Ni 4.730574210893571 4.661998882933635 7.989591161231341 1.4669611635041124 0.46581267326743653 -2.780273973420728
Ni 2.427285755196229 7.570163859425437 2.43562058311196 -1.0190569950859805 0.3097541675765504 -0.008704726862849526
Ni 6.039637433915801 0.03210916857842842 11.387104060953536 0.1587440229428492 -0.26072991515904775 0.2330386198913664
P 3.0564749212755977 5.716373806003639 8.502894108241104 -1.3888803600402855 1.274412276196676 0.7844188919179782
P 1.1640954478059016 2.4959172540732655 7.628544165931671 -0.3161212474451588 -0.018802477418483746 -0.22181806858519865
P 0.25231601488669053 7.02871366585672 2.058145466924358 -0.13315357606825454 -1.0466158785408557 0.7890839014938152
P -0.3169500168300895 6.915473096982538 6.467013856673348 2.2729768077562595 -1.266056190922497 -0.04839613191520053
P 0.5556043284960381 2.2117485844629043 12.286774916509827 -2.156548514862486 -0.7066589621286797 -0.48546412894977686
P 6.545587607877136 5.602562166138937 6.5394294029990405 0.9927435540024322 -1.890453478736783 1.3381275549674503
P 7.040612538462463 1.2212493559554454 7.181352515985044 -0.33032530685968275 0.10129863634118683 -1.012272110953663
P 5.865994405519775 5.586768776614239 1.817936157036683 2.1657237536038507 -1.9829424872061396 -3.7889830496134813
