# total energy = -381168.98550201027 ev
CRYSTAL
PRIMVEC
9.25151625237572 0.00000000000000 0.00000000000000
0.00000000000000 9.25151625237572 0.00000000000000
0.00000000000000 0.00000000000000 13.54052919294078
PRIMCOORD
 96 1
Ni 8.121869093897221 5.846366161505503 8.23693390187953 0.6847261666113303 -0.9834333323450999 0.140564523820345
Ni 2.7578492341729315 3.512162358622543 8.344500355955907 -1.9398235445294785 -1.9668558660569222 1.3075892771692772
Ni 0.251015839009697 8.944902480917191 2.743988612554338 -0.30791042949959224 0.3699755742614531 -0.568996185336162
Ni 2.963602955169808 7.540984892730319 5.782104204607283 -0.1659006885922885 -0.752545183137833 1.2968950306802245
Ni 5.693447849708858 8.742488557280021 11.94307187618415 -4.217668736121633 -0.20004802389795873 -0.3711094307555802
Ni 4.848701154092677 3.3057795345218985 4.596630642232547 -0.8924540756520501 1.76042250745791 -0.20191618745494905
Ni 3.424078672578871 5.429881403779 10.487153365561161 0.21070113273643065 -0.5451255493661515 -0.5451160362844547
Ni 6.588652314853677 8.289053243723416 0.8499812035001737 -0.4826017198003172 1.2214838036287607 -0.4144525736279056
Ni 7.625839799609067 2.085254752599463 0.6307730024472825 1.1415613189705052 -0.044441775253142815 1.3768355130606096
Ni 0.6780510258470279 6.596719637007871 6.748802536888777 -0.24700099560872946 -0.29988036010626423 -0.5115618544780931
Ni 2.1125929830646504 9.036631264356222 1.1881370738978914 2.010710658458344 0.7714592464335165 -0.4438166286123196
Ni 3.4929469594089406 9.29102020618406 10.603561493700338 -0.2403816905199989 -0.46012616440562043 -0.09641225478316298
Ni 8.300562129915866 3.5209975566239824 4.652633770590573 1.2064037693671867 -0.8347279245851753 3.559074490710664
Ni 7.386151517073676 7.394783181718015 12.322477482004926 1.0952956031347458 -1.7593920093108666 -0.03352435700969065
Ni 2.3040623629995136 5.631370175792983 8.107621758900136 -1.1099681175452563 1.9716576583209398 0.6066407351618133
Ni 4.738709877611929 8.27930214561502 7.3701103130792305 -0.10528024669675418 -1.2134007695103102 -0.350706441619196
Ni 8.388229497729105 5.508852346334277 11.005782263700535 1.1072918562646739 -0.343640278801034 -0.7551311986974543
Ni 6.556882608113423 2.0316699705844488 4.979421377842565 -0.13879251952158678 -0.43008308107631094 -0.2398114198388257
Ni 8.268052301877061 6.636269868899133 1.628411180463034 0.6575696608011965 -0.12285707923825291 -0.45223004948699536
Ni 0.6480095023388868 1.3719628511219808 0.8562648333248624 -1.521498118209728 1.7661198149530035 -1.092230333945861
Ni 3.22887168008633 0.6951931602730671 6.796926148872116 -1.4078368465381301 -0.7002828833990069 0.4593260371018283
Ni 5.163835551499001 6.5021043805044965 11.666952973030888 -0.49712331045526 0.6018718530182602 0.2758953100455765
Ni 1.2035112435720197 1.9202909666689183 7.26697163467143 -0.45939442844591855 0.25514779308558 -0.7049527780708504
Ni 8.756384334660297 5.314774038822025 3.5186014139199275 1.1479343123763843 2.0155129649429933 0.13640550734664894
P 2.0071904586349105 1.0137626456562847 4.957932881090791 0.37313108917129933 0.10532909765681861 0.3664598477987108
Ni 5.243629878998914 7.81458923377176 9.581576100417164 -0.5924513310353088 0.6787177556337214 0.37341828139441496
P 0.8831784191950068 7.044419010500716 3.102419180774208 0.5126733423747171 -1.3426390696845585 -0.13816902700497494
Ni 2.973585341184 4.1416355230392465 6.187291010711419 1.0218250447494208 0.20685630506904373 -0.5872846992327048
P 8.315022249786285 5.417031047732927 5.92870743142405 -1.3880825467293383 0.3336474292543802 -0.47640124741656015
P 1.2897723809180124 4.705570946469357 10.546528671585705 -0.08655258838026385 -0.6352370587422672 0.08637338248992221
P 6.475783816824815 2.6862147439895314 12.6279384940392 -0.9395885672460077 1.7890514840485126 -1.6985095720031975
Ni 4.475670768107288 5.537421028458303 7.444285269619902 0.5652205203438136 0.5001075898945645 -0.4371261039660213
Ni 7.0505065081812885 3.958427747099447 2.892622547184002 -2.80860675892715 1.1709461998905255 -1.838667347303427
Ni 7.858829984392581 7.7597277425167475 4.41979161006677 0.7165173429799984 -0.5568598070839442 0.7535995925442763
Ni 2.8814309879983036 7.501767715423405 11.906810558313321 0.5000577104932354 -0.5818840970424237 1.60124088275701
Ni 6.3556436270377 1.194888830443913 2.537996202438679 0.5056763422315936 0.2431865069586457 1.0666164900324986
Ni 2.969412907363425 2.9539998813211232 11.110071830727582 -2.244566889154999 1.2407105130688567 -0.8212617717779404
Ni 7.441780884175935 0.605720821642991 12.093737443778334 2.051446445614809 1.6488651695031924 2.0177248849926475
Ni 6.4145202763373455 4.19284266538267 6.5289587566707565 0.2718666485021576 0.10150869546946388 0.32219573577401284
Ni 9.057345409199389 8.35651530008624 10.563617147217599 -0.7092578332041075 0.8629318978232171 -0.38756269121559705
Ni 4.798215630015342 6.517683933838972 0.4321596016781659 -0.8986954285760717 0.7449470590756009 -0.10808763423856223
Ni 6.170770578176162 5.722275574287377 4.531825621331517 1.3781915128678714 -1.7740017888042416 0.19781090703732385
Ni 2.7404286291083126 2.6923484992512643 0.656733682145544 0.4175623229014808 -0.34759309280119494 -0.8962125142532177
Ni 7.911794914820058 2.254798039064785 6.920374680863749 0.3742739445264909 -0.40134406127040556 0.7725411666437856
Ni 4.636295592925084 1.8069968988933898 11.791973337630317 1.187871257780638 -1.0283718447290031 -0.3825832357231347
Ni 0.8695786903341521 8.473056650059156 5.282254959266988 0.31058077724290384 -0.6369728104864514 -1.3229518756682765
Ni 4.073868166640771 2.1374610586959277 2.538930605578098 -0.5991446838950842 -1.1496299549112523 0.9905773995890488
Ni 5.196252864375487 1.6432450615892207 0.49086694823076854 -0.6113121724955536 -0.8454039162417827 0.16236979262089454
Ni 5.997998512545916 5.519528596065859 9.181765350395368 0.4226379376521754 0.30979736210966 -0.37720731612320196
Ni 4.306571554421096 0.9825295268574782 4.7599023258442825 1.1201728259924 -0.03482944897435937 -0.1041877849635238
Ni 4.592027087755567 0.948483947124182 8.823009128804136 -0.12032994194102502 0.5874860166102334 -0.023737452826255893
Ni 1.726092389445652 1.1918080755386988 9.51293910149289 0.7812404941899965 0.14646906223023806 0.549839409902053
Ni 5.011194785189312 7.721102662248673 4.8128589299071525 0.613312490755034 1.2585657960827228 -0.5475074193347667
Ni 6.19825683290106 4.639690899382182 11.256417865393104 -0.66173150548837 0.09804387684931502 1.1870335923706912
Ni 8.710728102055999 1.0343010116910447 4.525271847232857 0.34821864220033577 0.66965718809335 0.30855011996612025
Ni 1.4218655296767087 1.900575985578795 2.859989673979313 0.3942275048302823 -0.45165155127570605 0.0881898668733707
P 6.406758254218803 8.324366281180478 3.079021171072175 -0.4937304827236271 2.9827630026600116 0.20751065082359102
Ni 1.851607710163486 0.7563022004394643 12.397262113465278 -0.13303170577840961 0.10423792147516886 -0.385779116952613
P 3.0669423914798406 7.906031220207602 8.658667044764375 -0.8510104637952828 -0.12169288372682267 0.4371687842784987
Ni -0.08608998429570312 3.493428038252998 9.225284482750103 0.7915804426634238 0.6204262189816799 -0.17121258772350514
P 8.27777564543676 2.3700071707003114 2.8356443090151364 1.8738297541371727 -1.6354162430871384 -1.2928229174933799
P 4.153005636488221 5.57587032991797 5.193253522813113 -0.38559425463531655 0.47324290429323657 0.15852959293919794
P 7.2148596940405305 7.200464334783734 10.051039665845492 0.04634130626870084 -1.2271533432097124 1.2231601628899194
Ni 4.644076118076089 3.595268728933467 9.446631634355803 1.250539069123504 -0.29347779901403004 0.8693673690359156
Ni 4.464753978953677 9.038139261502018 2.0042151710147396 0.3975907648755604 -0.8116468743959957 -0.6894744799295932
Ni 1.0924467912083726 8.594445794537576 7.69854931597861 0.34785945908870414 1.0908334535983342 1.3927210739426144
Ni 6.028852319179216 6.5335687872090995 2.4038362649537817 0.39853795928017816 -2.94522541072587 -1.548476960791417
Ni 0.765172554202585 4.255410669658833 6.57882812976705 -1.442253119234471 -0.4300560844931175 1.4466345361316182
Ni 0.9817523994940008 3.927028101008467 1.5035943492207064 -0.6464465543048414 0.5457878655404987 1.1531518520215818
Ni 7.682912403243497 8.225569339340296 8.306911445505802 0.1357719875277081 1.2837268687293826 -0.8277612634593551
Ni 3.131184920193973 5.058590302845202 1.2080130313704496 0.2650835641420532 -0.1695233729465403 1.6740426972100846
Ni 1.738924242459261 5.736356381992288 4.639161712653719 0.04541236669652824 0.0665090394658274 -0.16278605422270676
Ni 2.9638157400431413 4.015639123477356 3.3077889638474613 -0.05834424426684791 0.45010143317976675 -0.7339100845351489
Ni 5.1624015664830605 3.8414515758636325 1.526992358922739 -0.8648301432871944 0.12508931100288134 0.7785616618062527
Ni 1.5093756217140044 6.884266013010746 10.160081736760851 -0.1625780519769587 -0.19078871008321982 -1.2473043642362907
Ni 1.6232247804634454 3.032027169220748 4.79831647154227 -1.67798059881191 0.19358555610206662 0.7311458915264504
Ni 4.444937231185003 4.208486979330768 12.740880079046295 0.888550883942902 -1.1069856378781644 -0.02298643359284428
Ni 8.7922894691562 1.0996999799341618 8.95680270624625 -0.7274954392580567 0.0944157931784245 -0.17818439105564796
Ni 2.8643526890342645 8.844736314674693 3.6097288488038854 -1.4946594007503289 -1.1734483974870886 -0.3704075195925492
Ni 7.091055903825593 2.917576661916235 10.424041372130564 1.504164769137603 -1.2279997503704077 -0.6607174624015588
Ni 4.476512656084389 2.5593024443206844 7.060140112033539 1.3663122449317824 0.34646463562370655 -0.7683245574592769
Ni 8.883490916170013 8.577099201602811 0.3299719791390021 0.2040201211718293 0.8982169462777563 0.09475903545045616
Ni 1.703555695904807 6.942596822852711 0.9266475933620899 -0.3382908415636625 -1.7478140746652802 0.882970561641647
Ni 6.667493736181707 0.7480035903794733 9.943229896892218 -0.7261229843905623 -1.401807866735231 -0.8897418189272097
Ni 6.618146148600892 6.901862396883771 6.552356766372789 0.21788145253495378 -0.7715705752004002 0.2516066127015409
Ni 0.44602392390325224 3.7323114388762155 12.820159097092093 -0.4381427181559938 -0.6612720493534483 -1.218083262587644
Ni 6.518784864270565 4.869813114133814 13.67349675068119 1.9323763442228141 0.7266806566662454 -0.2961291205939481
Ni 3.948297336825545 6.1972576691480175 3.1340094080995646 -1.2826333785548878 0.4684305705062578 -0.1698262488989398
P 6.193131492908601 2.5556295923766306 8.425268868115035 1.2544427750532847 -0.6243515221780149 -0.6353414455306154
Ni 2.4451017279544325 4.963854776630813 12.751184417825357 -2.2600557288192173 1.1600616917675377 -2.0309809786716055
P 8.458800063545839 9.159315621107103 6.407134790929441 -0.32236799968581903 0.4221386294182536 1.1034552561274027
Ni 0.5556395888249877 7.092619410068779 12.427186142717275 0.7882264385895263 -0.5211438417395734 -0.47804392522630573
P 8.589375963642507 5.522877644941797 -0.25404108481751975 0.19966775774040452 -0.052806602278070346 0.3136061943327889
P -0.044065896964038856 1.1963783245572446 11.216825076527176 1.8583216311992445 0.8734212273903151 -1.2164760660015241
P 3.867994175932879 -0.23132583701339968 13.162315323108473 0.13014281426638877 0.48586264993977607 0.6163682468622224
Ni 6.326048026611935 0.03069190509924186 6.172436776249523 0.6739714991979876 0.7149672248840591 -0.414331474669009
