# total energy = -381162.7939520271 ev
CRYSTAL
PRIMVEC
9.24727497133505 0.00000000000000 0.00000000000000

0.00000000000000 9.24727497133505 0.00000000000000

0.00000000000000 0.00000000000000 13.53432164943550

PRIMCOORD
 96 1
Ni 4.9854925514687425 5.433939146606987 7.003957195514768 -1.5724033897000274 1.3495306545980694 -2.030268783095929
Ni 4.95213763098903 5.627392137024392 2.623953084775262 1.4305731117933815 -0.8817163775195719 -1.8765319835596845
Ni 4.354920877636866 3.9154163973042446 1.2891644399946725 1.7547257141834491 -0.9125408190995962 -0.39264190551071737
Ni 7.198726073147105 4.036888600082593 0.2763279925885251 -0.5111167965208746 1.0407043981524269 0.5785624888683585
Ni 6.653358790027751 4.0576857212799515 3.2173109503214428 0.30314643245204564 -0.24609416752374394 -1.5388124411184596
Ni 2.6086007590252156 2.2255231499892965 13.075196333153807 -1.1636141850054862 -0.5210440829369155 -0.048814193289225614
Ni 2.136971245771463 2.0144910900315716 2.897806506606823 0.8781137477699781 -0.7214975698034091 -0.7992739546529396
Ni 0.22404020152656637 1.0743946315318462 3.547385953947446 -0.8675539699762608 -0.6172845880289046 0.7361392309759838
Ni 2.4370823046149845 7.955319608996592 11.195090340538197 0.47656554090856623 0.3396686957477957 0.792282610936771
Ni 2.1373318894916484 6.460812032548247 6.882676411326363 -0.3758921968562043 -1.2138016044931548 0.1552547788426681
Ni 5.351786356603725 1.7366382218159033 9.183403024249195 1.333572588606916 -0.07176180322433447 2.3371685119428203
Ni 2.302460476962184 8.513531356919474 3.4077530280390436 -0.5314238835093428 -0.4957071468340237 -0.5878369721917489
Ni 1.6832167148540798 4.327280773030861 11.491058620237025 -0.30887330763349385 -1.204802229208022 1.4745603160076088
Ni 7.372981720920794 6.242936989181876 4.298351598307065 0.2627464313684443 0.6631196440851482 -0.12825022522936622
Ni 2.011254543824779 7.967831171904563 0.3560663191215195 -1.8821223331632682 -0.16609583532223007 -0.4810225482386555
Ni 6.3551434225339225 -0.015483637053293656 1.904644561228021 1.6580635481730088 0.7719287298707673 0.08944713631923949
Ni 2.9624754740009926 3.7734892224989705 7.352763479130709 -0.13059944218783312 0.15333879276687784 -1.0187476913756779
Ni 7.47007810712456 2.952636373532345 9.430349650372461 -1.3795302862839531 -1.1519519181762097 0.19061181818572334
Ni 4.583550501684663 2.8173117529889264 3.4165092726196478 0.8493965823409436 1.559529876171469 -0.9813713076097486
Ni 8.533912350747388 7.102850327227045 0.08644260081849245 1.455290154924087 0.6042033293649142 0.4257350885202604
Ni 4.082403687024967 4.279740532890522 12.59263006790356 1.0387282482626627 -0.4216629753334158 0.2650758508325693
Ni 3.4697624791787183 0.1134418692755526 9.661394662618013 -1.9693912308842663 0.293569587396888 0.5339880446920932
Ni 6.756586119474668 1.6795640412778432 4.409928292240018 0.6317141331906734 0.6376862916137083 -0.5970212097941783
Ni 8.43250673445115 5.184234983115534 1.984700069289281 0.6862338615051085 -2.0257955778159245 0.9449729714863724
P 4.419993950943141 3.9413827451575942 10.508371987838377 0.8126087240886327 0.335952423238473 -1.6687102292535778
Ni 7.061108128434303 6.8577050702497315 1.8865356228372752 -2.936589075207111 0.6952198670538027 -0.2983916913758797
P 2.285029363819889 7.16275417387733 8.984164013941534 -0.01241122918015927 -0.6946333984227133 1.068419090458876
Ni 4.435335179963336 8.207076667510638 1.2224102121158402 -0.9228758824770171 0.41368227112078426 -2.9734481530169887
P 9.037084318605048 5.92300902027791 6.404562708929175 0.2931484406990693 0.045821172099172705 -0.9112868920878371
P 4.0315621697537 2.169817566132965 5.5735692983329255 -0.5276196792719042 0.4935165669406081 0.9885865944112653
P 1.4563810621323328 1.356556729839986 11.183504429845367 -0.06050062848821838 -1.861397441911091 1.6099718348721046
Ni 1.147253910284176 3.4942862521513263 5.054541028244446 0.22447864613649726 -2.6117103932842958 0.42327557123617426
Ni 7.287388944663458 2.196819608772488 1.6726119400256534 0.37003059586910464 -0.7251585635947639 0.1288364367501394
Ni 3.5299160022506695 8.158399012560483 5.579564306635393 -1.2857243587753855 -1.1722685182463746 -0.5915851263802715
Ni 7.052045799055285 5.071741884242315 7.14545899567572 3.2548443382761363 -0.1486455010562666 -0.005771355266138448
Ni 6.09153135762814 4.842187532706863 9.328788679858299 -0.3638751177906701 -0.4725872729871087 0.4309896520509803
Ni 0.8345656328810601 8.913725671751884 9.703405032382175 0.028862689867963195 0.5699292386733926 -0.31182544828328235
Ni 2.163446193743023 8.802813856882555 7.592334478812438 -0.8796291559732399 -0.34400948921499463 0.44069659492609903
Ni 4.41353935307931 7.820503588571384 7.945133735720073 -0.5263320708087322 0.7271473118900186 -0.8171513491539926
Ni 5.76531524180812 3.992621895248552 5.322534451986738 -0.2533181960760089 -0.5184770935406878 -0.44542125409527805
Ni 0.11758649787522185 8.763392724083827 12.130798967109 0.9392910906102468 0.9256884122251477 0.21562273840776416
Ni 5.2501865475350815 6.998772248491487 11.495227291751373 0.8029092374126818 1.6196443249648624 -1.5217292603839276
Ni 0.08648236410046162 0.15304887229929967 1.4217666628144343 0.07339085418732522 0.5581188763020258 -1.5527056541607842
Ni 2.0087670268829876 4.573304521121448 9.299648667267316 -0.45614018317467897 1.2502349076195243 -0.8286272110040762
Ni 6.647884403300834 7.444907024910593 8.5302633760811 -0.062402473496621556 -1.1899574508857056 1.2738875140414578
Ni 6.321446352883778 7.63318154139713 6.065433698471543 0.18903881727164862 -1.3905721459204115 0.23804404352575775
Ni 8.8268105351872 1.1957188779121692 5.780359633304778 0.1533236232582263 -0.12319183686985236 -0.7728106182550883
Ni 3.523257964339554 6.602415552732842 12.888342198088306 0.40030482137261386 0.39311781670587137 3.1062343184434957
Ni 8.32095685761534 8.512292222086016 7.059407554584506 -0.4637516769733497 1.319629753273579 0.39784478986789545
Ni 5.248355587109525 3.1374339146652996 7.328253577070416 0.44069453804357 -0.6185997072959024 0.5801876831766072
Ni 4.095090948155591 0.8121937007722252 3.8219837814065687 -1.1042530694383497 -1.9031745258478774 -0.8320249238317154
Ni 7.911857417076812 0.6004052137295985 9.615444953756441 0.7111617350950398 -0.5121418953512793 -1.878130438395056
Ni 4.906761253169805 6.089959320899126 4.6772448154613455 2.0993823500641393 0.33554181806361566 3.787540146519367
Ni 3.4176355906996116 5.780998619998747 10.98093640058215 -1.63009714486707 -0.25854344903069026 -2.135494522405664
Ni 6.637434982690333 2.9343082747270244 11.985859954876434 -2.2070506373770957 1.059595321519659 -0.714143443431183
Ni 4.968625522093917 1.8579532209213498 0.08443316798781836 1.2331676677245924 -0.6901367961039404 3.0584267120419133
P 0.8883440846531185 6.075117444722265 1.3275739209219062 1.2864679218096295 0.9438193174979036 -0.4345699132030709
Ni 3.5759489365861308 1.5024417382924233 7.93280434412717 -0.9850158463408712 0.21636810121422093 -3.301306486393418
P 7.7454619529481885 0.5470336420521084 -0.13842893071947568 -0.613190363354873 -0.1489568616490983 1.850216228483291
Ni 3.0201229855813994 6.296691398039256 1.7407301409487765 -0.9795460814755518 0.9626994422318581 0.20841362225383464
P 0.31369807981963493 1.2534496149664647 7.865606247054264 0.182637284620679 -0.37818947753081317 0.051959166676110516
P 2.955401308720433 0.46521560339937806 0.8443048627810416 0.41025370505520964 1.8380716227009568 0.7554615854536796
P 3.076910500598287 6.388988448582092 3.946391993958221 -2.8381677604137185 0.8131797661007544 -0.313458355901015
Ni 8.374563310074695 5.001887969824865 9.522071520417974 1.2809436495572908 1.5967553361818307 -0.3609810840723267
Ni 6.3117459615382785 0.28672008009479083 7.58340253600918 -0.25140709509622505 0.6246058042806663 1.1400469392085075
Ni 0.6728196985603662 5.424257249811239 4.2647867646876545 0.09000403726397403 2.7606384585779873 -0.4445488787926537
Ni 9.057862945252653 7.626597481685028 2.818414028154211 0.5396282736970061 -0.47389493605493865 0.7803627195707336
Ni 0.5772185967041397 8.077244928243891 5.477096178455841 1.010506791523124 -0.5994830410711095 -1.1942992727941688
Ni 0.034388765810910445 5.1170165420378995 12.93645669399848 -0.07782189337548534 -0.6315603812216285 -0.368579722355191
Ni 7.540024494290776 2.254661313125302 7.248319208310037 -0.44004739137787446 1.1582362085230247 -0.20029407847049377
Ni -0.2505391924128052 6.945082570558242 8.418672811235833 1.8424468689505173 -1.0363828879589376 0.3213853240575755
Ni 7.989525278764946 4.060043776373472 5.071283219408438 1.8852400528566433 -1.0902786095361288 0.9735474406899555
Ni 4.22805751360549 9.120319039768866 12.343909814458973 -0.1884603190603593 -0.41950993354615485 0.4597183874442405
Ni 5.235159725860689 0.30174412758672003 5.667822147512152 0.3137226653059952 1.4954114484250052 0.3800509562195842
Ni 0.3534502650589438 3.181645135850081 0.761437258429823 -0.8289455135754433 -1.274306089636115 0.9778236994678065
Ni 0.4446080513369886 2.768606356214143 9.987354628923953 0.8553070342881076 -0.4809140476852491 -1.0709364575640912
Ni 6.523277374339337 0.8077235680969014 11.287367047076305 -1.242198410468293 -1.848003279992372 1.1472745673051983
Ni 6.587453461982586 8.039257123051028 13.127642252616155 -1.5367177633729598 0.3159770085578107 0.11834222208703489
Ni 0.5761588590032871 3.5324127664673375 7.762339154325378 -0.865551080613619 -0.1650529958800125 -1.371757841427386
Ni 1.9324770091514583 1.040919496478739 5.978799679063106 0.7106984223053759 1.2570940966332027 -1.6164121911808098
Ni 8.076403426230124 7.479399360200121 10.67047301751433 -3.3094612542900683 0.7683654379995413 -0.3986618864525521
Ni 6.903173920817722 5.4906156943253555 11.608374172958364 0.8840848777517484 -0.5218154138853014 0.8966989669713331
Ni 5.025015404291113 7.853590338079677 3.203276361241304 0.47583869004487084 0.7220056197880792 3.0470102426748555
Ni 2.2761057435640195 4.352923466263531 0.5200075564979062 -1.2779143758126636 1.472357394819019 -1.3350841401554363
Ni 4.090735481688737 5.701259368738265 8.8583761079783 -2.020554898242275 0.29290649989159234 0.7382313376183222
Ni 2.587637186880079 4.2303785795995035 2.718489825293198 -0.8504643614838255 0.4299534974769821 1.3335229663159036
Ni 3.473692571001252 4.2506578534037756 4.843419269720418 -1.1382068006759753 -0.04479761593066479 1.588208475053084
Ni 2.9030154965447825 2.3805167241951346 10.032925199515587 -0.7874815900037019 1.1191757521864532 -1.641221794025322
P 5.665056287596576 5.651740211774346 0.0916580638488661 0.13615533900905583 0.29486336650764705 0.3214765982198012
Ni 4.430221436956605 2.116608746493302 11.608496236986733 0.6049787740783581 -0.6038284625239988 -1.7660064293035909
P 8.421003124504724 3.8412532527943215 11.267038762715186 0.0649650920174752 1.9302222739942883 1.4212497775099264
Ni 8.61166343790941 1.8677830741151213 12.045924704109568 2.3958451998484223 -0.4007935880835743 -0.08712671571617898
P 5.299881402721656 8.684134331116924 9.972088302830258 3.1081104524202856 -0.7978986715719678 0.2318399715975749
P 6.864631279132267 8.7672673322571 4.214371546788197 0.18082465689197247 -0.5666657374307724 -0.690827651523378
P 8.883782995701619 3.085334768010823 2.982910102023191 -0.013263806988441674 0.3843125597094155 0.47625109499194107
Ni 0.6931109938219777 6.614557224645751 10.925797674675751 1.5853404094766699 -2.1838443744639613 -0.15553245798408696
