# total energy = -340896.11742169654 ev
CRYSTAL
PRIMVEC
9.04702131240306 0.00000000000000 0.00000000000000

0.00000000000000 9.04702131240306 0.00000000000000

0.00000000000000 0.00000000000000 13.24123017763686

PRIMCOORD
 96 1
Ni 6.303177504720124 1.8836532097510206 11.386160599395703 0.4140460822181063 0.38258863503977336 0.34949288092706904
Ni 4.655850591131653 0.4127875462207747 5.968868346680272 -0.16675506617278377 -0.6816786380342583 -0.8009351444054464
Ni 2.6976318300073947 1.7058159077195048 4.82833567523155 0.026588034901173563 -0.5249022803407413 -0.055139621286621164
Ni 3.3280554306311987 4.206222668576619 4.805096591051443 -0.1529523559617366 0.33842402470741717 -0.2655677028673233
Ni 4.932897531158673 4.388212553486116 2.642698315333977 0.6614602541048543 0.5487088958420356 -0.4597736661622082
Ni 7.3208498145140455 6.161012608544551 2.690882751952986 0.421221516920623 -0.4355122225116822 -0.5560432247199197
Ni 5.246204933440477 4.770829187637658 11.403149096407189 -0.39522046487117096 -1.218968493406075 1.1795943624838263
Ni 5.639795604696574 7.868891237170765 12.427066565156819 -0.5874003988749625 0.07959389767424357 0.27156145855691294
Ni 1.6548721295366964 6.486976793933751 0.4468839609278194 1.2767926035033945 0.49706648907539547 -0.38897062730671716
Ni 2.821259379087145 1.4331839141945657 0.5238415447911192 -1.2752697391009649 0.6627810297988069 0.2134874372323162
Ni 0.3626263353995029 9.286043829230731 4.939469287591276 1.0538015976560173 -0.6754802225330302 -0.335118614483268
Ni 8.545689870109447 2.2869241940342184 1.200325341380882 0.03383854581599978 0.5375474799085774 1.272172074012248
Ni 6.9513604085889735 0.6742292788268156 4.919779349953722 -0.8423093364768589 -0.1513911821222038 -0.5181145679949465
Ni 0.7488056866258792 7.460146804867571 2.5871912194961504 -0.5338967705298676 -0.15463797119427564 0.39123114120611974
Ni 7.654277792657786 3.8820769345130706 3.69892450733817 0.4580849656058756 -0.2637051957372878 0.22061736340887814
Ni 7.461684798526083 3.8588803713341115 12.623858281976258 0.43909042678124377 0.13378118234992442 -0.8043176877244342
Ni 7.9391413592786515 8.772462511546184 7.133474237693304 -0.6064358182398588 -0.20021360294154553 -0.5352795098100072
Ni 6.797741983168251 0.753304770428101 0.445262734671318 -0.06227391833855726 -0.37169641360730177 -0.5545617550783869
Ni 1.7869676907597802 6.301006219555166 9.266769149880975 0.628988249619078 1.5772486336074707 0.10637219420935229
Ni 0.035340380166134715 4.762542115924739 1.182904396740709 -0.6376132722839276 0.02494818530490542 0.6135192074492015
Ni 6.538716710010377 1.8627907781243902 6.959630290961004 -0.33522248705098395 0.5316483408153232 0.16377207228505988
Ni 3.3355282704072597 4.074470894171321 0.2834775629239004 -0.8361224909398567 0.9811180539483619 0.4977552876123041
Ni 5.916272582367791 5.54969631737237 4.737738801723711 -0.06157457827868751 0.2970050954409981 0.3796964010936429
Ni 5.575444140620154 2.676136106874318 9.198550084104474 -1.116877957291212 1.1931129657955517 -0.21303466596561374
P 0.26694322639275125 5.561855514296131 12.284048534851848 -0.2765260016510399 -0.07442829431290407 -0.1562315409336406
P 4.087616216440833 6.107608040508124 12.769008695253648 -0.933110929941464 -0.03524622479680381 0.19164822987003768
P 2.2977987139020457 8.439360226177188 1.4801180524394197 -0.149490108444749 1.003988016568 -0.7989070582318241
P 6.259733707377939 7.6635871778025395 5.829451935642673 0.5239208902640783 -0.1036401399901699 0.10945340423783731
P 4.657270973510397 1.1291225679068708 12.71506402003244 0.7945341259751091 -1.2207595238682267 -1.0395242618013967
P 3.791344355682422 6.217646963263851 8.381950541713568 1.2914044398792985 -0.36528125410957735 -1.02564647537804
P 4.799924408848085 1.0331698576588038 3.6916416550140427 -0.7388941680133017 -0.25126028510571563 1.4747112397631763
P 0.3376746500455364 5.6050098069496554 3.6461450884888205 -0.7721128208571154 -0.2613536647859757 -0.26516352545036914
Ni 1.2024577243533006 1.009140968499944 2.7153259946974915 0.9356874324193886 0.09099648308423038 -0.8925587195507143
Ni 2.1163516502837885 6.504799426329442 4.785407558116042 -0.5888098776279794 -0.09847376529788202 -0.5756052060122474
Ni 5.948896141971273 5.431858862065838 9.270145498312482 0.18362947333061921 1.327288298260101 -1.0282941974135322
Ni 8.744561497176486 2.255006302109347 10.18180480992737 0.02589486548889089 0.7584623199532163 0.4820571601507569
Ni 2.4200963508182602 5.265791735032694 6.976778015551254 -0.25239671270300407 0.15767264425554137 0.04849151984248423
Ni 0.6264492440697803 0.1476582476429148 9.251819851520244 0.9348831913505383 -0.06362117639507107 0.21168020882024835
Ni 1.8524771735908434 1.2073612100174955 11.475936003349466 -0.6451070095578115 -0.7569227433802383 -0.4200246683990444
Ni 3.930053289637104 7.049439168894395 1.6663166117603248 0.6334984787846057 -1.6552525610867752 -0.47767214370918376
Ni 5.65410799274225 7.6562771844138515 7.995981986088622 -0.15714376833526483 0.38272927438269566 0.0948402823103528
Ni 5.3119044037234735 2.9836353213398614 4.824495214596032 0.5279513515797102 -0.8726162149905167 -0.047363319775311975
Ni 0.7942823497037558 7.470279468970705 6.862346763847248 0.4372752279493759 -0.26771637377920987 -8.51035146385631e-05
Ni 4.8817547185024095 4.637991770649881 7.11725383280892 1.252580010812933 0.5461838154273367 -0.003366345369071622
Ni 8.22931552753214 7.441844680331286 9.27500555827338 -0.912978420857647 -1.7218019668722346 -0.27582023383326687
Ni 4.552370758978402 0.37873908072778956 10.307887720647825 -0.4711271435018144 -0.5358729204196319 0.18158364654518405
Ni 8.10747928871348 7.403829095901493 4.630829243711978 -0.02111364205016364 -1.154056366113722 0.686026887700625
Ni 7.16000281889832 5.854870447307105 6.960266296573907 0.25223756141732045 0.667683866417063 0.32033888507093217
Ni 2.164038500719161 5.153147270079019 2.3973774703755915 0.8835392896609234 0.14979015618367106 0.7011979390141084
Ni 2.3633443848191913 5.19611157528061 11.488171195253999 -0.7758681741344896 -0.6652932546976993 0.16015453013713063
Ni 1.0807662378789697 3.353568031319446 3.651494592313984 -0.4391243653429727 0.08560847929943965 0.7090264339195917
Ni 3.583995669450529 2.54632944209596 2.594354651136205 -0.5159586979942082 -0.29907354793425267 0.20209307935244547
Ni 1.2459105687170067 3.623304977957775 8.29492905111069 -0.30399798181906357 -0.7015918320184175 0.13571696592005658
Ni 3.8311964854809073 2.6856445264925264 6.875561748182469 -0.9000971940196046 -0.7680137110870773 0.2719736063936671
Ni 4.087779062828204 6.78930111208948 6.1575557416215085 1.0963019329120733 0.5638272395407128 -1.0193272180282313
Ni 0.9525156608021642 7.767211762300123 11.62255655762396 -0.2845331882262325 -0.8300469741697382 -0.7664309399809898
P 9.214029537926315 5.67012122083381 7.972187414787148 -0.7422196328421089 0.2420307960876477 0.5371975527683265
P 8.594824243988123 1.6032860128259214 8.023218949078707 -0.3262233688761672 0.2343948768089447 -0.2817890498221921
P 1.8829746831369716 3.145549865495025 10.4872394940819 -0.18103368757898497 1.0443432804565949 -0.22946864315192092
P 3.9946761643591433 6.000627011026379 3.7185085948239323 -0.24645772151074974 1.1066855901392423 -0.20889159033151763
P 7.014309584329691 3.9115340365843236 10.28577499064704 0.5246629106364255 -0.156534159775724 1.1029772880497197
P 6.072614161266231 7.734742002062491 10.174005372674413 1.5652498093743816 -0.5093895294171227 0.5250727444803344
P 2.4663809129179315 8.480605597289854 5.7111413211106115 -0.28775786581111734 0.5162214647372916 -0.1882659436613661
P 6.866852180564535 3.957863833791598 1.5709926695079435 0.778030729003447 0.23843613675785386 0.5313732327770655
Ni 5.3184092121968245 2.940046771653346 0.3835231457079119 0.3457922921470303 0.09592400229283479 0.19799679779588483
Ni 1.453394960271709 0.9573286762511526 6.953234951448053 0.2544003733965941 0.9320256672970852 0.8163327099074392
Ni 6.896146436248416 0.6447540827125215 9.289821865417755 -0.09702674843871031 -0.5597489557062811 -0.5788468528779966
Ni 2.79770998206888 1.7906045934110835 9.039801092779388 0.3088990186651067 -1.047862606463763 0.08193000200658793
Ni 6.283020740772105 2.0216474290055717 2.6056751891650007 1.2097361761745296 0.3414831232487151 -0.399935353848337
Ni 4.001832358381981 6.654998077615356 10.531955302649887 0.45246993341194336 1.6763587469377712 0.0417724559510958
Ni 8.23316955869994 7.094520477131819 0.2552038112675493 -0.20092502718627334 0.43225926279202337 0.6916948846196798
Ni 7.733059256059651 3.680265025451819 8.161735181474999 0.2435451758496451 0.3804669607110802 -0.2840127969463883
Ni 3.2016594929661273 8.439188332768296 12.536585284175107 0.23300313866774064 -1.0864862323732318 -0.0180843683055366
Ni 0.06679415988699604 4.907384930470426 10.067982422771703 -0.9968277513741349 -0.7408109254200403 1.2935291995317852
Ni 8.753436625288249 2.34550365838046 5.8142637959137975 -0.07297202148235174 1.5311263853281116 0.08290496432534754
Ni 3.8050324992431728 2.7427764673954633 11.475684496151194 0.2894583934419918 0.10434179404288482 -0.28508648962654126
Ni 0.8895655803592944 3.200582897405169 12.593271206917077 0.43088038016662566 0.6118737014259785 -0.6691568514181636
Ni 3.2546207569480416 8.342294732282081 7.777673737986608 -0.868406290674227 0.6537831971755708 1.6966465506525295
Ni 5.5836136010533055 7.826487847303455 3.6841344365562034 -0.31122329592290915 0.19528865483610236 -0.2650727655087758
Ni 3.136358091630039 8.557595750430629 3.5793825931771472 0.05854401898247982 -0.10727465141896364 0.22402896019358837
Ni 3.615099329438541 4.270854590320179 9.371878350610096 -0.3735797466729437 -0.12344663319313577 0.07305789632793869
Ni 7.272882506411532 6.2023755909369855 11.455809094572464 0.4245382399986818 -0.374238206192549 -0.7760520080105215
Ni 0.4403402502619296 9.203987344038389 0.35248281487054456 0.29244807219793506 -0.23832866464571212 -0.01598223436086925
Ni 4.71284682671178 0.2534197386236761 1.5823403486013008 -0.07709684228400272 -0.08155179273156277 0.2729799361709944
Ni 6.0432565764317046 5.6665024122255465 0.5645649027620437 -0.6102557062065813 0.49956225891405576 -0.6980023148949462
Ni 7.746901198986252 8.735134500751963 11.461794604010532 0.39972040962405353 0.09969452507886056 -0.11066953603312554
Ni 0.2322126154771087 5.1397214901423665 5.853907844217308 -0.4736648223220035 -1.0283942133265063 -0.8577097301923293
Ni 7.786165272385895 8.853071473295222 2.6291259736486903 0.26538823986666554 -0.04406073776464024 -0.3476869380665818
P 8.40899842195387 1.6678455583973155 3.5532710796642326 -0.5167228298537423 0.9245967218228657 0.5157378402326537
P 1.6743775079352285 3.0813250597198945 1.533175214849453 0.04189844000599881 0.233243793923637 -0.4146592903220729
P 4.741073533856223 1.0411402836185009 8.079639794090118 0.22164117668770214 -0.4876737350065859 0.12195102248421577
P 8.33566326550744 1.6247907829805184 12.316688379094067 0.4361699107003391 -0.18731309282979353 0.20156626031469801
P 6.3772183288451645 7.738071305982093 1.3737775520813365 -0.28249816007407474 -0.0979474604807668 0.32787607398824176
P 1.7838012332275512 3.3617827268602003 6.123367047294953 -0.05522035392588554 -1.2552521583284575 -0.6808746540757242
P 7.005054481314062 3.927393465310032 5.898848923621162 -0.3340464644650118 -0.149860090189658 0.5182888887892816
P 2.486420065586182 8.47722201124113 10.203453427724146 -0.16125419095921262 0.04273867651910704 0.09394425285864466
