# total energy = -340876.54510336526 ev
CRYSTAL
PRIMVEC
9.11519020280218 0.00000000000000 0.00000000000000
0.00000000000000 9.11519020280218 0.00000000000000
0.00000000000000 0.00000000000000 13.34100223934522
PRIMCOORD
 96 1
Ni 8.566929672777984 6.519639739506276 0.8500261172177146 -0.537336649449352 0.6132924361503761 0.7181692767611245
Ni 6.133529400847421 7.636132032792407 6.43520573334473 -3.0752885207942584 1.4990027653206894 0.12434986173369551
Ni 0.5710010321900647 2.447875193854835 1.7605451937241163 0.04974776084708851 -1.1018966533910313 0.27056824140570823
Ni 8.838042772773978 3.7615746255739877 4.3369327186455395 2.001204261629805 -1.474380338786319 -2.3229734513893607
Ni 0.20393779482400523 7.418880591266518 12.178640545928067 0.9264425167823529 0.10622564132915899 -0.7056819429273912
Ni 4.302488238187453 0.47628235700637844 8.028775228216455 -0.27812265671419845 0.29489550529716313 0.49507748366982474
Ni 0.14659869131982592 6.288323559611902 9.530025165946352 0.32198027732909706 0.16362037719854403 -0.31387718860598846
Ni 2.3574980837294177 8.359130683415488 4.295669164452221 2.0688610415468305 0.40545294123245657 0.9413117205847016
Ni 6.918010008888146 2.124668782273691 1.3295325169725911 -0.2501230861774789 0.29938285164455536 -0.025687891684407372
Ni 6.3362421141181375 8.54698563677653 4.305835336002688 0.051692800388601294 0.26024757620599054 -1.307890867570096
Ni 1.968853722214802 1.6793188229688358 9.799553134378977 0.05213965811803278 -0.004787136975998207 -1.3675144927699996
Ni 7.886198158781384 4.534743282665077 6.054266442045849 -1.2452202280137523 0.41080520668330545 1.6165700569149128
Ni 4.5030862273483265 1.2513879919998023 0.8979984513457084 -0.1357460193857791 -2.83451165171837 -0.08975875402238734
Ni 1.3127149911852596 4.226649856317209 8.834278199250852 0.10302796032746772 0.25691388384706726 -0.445819003754329
Ni 5.987458479036042 6.682400574443186 2.7235522695482377 0.06847104828820466 0.20988146504861274 -0.12853304657710768
Ni 1.3664216914231777 3.782138494504188 6.2164666927898455 -0.3242824430997125 1.0965364175203824 1.2697580652541165
Ni 6.4865515993393315 8.850813154144197 1.8524645940192987 -0.41275333154861177 1.143636970552611 -1.189510336045958
Ni 7.591048302416177 1.6959084690029518 8.099149053604583 -2.032541895400822 0.7363842571072544 -2.3805057412778745
Ni 7.4747020156142785 7.868851951966591 10.14923370416973 -0.1838935256252833 -0.3472971588273309 -0.29189759901110374
Ni 5.286245132820399 3.67667574471588 4.585863091944488 0.2120306501811316 -0.2224202209455718 -0.5293873126952883
Ni 9.122846888343183 8.258708633768315 8.286763365946229 -1.3228300053784314 -0.7058215538290489 -0.7161365626018118
Ni 7.815455168193046 3.1408666385744497 10.684768443088288 0.4500988620766055 -0.7488847035671102 0.6256260180150645
Ni 2.0534426866085362 6.276747268148536 11.052873546686051 0.9299132489397727 -0.2992468402873233 -0.1951153624830317
Ni 1.0907965723135087 6.14028375673274 4.954567975052715 0.0015264639468554357 -1.3123944118674045 2.2384453496382934
P 2.1553596274368054 1.544559852107094 0.2597801841090626 -0.4827534148868331 -1.187887455730554 -0.4004688577543038
P 3.8786136668256623 8.260896279399187 10.4858275954928 -0.16387980150751777 -0.9058875754491367 -0.6353913249319444
P 1.683083396491962 6.981232967620359 0.8184994091198043 -1.377688605089524 0.37328998334666674 -0.4954605780408563
P 6.9127778897543095 8.82747826741489 8.272702273653795 -0.5949576423969303 -1.5398938471080963 -1.0735224731237125
P 8.632285586000298 4.2007718315420135 1.2921265112417113 -0.6199873316720484 0.26942512894020054 0.2888734674727993
P 4.617281329279868 7.945410433856997 0.6876089249486553 0.05608090215396793 0.5640568390530157 0.4989724478488568
P 4.1895601476837925 2.3179837345217846 9.650040316775026 -1.2494702615393578 -0.8187454331139898 -1.976489018271312
P 7.1449782430911615 7.2417177559263655 12.329114104571575 -0.38933726661751655 -1.926179728493799 0.1985999785975225
Ni 7.915594646946231 7.057590915327936 5.207286621369124 1.9148028541154247 -0.6679726013020754 -0.489803379755079
Ni 4.784034617493119 5.894893723279753 11.16089584186248 0.5031831434960947 1.7118631104919677 -0.4915167629017599
Ni 3.3440806873022413 5.577037928304118 7.282279440479779 -0.4299177591430402 -2.0440218710159637 1.575575873890738
Ni 4.41363886661603 6.3071737727979205 4.714229579969018 1.1050477974255033 0.5270337248614471 1.1087738401268388
Ni 7.106229569854333 5.527606252236529 10.523582713005608 0.032175042070647815 0.2079276837563516 0.3844819954077443
Ni 7.510269487496213 4.7235279854192385 12.892184009830716 -0.5910271969942724 0.17269945668167677 -1.3820872483778521
Ni 5.571787578790024 6.032943277777933 0.24739264072424746 1.8028953319101402 0.962880962115045 -0.678321034415935
Ni 4.898703709311348 3.1957674287192193 13.31889613987955 3.4510670748907337 1.4804419715993664 -1.8886323663676443
Ni 5.593691380669133 5.055521440284386 6.736859277866716 -0.15877024819509428 0.5310999245110208 -1.8250505278509408
Ni 5.508181782072407 8.745787933482063 11.789043647045009 -0.7514879455179122 -0.976381567704641 1.312281540438624
Ni 1.0113668055325822 7.186333860704778 2.9513900928895245 -0.7164049857718501 -0.6549070263673689 -2.5356340218450075
Ni 7.920380121763766 4.204910127860415 8.65668239237959 -0.07592390502182408 -0.6817035777349227 -1.1803831769337092
Ni 2.942793557079208 7.416884364628347 6.350117256531946 -0.1477103908365069 2.637198253142755 0.08061334007769341
Ni 2.633278161071274 7.451512971927031 8.848926309787569 0.04198174374842447 0.1424393722455547 0.5285414197552253
Ni 8.566391876560393 2.5800545659101735 12.903217035962415 0.023886062588978216 -1.0946245452096501 0.26087261138449913
Ni 0.6752651344764576 1.4702072462278173 5.809900044444308 0.33100279254268156 1.1690551535153995 0.7737845521325835
Ni 3.546073300552796 4.569153125400675 9.570541274549123 0.6256363024277096 -0.6372844281895992 -0.02720175722577251
Ni 1.5589891980807233 2.8749127361912628 11.73403803221376 1.2016071193094917 2.032091438126965 0.26520080644620775
Ni 1.4378483212711626 4.851632867487076 2.2109240034229396 -0.03710744637525868 0.27785526198542465 0.09650789982076283
Ni 7.768019718763629 0.16993084349209325 11.981901016748646 0.6096954628277371 1.5367139067182178 1.2298828263257335
Ni 6.255563566289588 1.0122600941651885 9.952588061448633 -1.0653170544947845 0.8073693300665644 -0.09286824618564651
Ni 3.599397162805311 1.1548490133474276 11.432852096945375 0.6974101898369022 0.8002489169716992 0.3756726246462304
Ni 1.7746819420946165 0.2638856657429999 7.597207436386097 1.2706144997171407 0.9384505969868224 -0.45224341922343403
Ni 0.9287740677770192 0.7399775152756898 11.725807015527602 0.8146614928526034 -0.7097818240283776 2.475971058766736
P 1.343132380644515 2.12106828217288 3.8023988276031058 -2.1981227387598463 -1.3336960015586579 0.945079672267566
P 0.6586308240107114 8.152790124473576 6.0855780316567225 0.8518499289774426 0.6617744429111635 -0.41535040285182656
P 3.7020980099846432 3.8359728074039077 6.100760292334978 -0.14722059568428195 -1.0258233672755366 0.3428941446636288
P 7.460272669640649 2.3052862746725964 5.692859180154606 -0.40278567881293853 2.92499211439813 1.700737690002768
P 0.3635730310658051 2.3563404545830813 8.19948633198356 3.542755698945982 0.2550341503258511 -0.2701092994914187
P 1.110722377934705 8.333052124457463 10.295958185113331 -0.2772106864228903 -0.9829443085238232 -0.8670973420548164
P 4.4147418046215945 8.891302828695594 5.239598147337109 -1.9112652732758117 -2.3019706238854485 -0.6031368357736129
P 2.771901972547557 6.126146096843227 3.5581254049408773 -1.236033933528794 -0.2832918596199637 -0.37247880029928104
Ni 2.903807888899036 1.8287897106981947 2.483521056371876 1.8164758988080523 1.685807808165813 0.9235207151498676
Ni 8.802684950265002 9.246084258882329 0.9420813338458136 -0.013598821730357223 0.014852234521484098 0.11593309842491002
Ni 5.470180554426128 3.4857945482321315 10.901920529041776 -0.004293228058715187 0.2949176167843502 0.013436842231196212
Ni 2.534770301351114 3.7322237133597826 4.184858532615443 1.5986348125927308 2.32691906630067 -0.4874245951102574
Ni 4.347426125521625 8.468941378895156 2.89759862138341 -1.2989138608824662 -0.5248089492959864 -1.0367006763096727
Ni 6.55741308739934 4.630106401790858 1.8300922713675767 -0.5698590475570895 -1.7500884725217536 0.41449551105069904
Ni 5.210826049696072 7.4828692259695355 8.688687647959254 -0.4042103270746071 -1.357110009607224 1.12967048107019
Ni 2.817915452316907 2.4856576569380278 7.708204018101499 0.9793388505607521 0.5513905564392569 -0.359344062689536
Ni 2.7757941587324844 8.475094132231984 12.685078686437011 0.09297031898114956 -0.3191129830836311 0.9575798616171056
Ni 8.818700339321015 0.9516987709505366 9.839429356634717 -0.38350266221361046 0.10857305851541302 0.280763179660839
Ni 5.504344287028252 1.2359742054922802 6.076265953421309 1.3297264753879487 1.37795651403893 0.35106999560620183
Ni 3.100212890600737 1.5291004896489289 5.269042034490627 0.10678614181831933 0.7396210188769972 0.3818317022690908
Ni 7.568971311924624 1.753908423791457 3.7763977477611737 0.12783036408312823 -0.856301536990893 -2.278877232401095
Ni 1.9292755666762684 9.085301420203335 2.0178132314337267 -0.3713781110359346 -1.0262730532184454 -1.8596290371567585
Ni 2.8880477251666257 3.5350439204971473 0.6929713913013313 -1.5926246018429087 0.231256331179963 0.42797117693963066
Ni 7.415043096222362 6.430028305351664 7.75317654315816 0.2719347827359317 -0.1328717831617776 1.5134816756631546
Ni 8.247615447381767 5.694140775886693 3.100982212647594 -0.1420015133771877 -0.26940995943154894 0.6667271589307485
Ni 1.0445005216501708 4.845771800234364 13.066857486746738 -0.23829549741493156 0.9355367657741372 -0.7390931713979852
Ni 5.205493663470821 1.3992272606961356 3.5594726300418893 -0.361063616483804 1.3326714169488854 -0.548873703554674
Ni 3.965435852800912 5.3334891632571155 2.0190538088102343 0.6738051488234525 -0.8504877585225933 0.2795920421708733
Ni 7.813923816251435 0.3099274026017488 5.865984897786787 0.11191137886002664 -2.0536411392732825 2.0066997375267372
Ni 0.2555726123456846 0.054510660007263796 3.9872384760695945 -0.6795574779261974 0.7560064022135561 -0.4813994719621
Ni 3.371909362764964 6.164037942207963 13.142901871913889 -1.3752964507082637 -0.18110593557781712 0.5381802283965699
Ni 5.4967331032708415 2.820650009355498 7.7734952134739 -0.8549488796177405 0.8341774513983441 1.1009132064318397
P 5.775584999686048 5.0028538717211335 8.767959721950955 -0.1241418594879475 0.5506976441372903 2.216146429030777
P 8.086996682125086 7.9168707735642405 2.824516673008065 -0.896758873674991 -0.3853654264539621 -0.6935797603472184
P 0.22278618497199693 5.627736615799586 7.26140109749014 1.2124636024080215 -0.4808906506464815 0.3534562364501913
P 0.36366691752413005 4.6178738166382285 10.802729941580981 -0.4045944498869032 -0.4850036443735906 1.4073779046238408
P 3.4921660661320475 4.355584220686753 11.959154059782637 -0.6132505271688471 -0.7189668329617553 -0.5209962604181155
P 6.333334368467103 1.778938735884689 12.075941521786762 0.26013727588037133 1.0696704463674738 1.345793041932508
P 6.483853503061255 5.578733353668043 4.553150497610843 0.41802614991177683 -0.5552726651024823 -0.04442069220722027
P 4.863272965281344 3.187536412033061 2.2245056367146057 0.03727868184580031 -0.518925493932016 0.046039715867882
