# total energy = -340870.88933818345 ev
CRYSTAL
PRIMVEC
9.20513840542658 0.00000000000000 0.00000000000000
0.00000000000000 9.20513840542658 0.00000000000000
0.00000000000000 0.00000000000000 13.47265052599255
PRIMCOORD
 96 1
Ni 0.5768409316446576 5.759692050180863 11.150935540216098 0.9277890035079183 -1.3189324700962382 -0.8539577193490647
Ni 4.155125928418613 1.0748840357415317 4.872801798773823 -1.7325180677381582 1.0386284894600046 -0.11846229260466695
Ni 0.26841908038890416 3.838183800863448 9.281821098851356 1.337075716664168 1.04730827662219 1.4677101258549947
Ni 3.3296090976804047 9.139726897178662 6.967919882830373 -0.23535107007462694 -2.698377652865553 -2.306054564146835
Ni 1.4055878455218713 2.7583566056871875 6.917397479557551 0.25745124440777595 1.0249509919729123 0.17987643404609022
Ni 0.5871433227793832 -0.03629033846456637 2.9755021434925184 -0.4668812237412669 -0.7632731110782984 1.4099304958423653
Ni 2.089879439672372 7.493314215285548 12.363151038912394 -1.2693024657739365 -1.018451757401814 1.8107225412640426
Ni 7.821569458195055 3.2885541794701867 7.69743724349626 0.32381733053783585 1.6112771839470896 -1.438102587401207
Ni 7.176086728433406 5.777973455464606 7.188548645086543 0.2886065869646578 -0.6493485584429849 -0.8597007924804291
Ni 2.8504816329176514 1.7951309013111163 9.196768379616612 -2.104787323129794 -0.29279388557312797 -0.43608609273728116
Ni 1.0444242320739054 8.10846601332014 8.521734393368359 -0.8133219481055733 -0.40077739013365815 0.7432215917440619
Ni 6.917643256758496 1.0220373349691403 8.214261591903519 -0.8207719766257154 -0.6511110496600464 0.8705649888884427
Ni -0.08896398263104914 2.0378796116522992 4.25518854667434 0.4819861977035054 -0.36952100322253784 -0.8083838873740078
Ni 7.505455793114983 6.339983988291218 11.13561726905161 -0.7426652050199597 -0.020883271206912423 0.10823547267033619
Ni 4.225490007969938 8.144209566551146 12.706865391607156 0.4910084558067737 1.0613542131922948 -0.6425148233506032
Ni 8.72325881094886 1.2843193494453198 6.820731557449711 1.4950358102531414 -0.12014122296898663 -0.01235492202092711
Ni 7.6960573932182985 0.34853784532753196 5.078138064253618 -0.7195203914723801 -0.27784163513866983 -2.500161282859694
Ni 9.135474123139845 6.016138006776934 5.379804264281908 -2.2267871965740746 -3.0033981624118598 3.455878637346764
Ni 3.3356844891644286 3.80562522559225 0.8937324309374561 -0.36269909520469795 -0.15115489774168162 1.0066282824043244
Ni 1.6054314047917921 4.438745454197772 5.029314009054739 0.9850541557779746 -1.5962907378405864 0.5941050645886478
Ni 1.4928433544265043 6.608728010073131 4.026638762642408 0.6016646221034606 2.6280314990418225 -1.5382568257253055
Ni 3.472638541436095 7.374227337060078 10.47886652911482 0.7102837033654607 0.2363370881369801 -0.3639671632838441
Ni 6.671037593338819 6.291012650874545 3.1893936647984513 2.7405925956707056 0.7186045645263301 -2.213992358802251
Ni 6.916989691917032 8.64395654180513 12.267118430341071 0.10526507718810259 -1.5068708552148564 0.7880318060802171
P 3.268174002582872 7.385835016850007 8.337037889684742 0.7837447486690889 -0.8445780779063777 -1.113520610783205
P 7.060037545949947 7.078770003025686 0.9931387228101358 -0.23332401234226915 1.9442273300241288 -0.5225947152534871
P 7.051688485228721 2.9667609438664146 9.574891540443616 0.30329015711876156 0.6426287232206481 0.880647055714793
P 2.776444703060076 6.119143507846968 0.7686898280299203 -1.2183156903134245 -0.6892541363886711 -0.4243184106783919
P 6.421670388335495 2.178083077854057 6.398646495638769 1.188950606887746 -0.5880822554333356 -0.8850354145904757
P 1.546665799891784 0.6469546314257322 7.532235382365469 -1.9437596463590912 2.167096465581661 0.19734116648975691
P 5.334966954615955 6.762665543084227 11.475276758187714 1.2243086746720657 -0.8629270127272105 -0.002575988257292338
P 0.8105547984380087 7.723718834747829 10.644647393464316 -0.3619583603839315 1.8999351929749733 -0.053218493004508344
Ni 1.121986730019937 4.693322767655576 1.1319549746230415 0.29489190575273727 -0.022058265351620077 -0.5333948911927846
Ni 7.862458683910254 3.507654888716739 5.235013877509713 0.3250674008948531 1.4700583143721973 0.6092275220523831
Ni 3.061905256561665 8.01191331441723 1.714152376426113 -2.004090839148981 0.8165322275127551 -1.5699562137111154
Ni 0.11425970353725559 8.135151710156784 6.082390150910209 -0.9231682169064552 2.209104434582331 0.5932481159049912
Ni 5.546482629646091 3.363981085258198 11.283533720896493 -0.2052308536504788 0.5894431403366042 0.9386102624931383
Ni 3.697372795513288 3.0851298212801366 3.4490255198681905 0.8396644426548442 1.1056432649176573 1.1976517342061697
Ni 0.9404245760337595 2.832577638317007 12.99112467451986 -0.11504529650331799 0.12787150173370881 -1.9183972563349025
Ni 7.489346800543709 2.8286286338523916 0.491230381010017 -0.13411593998152385 0.016881092026054798 -0.8727481125826906
Ni 5.983312482485984 6.603158901212776 9.298540392112617 -0.7040356655732198 0.7486157661764398 -0.2693266556891233
Ni 7.769275065739392 8.308852675768179 9.771013462172641 0.5495524747892536 0.4958323595579783 -0.19822562597723925
Ni 6.37452166836403 5.130520826039956 12.910463726916976 -0.2170586995233423 -0.2996764716255742 0.03588025883637691
Ni 5.137387859444625 6.739164824207391 6.680279552505425 -1.272480606391602 0.25989404952131373 1.453292407767768
Ni 8.852600213588271 7.337167449007535 12.910167321453665 -0.3783871953639161 -0.3192222549679857 -0.025016062428363368
Ni 3.434262318562014 6.167498100976626 5.114245220459801 1.4486338259498341 -0.3625941941957175 0.14537737182795607
Ni 6.999762298317545 7.18899233276765 5.340882176688127 -0.37586802848648815 0.766573379096125 0.5994696713346708
Ni 3.472795028792502 4.530686378655992 7.569689250350612 -0.7734112279535648 0.11409784498838414 -0.5443362206956367
Ni 5.30126694215685 8.650676292992003 1.1721068687354077 0.711462297054594 0.539373991594355 1.468634180331161
Ni 0.03773554522667495 4.93778363377862 3.3070776798994292 -0.2983757505362797 -0.37245386059861657 0.09662797033839488
Ni 5.728007963077819 9.229992486409468 6.270939925616876 0.12819726050424374 -0.8619147694126124 0.4900489201069818
Ni 0.45405358769709997 2.0354034293656293 1.5856228670122923 -1.0533627103463858 1.300257005173922 2.2940927637992683
Ni 0.6151757313949838 7.3304016721276 1.5233252504267998 0.17260638274723822 -2.1354431003424383 1.018735864301136
Ni 2.879588281209291 5.244986724682124 2.8511499259808946 0.6150014484216828 0.2209786034030388 -0.3588699512665948
Ni 4.99113661717468 2.3089065078100273 9.237913508185231 0.8926281393360692 -0.1115370262397434 2.10743350250339
Ni 7.994966654232249 3.759691583917588 11.411915027578658 -0.15909909228942276 -1.5219413763947338 -1.1388308074132194
P 3.4202152770398633 3.148801765060424 5.746234137529889 -0.7885288003212936 0.4970047825995247 -0.10465109775318751
P 2.70206718307385 8.403987783324817 3.9155971755639625 -0.18623940014964052 0.456720224047865 0.5877400416025684
P 5.632532265392531 0.2870585655646602 3.760217197332342 2.0238230274705855 -2.0462970402033855 -1.5351010537051433
P 8.012603699813141 3.4336823948294484 2.490109661390331 -0.6495174799206813 -1.3946422022247271 1.2975766301282814
P 8.578802570708284 0.9992085912109919 13.32081407802514 -1.4179466812786226 0.13510504336767054 0.5681916871569956
P 5.21116704542106 3.258149606634233 13.610071751204245 0.7058791465398617 1.1590044541476168 -1.7403486195261706
P 8.536744292389342 7.307526902676391 3.877388486212623 0.7972191290064399 1.9119561286952491 -1.7908340298702319
P 1.556404836543446 2.8559218698374362 3.2778154647652444 1.207755398299075 1.1318770018032056 -0.3426252072729583
Ni 4.521297137271593 7.352015337588944 3.197881723112721 1.3671365406052907 0.3164405784577905 1.9635108608440894
Ni 1.8965807339556948 5.896195050660534 9.285041056337889 0.6258260498410125 -0.6391204529570734 -0.9907658614507711
Ni 4.59709224860409 9.145388057425137 8.70860054822286 1.783018133370239 -0.6503787994797121 2.6422545846197396
Ni 3.3209470622463657 2.78269499217773 12.13615047970889 -0.026935390938263287 -1.3470171441475964 -0.47639893342371503
Ni 5.642740764113412 4.068882984761317 5.708914664568484 -1.8453465590958154 0.9314921633911184 0.5572501005438274
Ni 5.642584276757006 4.425351977517084 8.430335651574394 0.5794389779360408 0.12071509319458566 -0.1646030528267875
Ni 2.4514941049123338 0.421004378537874 11.362254225279933 0.39554776630360267 0.724358950511604 0.1047148611115874
Ni 8.541346861695418 6.100254563414822 8.914610629849065 0.8489201569251572 0.37825426933047757 0.7951524762853983
Ni 5.854210413450487 4.039334489816294 2.071217862163947 -0.20897875072868524 1.330952891595882 0.13084318276752305
Ni 3.4401628124124066 5.170765692052305 12.403487956310865 0.7155997162617354 0.9629313557370061 -1.320743555163048
Ni 5.672675874880146 1.2434025083142835 13.070748203001154 -0.29435737340550594 -0.014946336897187162 -1.1057160271371214
Ni 1.785051274530805 6.776758610299439 6.71545606919792 1.366063105035454 -1.780990561417249 0.43494992225030893
Ni 8.087579553809157 5.236251048139187 1.2874306862962288 -0.8881767884329348 0.6110224091692767 -0.7716322816762711
Ni 1.7903350240941827 0.728818690645225 5.303778103970246 -0.7703734695685056 0.04993879381197206 -0.5525645221427
Ni 4.833682721213741 1.848483884707176 1.7244188675202514 0.5138964161485408 -0.8036962520903513 0.5071413568128944
Ni 4.94977792939026 6.352843566932401 0.9889844437544695 -0.0322082093014284 -0.891532078058413 0.3206232490805704
Ni 2.785907585553373 1.0936072876786584 2.6177223389983815 -1.0168723287298358 -0.5485458879016101 0.2932386864200305
Ni 4.40373831205574 1.8757495052763844 7.1950557575714775 -0.22305425498514486 1.4280760564031407 -1.341300296268477
Ni 9.110169197095027 0.5629292056601052 11.384322624588718 0.8779039457520171 -1.0765764294586877 0.46931682976595296
Ni 6.43944551099557 2.2776550622217555 3.6418998686948476 0.24822072694844347 -0.06418116266359915 0.39276249024898163
Ni 1.1871775216712306 0.1519915667084857 0.6326746998966937 0.8331898906740941 -0.670617238013774 -1.6481786849591293
Ni 6.743758188374857 1.1830904401274331 10.816046153908811 0.31974573157162356 0.4135480595357651 -0.7845438475316165
Ni 7.431308401594062 0.26964980742134953 1.5713420149693926 0.8834894102595945 -0.08954920911474255 0.008205418628927803
Ni 8.956194843529483 1.7122570383858702 9.453071656564196 0.004064914097992999 -1.600233010317786 -1.1481680256537452
P 0.5310978363392674 4.876670718532512 7.464023464221666 0.4575450339420056 0.5481303976307463 -1.3079662008927215
P 4.637686909883701 0.7381029934494462 10.957831983437998 -0.6604091871325206 -0.21856022376953327 -0.287459360734092
P 3.2703464152953403 0.8107508678904476 0.41972578478464545 0.475987042697277 -0.25550671908689543 -0.30292506046985895
P 1.4615827036996203 2.431086312609182 10.769821629854006 -0.6095067438556987 0.0018208552588226707 0.4868188432054584
P 5.14005734964215 5.263995335916227 3.887762677428523 -2.817958375345379 -1.668113219099527 1.1268427818134077
P 8.908236071360147 4.935003681917748 12.749411542272545 -0.04868075303515487 0.3919939875140733 3.628173145280539
P 7.258426693319147 8.064088040070933 7.610444081042074 -0.08753295001566215 -0.7811972996568869 -0.29524800354057534
P 4.039675079944945 4.391182502988759 9.9301924011095 -0.8155840046668728 0.06967072502326065 -0.34239663620192
