# total energy = -340885.5069429773 ev
CRYSTAL
PRIMVEC
9.15569648780677 0.00000000000000 0.00000000000000
0.00000000000000 9.15569648780677 0.00000000000000
0.00000000000000 0.00000000000000 13.40028728189341
PRIMCOORD
 96 1
Ni 6.88551410621055 2.1774718379805207 11.900433348361522 0.5067464353673208 0.7274625291375922 0.4624075042406295
Ni 4.64985781679951 0.35451955637001403 6.196306232148493 -0.09667013643023996 1.6065417261446333 -0.4312362208441476
Ni 2.8124834820193176 2.0642524947248466 4.915385834064195 0.5789445547981256 -1.2339760225585006 -0.7486389061048914
Ni 3.343669527439374 4.450437590740006 4.978662683903157 -0.08266765150356085 -0.08225910321123253 1.2135925738061422
Ni 3.9439719259434587 3.0810658396454853 2.3262628933837717 0.11546772875271727 -0.8897171363368612 0.28604833931917834
Ni 5.181291066025802 4.886724841655368 3.192417420809605 0.009592528784441546 -0.5410140983009393 -1.103587153719577
Ni 5.303812596953137 4.073973660933537 0.2955596174436383 0.21310819951602655 -1.1102321698399202 -0.805967050402399
Ni 5.855956031724014 8.424220464576111 12.814668100530428 0.2768288776034393 -0.5362534436875023 1.830705669254189
Ni 2.5789399750028426 5.755408172462021 11.706464424014328 -0.5584086396283029 -0.6788221424220696 -0.19104453484776773
Ni 1.0341725455362583 7.9210050720467295 11.512869967655098 1.519882436983176 -1.336830690532898 0.4150675815040852
Ni 0.977013532116788 0.363803432648621 4.903982414039535 -0.8841923498638902 -0.45402133705946324 -1.9152378847703144
Ni 8.55722526802712 3.161434543761473 1.531036631384704 0.9521558623880569 -1.604343947162366 0.641404878115876
Ni 1.5507277879058083 1.2580110142338736 2.6261613954116627 0.09042389841021202 0.9784284229313407 0.40529430416740525
Ni 2.094512071747328 6.950290659140673 0.3542705214244735 0.39383798270134757 1.1741449093334813 0.5694062762903871
Ni 7.485670013570199 4.332301638449212 3.9159124627964697 1.2256731591197603 -0.5710602669540424 -0.17199343175358767
Ni 7.77836847584908 4.392335540578231 12.998975933902093 0.20219952302332272 0.2279789459802719 -0.46811303926583897
Ni 8.436956038445484 0.2925638735399301 6.569008086251925 -1.4670593796448734 -0.22163320626790217 1.0786718785351357
Ni 7.439223165087583 0.8742655589793022 0.9580493378999453 -0.671626910225211 -0.3689466187763065 -0.3202332127310033
Ni 2.1796600494505274 6.783254131697966 9.514753646794665 -0.6261785480844249 0.7715939722391679 0.14468445952598952
Ni 0.27841740683571353 5.379502740143713 1.4479413608429084 0.29798082909070617 0.2376900026204487 1.4207872360512113
Ni 6.718147973692863 2.1935492410823287 7.118580601437957 -0.6668212613064516 -0.24816184868604999 0.8823797221351836
Ni 3.1844977433135546 4.900961949755203 0.7690785082869638 -0.20694089436305008 -0.04070364836694926 -0.3911519512287522
Ni 6.148910853505656 5.98461187932459 5.086414245192772 -0.2989061691184529 0.8896937392980936 1.0306719536170896
Ni 5.555823143865027 3.381903716137069 9.395209548377984 0.4537236033133863 0.25603970877223003 0.04553706519985061
P 0.4495584330315756 6.128246446443708 12.890781236900562 -1.6962097202254272 -0.6185719393817605 -2.2522318618994244
P 4.433069234427858 6.109651226796911 12.87964607878415 0.3619143945198735 1.1257081539883322 0.027834505713764966
P 2.4966211075265563 8.869141537316647 1.4738712089776644 2.6137672758133244 0.07403183020543379 0.26084124392593144
P 6.560523502280145 8.49765830642099 6.192527676191706 0.09167499720849373 -0.7397428891668422 -0.6076308669892245
P 5.006444729445372 1.956755461798689 13.025360820154255 -0.610161089610246 -0.9087278731114092 0.6730096495053506
P 4.235763974266144 6.3043837362344775 8.885998090192922 0.05831673346302215 0.19240696241293315 0.22949049752879186
P 4.744985503717386 1.5212006666055053 3.8106530821015663 0.1494759673773619 -0.5097204303939802 0.2958015620512003
P 0.2438665548509217 6.153772528361613 3.7708541848673685 0.0031488300416268353 -1.5569993964401316 0.10424074968864629
Ni 1.068716988533481 7.781783550653734 2.6436625093234545 0.24033721043530865 -0.3377282841919732 -0.11343835702751431
Ni 2.1009759934955494 6.488111098446316 5.071794428978099 -0.2985801532376019 1.21669152444644 0.28101360510874834
Ni 6.467254421757296 6.321495733043862 9.64182830560499 -0.7208481091448682 -0.3640039300590505 -0.2141996328079924
Ni 8.935456247263343 2.711386280965691 10.498026013057466 -2.1786353194591963 -2.0087144539639215 -0.16864971209233537
Ni 2.4746657472542686 5.516261379170883 7.464710793080074 -0.28214951848540437 -0.20627600708554153 -1.3378925561385087
Ni 0.8936591553632719 0.23836581237736448 9.52047504155453 -0.3546515423098731 -0.37399189450969783 -0.353169815558024
Ni 1.6313620072210857 1.6160170598414554 11.628769183284291 0.1659235714104239 -2.4032445776362867 1.1347478955930972
Ni 4.0558270704165755 7.251961704016233 1.6817632010338108 0.49387780693476874 -0.01491574076956786 0.5856402216507463
Ni 5.984584412235008 8.48795326810213 8.349692179274841 -0.551296968284186 0.9576485100715119 0.710176745473951
Ni 7.176756812741602 1.2366416185393287 4.843400085688535 -2.2664719167582064 -1.2050459697877118 -0.6173447518428787
Ni 0.8285557440671277 7.56276097832944 6.8989098057995335 0.835347046226413 0.09071134774364378 1.5106295509263403
Ni 5.490543027625907 5.114170654784711 7.487450796544744 -0.3760865722551974 -1.6300796613655735 0.01513994096523199
Ni 8.520272876843237 7.547580833487299 9.634578825094733 -0.06365460073616779 1.5637657686296875 0.5262986464676355
Ni 5.220294333231784 0.7194793534900237 11.044597290921873 -1.3959061565388151 0.7146970019418079 -1.008338837337528
Ni 8.483347952748934 7.435744000407237 5.2107550130200675 -1.1014474816687547 -0.13596739136796585 -0.8943888307809178
Ni 7.253829466107788 6.728045281638794 7.3117996742395714 0.8727614823191292 -0.2711629375669136 -0.27610022696753095
Ni 2.5713682139748273 5.304755633695441 2.979018277292332 -0.9709819939556245 0.37341571029125364 -0.6833760803413392
Ni 3.208687093538485 4.31049276932136 9.322834682899918 0.2545494973799487 0.11730786728524958 0.6273198607777196
Ni 0.8203119549140137 3.5543878830134754 3.9209105575306826 0.6901668780109275 0.6484201330914446 -1.062590913812873
Ni 0.7913158640122897 9.243133429060764 0.37011628540414315 -0.3071159586227549 -0.717398717143687 -0.6490582808960756
Ni 0.876104938411622 3.7719180768038316 8.600692852859778 0.6657051454241374 0.1579914610475408 -1.4278886229826828
Ni 5.312574598529692 3.247141018952833 5.171385517952997 0.3813827876571303 -0.8580126061447287 -0.22469076214730335
Ni 4.46692700018554 7.101854059452368 6.79919877720013 0.2614457102791497 -0.4590956662585771 -1.6589585491834529
Ni 8.139551548151609 7.774779442810407 0.7217023566068341 0.39933808658397035 -1.2896712592382757 -0.27822884327475955
P 0.020527071614040153 6.1157489206840445 8.392090378753117 1.3103953791595047 -2.385871376465162 -0.9931292194766251
P 8.737684046578739 1.7065760541922455 8.324177999762421 0.43776965108729127 0.9490995920602364 -0.5393979028537549
P 1.7165099849242853 3.4125203653241125 10.7034258245189 2.407079892221977 2.745492346965168 -0.4560211410983114
P 4.126573137482449 6.457631784707181 4.09968377235164 -0.03731236329721316 1.2283586763717231 0.6024827471293818
P 7.168168769399064 4.2008441477113045 10.751237787353727 -0.600275712175734 0.46287544501598343 0.26018252729601
P 6.752994554675485 8.350086789795164 10.852852285261141 -1.0725130580225917 -0.42250758272189815 -1.7961135331016163
P 2.5694272063110555 8.710189489907481 6.017787545690993 0.5346048523404857 -0.801816004348503 0.21813239220349528
P 6.8707368120156085 4.466826287523739 1.7941777585647414 0.45322840884452265 -0.8570504993417757 0.11750249979455893
Ni 2.6136034420549197 1.91757823635869 0.41838603306533007 1.2411931091322301 -0.1491437808489238 0.5242754453900197
Ni 1.2779795883597531 1.0406822457671159 7.107861111943881 2.1496031938929043 1.7121140501605097 1.209846990720781
Ni 7.0949781313604205 1.3498975845811116 9.523905681043281 -0.9834868112908547 -0.7687300204278115 0.5739586715477599
Ni 2.533124869580605 1.9404308548906455 9.24160168103176 1.249222664304926 -0.6507528949896794 -0.004733143809611204
Ni 6.551605853862627 2.1611380753759497 2.675166345503986 -0.6100299633490204 1.176928128505573 0.4782352153015055
Ni 4.446308371606227 7.595703174434398 10.978601199214323 -0.42579165278980863 -1.0424733171273917 -0.9002599448497141
Ni 7.675888764619842 6.63103152123631 11.792332955034219 0.260418554566216 -0.2083593719771315 0.9405108219499609
Ni 7.726208472733473 4.266417246239295 8.4340198065692 -0.15695813468702002 0.2940493552467839 -0.281201038529206
Ni 3.3048676855569914 8.939246705625614 12.760932402042489 0.2841187263966332 0.27021600027261206 -0.24601780575985374
Ni 0.10768655584427121 4.972019310503002 10.751104114184429 0.4531121949816326 2.1104519776147392 0.17146198473014987
Ni 8.638152469631269 2.688158278876119 5.661259229502906 1.8614010414555169 0.5193019034348283 1.0620414690673063
Ni 4.085885222115458 2.9292277684379733 11.294204467495364 -1.1509008512038759 -0.3585171959128664 0.4358721769542622
Ni 1.2499906240760241 3.7667359525694226 12.889589165212717 -1.0289390300863828 0.302627326723782 0.3862575992509283
Ni 3.3591151874808043 8.600495089814789 8.05859779502753 -1.0445389414071689 1.3214066426683437 2.1478003363562106
Ni 5.673574556901677 8.408042348812504 4.097740933548563 0.08055677580814513 0.012533613690636478 -0.27988694770347283
Ni 3.2296811056754136 8.58164351066523 3.873755058136859 -0.06378392722518048 0.5237429699253173 -0.1006787433690008
Ni 3.635479887155114 2.8777269754723283 7.087813798827867 0.6289429982034394 0.4548633733447844 0.6050055135512354
Ni 4.885690247947791 5.135695697320218 11.017595310723777 0.6956271297945504 -0.16977739793887534 -0.11916111844390445
Ni 8.161909759071094 8.703670633980096 3.1245984299234855 -0.5750835291808225 1.9137978098896782 0.11278426838328318
Ni 4.785032520327471 0.6018790094460723 1.5056964101063013 -0.7466833250404172 0.6802187656592801 -0.06546208625855178
Ni 6.235734323673339 6.211288613945645 0.857633320667944 -0.9362173367809294 0.9154693056003007 -2.0216920971705115
Ni 8.489775251711047 0.17096432125288658 11.547402508246835 -0.6492950794972302 1.0046981552611471 0.20214270164345832
Ni 0.15769588584563105 5.09796507193152 6.134182084502308 -0.2933592711582948 0.09283970694055624 0.1817451118237128
Ni 7.29491107642545 6.561979258027973 2.9011353447834862 0.566902793142243 -0.9031912595638962 0.837848215381712
P 8.727374732289084 1.7413768566922305 3.399893744243415 -0.9250692905839101 0.04827143341187815 0.2840559914794979
P 1.8694558954115916 3.4841453792565993 1.7912699093476945 -1.0400410535368154 -0.20614128127989012 0.186450230608866
P 4.697549840009829 1.6127850989673447 8.56243485935111 0.7427402812322692 -1.3388366652193329 -0.40735272935833067
P 8.884047011262972 1.6940235942534188 13.054117947376616 -0.162230695939869 3.161098831691859 -1.0671885604858846
P 6.182731996477228 8.171211946742755 1.8643415233314833 1.4171372980034498 0.17337642814404336 -0.35748926886898436
P 1.710860920166987 3.4071093486765216 6.257223658992389 -0.6979827745109205 0.6550502368134525 0.0326003025335245
P 7.072967836908971 4.164825637573198 6.090913178284292 0.1156543908422266 0.44642449854881183 1.1933523354998672
P 2.8452883426763678 9.139216273476752 10.536887366967276 -0.33124627601205536 -0.487459819223567 -0.16222246840975288
