# total energy = -340851.7619865237 ev
CRYSTAL
PRIMVEC
9.46772573218740 0.00000000000000 0.00000000000000

0.00000000000000 9.46772573218740 0.00000000000000

0.00000000000000 0.00000000000000 13.85697362143511

PRIMCOORD
 96 1
Ni 1.6114921522887815 3.617674860568226 4.474500264543773 -0.7702734536555313 0.29049660489851903 1.8291786910867014
Ni 7.421873388464509 1.5569864544659489 6.387565995364971 1.1604558418821629 -0.033408143146800524 2.0380108889351933
Ni 5.533223029112048 1.3155499771027295 2.146708376249772 0.6554983800944647 0.3390117788900871 -0.6967617576196258
Ni 8.965008559985382 6.084566577316814 3.4005846402749067 1.4723195996025482 0.8096064469271992 0.27460744447208835
Ni 3.2188374406473215 2.477798536948675 11.169732320037303 -0.3761109977352297 1.2966371490331476 0.7329780596391827
Ni 8.917120802544373 8.862018637991849 11.71300936580242 -0.9627765753266968 0.4197996968724318 0.4051341244404571
Ni 2.0364320924281243 1.2034710382757898 0.7798035604931239 0.3908601310199462 -0.24347215651986456 0.5196037509459632
Ni 0.996449744443228 7.943251584296639 7.08434990803821 -1.936696825975039 -1.3079605444657667 -0.9567205989406041
Ni 5.338888487942782 0.6695168621730214 5.991658836600253 -0.3688484026355454 1.0063007238615767 0.2360092724839161
Ni 5.954735652487128 7.200508489941728 9.225640851546238 -0.6976788701172565 -1.117038394128476 1.0289675693314733
Ni 4.799161839378215 6.91777379234172 13.268939222061485 -0.06365151541237424 1.23796945998861 -1.25250184927683
Ni 8.07924599866648 6.7111406752697516 7.659525615798236 0.15576642837176397 -0.8498174719284461 0.29083881872928624
Ni 7.152137878481445 3.197885363301147 10.695103860996833 0.31284154825262256 0.27206308078367986 0.7518260455836213
Ni 0.6634205934865316 2.734856761994311 9.21260095270806 0.6830742328302043 -2.8554093211029854 0.1146046094214736
Ni 9.44028839856558 4.781921110572347 9.060493415683247 -1.6494256699923528 1.4577162478670767 0.4573771409055736
Ni 6.398431157571239 2.242033227380466 8.494020441541208 -0.233153805312992 0.1338634576510856 -0.12363715193738707
Ni -0.0955236733739252 0.5812804973997969 -0.033600959105998425 -0.002299594667454104 0.2621293666097356 1.1927951774448167
Ni 2.3388596598338465 7.562327101718239 2.410184772661414 -1.1577091323749609 3.112431448393143 1.950394120956473
Ni 1.83053745797387 2.8918316568879305 12.997245786368891 -0.7546234058231004 2.099393920028365 1.1228583432443628
Ni 4.080968558199369 2.16347950585258 7.606730736039775 0.2313841150070789 0.5257841687250622 -1.386948176014579
Ni 1.78802736882596 8.765211140990205 4.5142552454640565 0.6492804242092108 0.1361147155791075 -0.5312773306291495
Ni 1.9656892447414462 5.002452849218733 11.123699290093862 -1.5159010837379248 -1.7506895964408624 0.3134645265486021
Ni 0.5782394638509532 5.940922240445524 12.744147911053895 0.2194606240966156 -0.6682708492687846 1.1099069252900176
Ni 3.919458622614915 0.07716669968820516 2.9055305094465296 -1.4736203206918428 -1.1062377039685465 0.8101003558444821
P 4.509856540025723 7.817349765702227 7.386999967001834 3.0745372444505303 -2.2636791845044173 0.06072534290451477
P 3.3368526435935797 6.658083539504743 3.8359703223645587 1.9393388915835763 0.22143240311100573 3.3021582928707516
P 2.7462653716654097 6.877479151046952 12.015104616030172 -0.19829324599038106 -0.052116261079265085 1.4669066561170931
P 1.690112147897745 5.957755857039062 8.795340285020359 1.2961620091689419 0.2104566208257924 0.020158477225745926
P 9.320531134059586 3.9678955081562757 11.372016910618038 0.5116040205699383 -0.20464798456381528 0.0820431305456845
P 7.689677482370475 3.8048991396105247 8.005589931730176 2.068126477373651 -0.0679840813494571 -1.5106336646913985
P 0.7614693093494873 9.585125668896254 2.2515918434169317 -0.008944867898113627 -1.8515771133865595 -0.5057005106013097
P 5.082019617414509 8.836616729487652 10.576169341868779 -0.7783485173541821 1.5198394995603826 -2.011776894939329
Ni 6.065820480097914 9.115725288080167 8.302849067584486 0.2721371285547249 2.461413215557219 -1.3527116234292123
Ni 8.527968866186567 5.220617656398085 1.351440232323642 0.1016652756519862 0.29283836565781823 -2.0595996708495625
Ni 1.2501469268056775 8.516191015206612 12.949577680168023 2.6883724620237253 -1.1286618373000175 -0.2938657784810681
Ni 5.071358958086993 8.22663008725568 4.901877197321573 -1.898233636902834 0.37755724326345297 -0.5902728353267512
Ni 1.8148967748397171 1.6917121935694592 3.2062680877847907 0.2919366797791553 -0.3042242388972567 0.9090022098187184
Ni 8.486547565513492 3.5255160169678343 13.392225107998533 -0.7363947986302156 0.31373757770433064 -1.0380137386941413
Ni 0.11544944923599458 2.9979459284179475 6.830338397176939 -0.4321607895409461 2.7418264680778073 -0.3112423220863027
Ni 8.50682743432303 4.759501535716613 5.18443390167526 1.991566224319409 0.7790164899554842 2.124147215713645
Ni 9.108738106389485 1.5799930283255084 11.022737354981281 1.9845825939127242 1.535356621359375 1.1633879279272932
Ni 9.040267512911159 9.093315180950299 5.118779956642703 1.0457733280349022 1.1221165799823318 -1.5432113415171036
Ni 0.19415749469553154 2.658830923273216 1.310034080011956 2.3535281842477658 2.5109547739307723 -1.3350741128531072
Ni 5.647081900402196 3.1969859293436746 13.349531344968781 1.4472536577728559 0.20226560037456778 0.37123335792795426
Ni 1.0427563916642588 7.283445768546559 10.62838195648635 -0.4491174719999427 -0.4530391756518521 -0.4777677887467836
Ni 3.0114753086835075 8.898582995294571 10.903983669417308 -0.6539780867951962 1.1324112770401207 0.9355143971766341
Ni 2.791000376392331 7.110508287839271 6.015367915719227 0.7002625716840327 -2.5208247247463165 -2.504701593932209
Ni 8.363779564181433 8.265504569670227 2.9559972754140174 1.766211089115229 1.0489064743472452 0.2738173444706252
Ni 6.235680949898059 4.968293294286514 9.005564510514109 -0.9512166384032391 -1.0207891472857389 -0.052441505629167745
Ni 8.195831575006649 7.133391781262544 13.178619957597274 -1.5111553415228232 0.06063998227956007 0.8930510858061006
Ni 4.508748816099152 5.726175282304566 1.306492203764688 -0.7740267500503766 -2.1515950275119526 1.9859889873419472
Ni 8.2866649369855 8.223458399089855 9.650620556134227 -0.32155835930033005 -1.423452184477884 -1.3099660049315698
Ni 7.230331826426342 0.7632549224482169 10.3327986081107 -2.714286610786325 -0.500582472648454 0.6951561036954027
Ni 0.9805723681623716 9.027476615263312 8.944856505475064 -1.0631305883664273 2.572115918821125 1.7781669759255245
Ni 6.480469002218597 7.946603159253957 11.585219682669903 3.26238461251724 -2.479028614646137 -0.3881856695115766
Ni 7.3534406658896545 9.020489433572632 1.0890583050223557 1.1036681434691573 1.748267874373247 -1.4098207097373785
P 6.6617475494157095 4.103757374363962 4.7784246794092455 -2.315064480954929 -1.2599585626651915 -0.9556847014769216
P 2.6302857297808 0.9165951573810603 8.484791302364954 -1.318188392841362 0.5583667306467738 1.7411274066737241
P 3.5164364678602964 9.0248067165685 0.6934446457595499 1.0711133494615876 -0.8196232077332529 0.4307469399125549
P 6.61842323584314 7.510453431686747 3.6538766039702 -0.7831307692341739 -0.5143869826317141 1.1268553802188979
P 6.518699679274111 5.89903702120491 14.566589516637926 1.865052007944543 -1.95483801566044 -2.7688683026869474
P 0.5097291059239805 6.6815066933025 5.338191663318888 -0.37682473597280264 0.5618986550594323 0.10088597428380044
P 1.194268408731966 4.96046348499357 1.6224160143954318 -0.059368571766304196 0.07366210557084088 -0.01964579925538552
P 2.929977124410632 3.5096102375093743 6.401312186552911 -0.23217575767043888 1.1765110955728126 -0.29439028352597046
Ni 3.9013373953033117 5.655858482281954 7.5379581221062555 -0.41709283946423004 0.1531981534239555 0.8839938606998388
Ni 5.865265643033285 7.5409584444338655 1.5856253784444598 -1.8367248788650756 2.5932987235463276 1.5287437440285478
Ni 3.1159611313642057 9.127219107284077 6.854532223860361 -1.389381210936104 2.9563140644398636 -0.44211327276796764
Ni 7.4901356919737365 1.3129747556665978 12.993019393541358 -1.7933318565914211 0.308695644405049 -0.41150660362570424
Ni 2.8818148029194472 7.742052941872978 8.898131384770663 0.6168017348552152 -0.9022458649314914 -0.5845590727714255
Ni 5.156843054950352 4.17150842067631 6.329644342048916 -0.22187000486905661 -2.3194656953464183 0.6776229799076459
Ni 3.862841621923489 5.957367680278469 10.42649974425501 2.040485318617615 -0.12808001820008907 -0.8570731250495949
Ni 2.4409501478699074 6.652402903983864 0.6238454993577421 0.5115963072604545 -1.8698301460594764 -4.924110182922869
Ni 7.382790616080862 8.251852108968382 6.034629057225355 -2.5223033661743726 -0.5563625557325516 0.8560300284970612
Ni 4.001070419598208 4.82568093953485 13.07065947952297 -1.4108344957138736 -1.4642504494411686 -0.9862636027050433
Ni 2.646892120953502 3.951317520161177 9.169893934862094 1.2851638582862255 -0.02352276571228852 -1.362954384203143
Ni 4.153907918287453 1.466787430120261 13.602670878277598 0.02469338898162199 -0.4031428050420412 -0.4446776910610341
Ni 6.630201086823096 5.397995500537527 2.936001438380524 0.05572197615265242 0.9834348750069966 0.23744317671696527
Ni 2.9956452710319916 4.789542629896193 3.0356473595974336 -2.1532135369519825 0.28368523840364046 -1.2859354463449273
Ni 0.26738751396776766 0.8322689633913741 6.902920823999795 0.9127745323769572 -1.4517039802347258 1.3299383342884386
Ni 8.472412250792372 1.3719681555509249 2.4476959025509513 -1.6150484780640637 -2.3614332980274555 1.566624064014089
Ni 5.64701562632112 6.118053923712394 5.302495496478272 0.5368517393931336 -0.3737563814601241 -0.3405320721893555
Ni 6.500805677383344 5.342808126452189 11.91839747692273 -0.021526561217866152 0.39164483170477066 0.2619337056591618
Ni 4.508067139836646 1.438696687469515 9.727456832189635 0.4654370350955726 -3.08434111791483 0.17250071040730938
Ni 5.682349179260986 9.074606954634872 13.200568986477363 -0.7390013830151273 1.5578496602555685 2.0106710634696596
Ni 0.34984099178073746 7.5198170125703285 1.1346529792581028 -1.4220676454255317 0.39204772357014417 0.09482305591917217
Ni 4.900712667039793 3.8899193179063447 3.122835647117056 1.6546429525272341 -2.301987336055997 -0.06652549452605962
Ni 6.988109527816068 1.8144707271756513 4.273296888257177 -0.7371224208248596 0.739100884707469 -1.3574689356085397
Ni 8.411885079317408 3.7048063417326396 3.08768008742351 -0.3846403753624795 -1.1589386339066878 0.6005191956451077
P 4.95518996168502 3.484501828507089 10.077276048200876 0.0835081451269852 1.0067702072988274 0.3565644430618698
P 8.149079944669815 0.6743501362287024 8.435058285152246 0.5875865467438397 -0.07707421657618338 -0.5894940481791977
P 6.957803337312179 2.625618140927811 1.3967830650512971 1.1836564483683423 0.8661565754081018 -1.2950718614285568
P 3.2685145982774073 0.9085968225676629 5.133080009793929 0.4799205734237283 0.34756069690136276 -1.893723921957939
P 7.790376214703921 6.050567973724354 10.206894895971114 -0.35992693177619944 0.9849957917362132 -0.05932614856414299
P 9.270143896989389 2.0741420445608916 4.810018480631201 -0.12759793635734798 0.03616770816980868 -0.13680659943980955
P 3.629282292482555 3.166585061581104 0.9857209174894616 0.3091481585614353 0.8169883412135671 -0.2252183525159992
P 1.7079114725298319 1.107165330745157 11.982333029710222 -0.8241540057240709 -1.6593724967924195 -0.2723559294337503
