# total energy = -381168.0339957001 ev
CRYSTAL
PRIMVEC
9.29591191682339 0.00000000000000 0.00000000000000

0.00000000000000 9.29591191682339 0.00000000000000

0.00000000000000 0.00000000000000 13.60550673544529

PRIMCOORD
 96 1
Ni 0.9692475692404465 8.269940858175406 6.847706281906627 0.5436805893895089 0.340718991389181 0.7875823772476243
Ni 6.45648503312222 6.002500574727387 4.4140615975539905 0.1707713864210285 0.9066496504261418 -2.3435294211638413
Ni 5.739324007747103 1.7426674545415528 8.973403427505094 -0.7215582478380154 -1.3288764686828276 0.3777585606409816
Ni 3.9087730003733783 1.5661566759105743 11.107998620149358 -0.5184308136837846 1.0342928381991285 -1.1866489553377628
Ni 3.678559737639221 2.562920144916541 5.1315479798520105 -0.1682758736926844 -0.7094396101976104 0.25220825084128173
Ni 1.5419222331103342 9.211626048089917 10.400171620096726 0.20135105898009836 0.18601391440239576 -0.7828286646127227
Ni 5.048953800995036 1.0283974578242319 3.8626578397123 -1.1382389394654915 -0.838750415481007 1.296792186553773
Ni 6.541951648812825 8.327147901133856 6.266968343895992 -0.8046118219260854 1.0363924010406342 -0.6292810982691486
Ni 9.13779791432716 5.678696069142129 6.977733781758042 0.6423816402068485 -0.3355253630033835 0.11036177498471961
Ni 9.005712299540582 2.101796426042005 0.2971838021533252 0.7883745341316165 0.08255889383983847 0.2614477671616787
Ni 5.589455313145847 2.9555794713001795 7.036727499018833 -0.6981717505932751 -0.436325719551913 0.11632390610542548
Ni 5.880603279583715 2.3984847560813094 2.3233170813874 -0.003537837949929391 0.618703065642986 -0.8983830395419753
Ni 1.8604373647203956 4.508275666514648 5.655781645857666 -0.06501959940449448 0.8744990338355261 2.008299992134322
Ni 1.8656430754868454 5.542241375676564 13.397097449159434 -0.5525601512673258 -0.8927304692418884 0.4607923372347096
Ni 1.5352942477951936 7.1110009069703635 4.7890298736525745 -0.7845369055530811 0.41114947739660157 0.890014612972622
Ni 1.7759561157105823 3.475267436297275 3.798263197531316 0.09145671055010056 -0.7516800069240603 -2.1480013966234233
Ni 1.549042901765871 4.61695417467637 11.002324550772844 -0.7220076766706082 -0.42687897231671645 1.803657921107778
Ni 5.429100829715028 6.952487014131969 0.524482796449479 0.031639481282151966 1.362952327320614 -2.0521594125214335
Ni 4.597851075345916 4.471984425742827 3.6273504171566877 -0.1357529613643146 -0.6186506151384958 -2.379425106619186
Ni 3.512571931486137 4.196434999780142 7.694104654606108 -1.0073425348625296 -0.170870373892738 -0.7257234349592986
Ni 2.4947718134364636 6.306662818081379 7.2113130942574335 0.20745871453973305 0.7465604263093079 -0.08647828349890267
Ni 2.0176033503067634 6.874224730305646 11.420367294690175 -0.03700563069007175 0.3742703449820651 -0.4820152511692279
Ni 8.435268654570601 7.498138461576733 5.5723935961088085 0.6394343846530665 -1.1019509036677344 -0.721475458316222
Ni 8.620731396537456 0.5060062415934157 11.588707896191451 0.5813585635562568 0.20770039823689393 3.084187365945785
P 0.3953579296613178 3.126057202989326 6.828698930470627 -0.4127625875199924 0.4178919383267577 0.46095251696165773
Ni 3.8887403098346294 8.234532729051466 10.532131740070188 -1.3005686228770699 1.5201585734626981 -0.9190071435502302
P 5.2667012456259625 9.036927972315114 0.026260022043114124 -0.17570121962247803 0.429427449770183 0.026840260121295714
Ni 1.405300213227277 5.787504720073011 2.8957007832090915 1.8018018417356454 -1.126471257406602 -0.7087194442021343
P 5.390002223494158 0.6975038896845196 6.926794972317123 -1.1793786469285947 1.0061333450457768 -0.18107713922241073
P 5.076274486606814 6.088125220923402 8.647564976356088 0.07909484655063798 0.8683587252657433 -0.3890217922596268
P 7.994753972783957 7.888418034467136 10.693234544423682 -0.23367291104125562 0.7772120897568937 -0.6618945134287955
Ni 5.755312976529769 0.13376259732634302 11.58783779882049 0.7571374304942057 0.31626857165630046 -0.7107493301479695
Ni 3.6911371066874468 3.8276754633617576 12.19604422744502 -1.9478762396306262 -0.9530410932064878 -2.330219848539129
Ni 7.825010618149363 3.2486330997150517 8.167385567302722 0.3338340913438896 -0.39588175260425373 0.43558601317241114
Ni 4.6433824527281855 6.32215910352365 11.387169733459558 -0.5734696477264833 -0.5466131896552715 0.9183003472911926
Ni 5.062414281691141 4.138019488250909 9.406671016231874 1.6707007773210452 -1.8334598349605584 1.092578461313899
Ni 3.085183077560613 4.734491687053139 1.738225867748321 0.2067855997321084 0.014211001393059398 -0.3417399764545276
Ni 4.457315476475938 6.969823890166663 2.513250227474944 0.45220305290380186 -0.9764527872622086 0.3392398357404932
Ni 0.14652681420743613 7.124796040501455 0.6719150324937941 -0.9978731619195137 -0.9084429948811387 -1.6942816499647788
Ni 7.889022268752528 0.6831500718372426 9.613188999066603 -1.65939306561771 -0.059381427282110634 -2.2287602611400454
Ni 7.473662325062336 1.1024951730373942 6.954740343220875 1.165217267826548 0.45971967299582117 0.12244698828402784
Ni 5.778404022143808 6.299588628986257 6.450779202285708 -0.8394721241383801 -0.3705167914769038 2.7746802813830342
Ni 8.229206171427936 7.876128838693482 8.286338847089723 0.42312001949491646 0.08622065896214183 -0.10963852366544988
Ni 0.45722222457332334 2.342941681385707 10.404743349659121 -0.312170747437843 -1.1303088859851371 0.9968943429460121
Ni 6.650221136842897 1.5312040464786976 13.595752019963196 0.5786079973943132 0.167353361878415 -0.2352590245814529
Ni 0.9533980391390235 6.395420186649347 9.142479335652132 -0.4477162207770418 0.5983080469264018 0.023147127540424653
Ni 7.509851310801245 6.674037263599405 1.8481723383181567 -0.672018746346991 0.5821890298773521 1.6132705602280344
Ni 3.3911580237707795 2.4736607970960938 2.413222495097612 0.6141223882508392 0.4017472102460952 0.08633250194965778
Ni 7.234794568178955 5.5741449459452355 8.633973423299613 -0.5994367612142063 0.6891595197923357 -0.9194115780775005
Ni 1.7137664638756736 7.720710484578708 2.0373432196148995 2.9726025171872417 0.5020387454790063 0.2560343094555913
Ni 8.347691866837167 0.026907947115295462 1.0969780492161658 -0.4728184151613083 -0.7092130960091012 0.3892488206687683
Ni 5.856629122321798 4.200739007074546 11.785974587321233 0.6644738441201976 -1.618334347904187 0.1307385388688587
Ni 3.1823904302119788 5.455538403678927 9.696427384630926 -0.11084719926157038 1.3236352748885463 -0.5646160539905954
Ni 0.4448475064085056 3.963962830409829 1.6642257596120298 -0.6276859858678867 -0.0076906837760383675 0.5989166270446782
Ni 3.5696860153237577 0.28026338297994696 1.7007019890343014 1.2763606581722986 -1.0198650928095727 1.7997547293986296
Ni 1.2871026910926187 0.49998063138125004 1.4651221962546594 -0.3895987478090193 1.7380366835635424 -0.784138641673398
P 3.189799272142087 8.132305583875308 3.5763707057026037 -0.8209833213055732 1.9807009994701308 1.4250555244092618
Ni 8.889225225229184 5.446028685618074 3.821636838872676 -1.159452597428629 0.6180494912193871 2.1785867256094478
P 7.181138563636192 3.66378853333942 0.97268519752872 1.0910154877021532 -1.5873579541273308 0.011464291885857675
Ni 8.088140705569232 3.2410848191037 12.063853568851904 0.17338105612973365 0.4673450507515629 1.2338919474851267
P 2.510426129384145 8.70669999148054 8.433128735609106 -0.8129000300768063 0.02291778513843795 0.09432014814082465
P 1.5421825186486566 1.8349944533493723 12.160779255367157 -0.30344030954338064 -1.7057719099925657 0.2365198935717475
P 6.951510943363259 2.4851784321668635 10.487587588551126 -0.05968713144798753 0.7306596959186513 0.125128648881249
Ni 4.525110563296863 2.515399442348521 0.2564202980783988 0.16940047421543084 -0.1255971038772353 0.5563034203598419
Ni 7.172288855333227 5.475050523141031 13.457928038647815 1.5363045870949412 -0.17977436125058716 -1.47714967400134
Ni 3.3108599351982924 1.875143497635616 8.068255820032602 -0.08032691918552619 -1.2375904793826364 0.3457843217272303
Ni 0.8575869324825158 3.9016430358057588 8.92088617219249 2.401135501713084 0.19047426416659455 -4.390667726321599
Ni 7.771633490969086 1.0131614579202834 3.3975266531388058 -1.2381545794162225 1.1813293428970622 -0.8078370137316022
Ni 2.932283915620317 7.691614279759087 0.10274306829676054 1.278488760258895 -1.45137693591261 -0.07942266220370192
Ni 6.052261592107396 8.090706377304125 9.505473547396674 1.1226613967422086 -0.6287056853816527 0.8620800913458831
Ni 8.630361961455389 4.650001142131242 10.203381809256802 -1.5354967464816653 0.736771465243344 1.4765189823958764
Ni 8.928444678307134 2.8811099196036993 4.756716353661046 -0.37542836984590827 0.3762110136482037 0.6222445031373413
Ni 4.575169049863527 8.060429591649969 7.796078021382401 -1.6230356100345982 0.4641211444976264 -0.7901804769921037
Ni 2.163260996734444 2.9628023949886284 0.2273408259005271 -0.5800820108366784 -0.33885751270041 0.583966176382433
Ni 0.4050526363726222 1.0162105170834896 8.30071962308204 1.074525203356614 0.2496176072959701 -0.8620322688270831
Ni 7.340396129441222 8.041763400187413 12.98704175290377 0.202362016743116 -0.32761382146579066 -0.3986582869081263
Ni 6.499655248835421 2.605095698036867 4.915955327641911 -0.9256161642263157 -1.0027389746522473 -0.519719193477905
Ni 9.164254080115224 8.01754754921134 3.2247639862596715 -0.2370073747311273 -0.13544057233021836 -0.16067517852729105
Ni 6.831203249185773 6.0448713420014535 11.004555569672752 1.6415339259491017 1.4284362679560367 -0.09609498065306031
Ni 3.7400521960679085 6.52208628469157 4.871505994426096 0.7837306076017019 -0.07690375243659013 0.5421045031516406
Ni 2.350359819227898 0.9058652518852959 3.94497128202437 -0.9912525712792025 -0.4049238082018639 -1.1078492714300405
Ni 3.322572784422804 0.5449310142583353 13.105776578756823 -0.840183805493424 0.9133725709722721 -1.5501803166357688
Ni 1.6321948353478226 1.456762382518466 6.204015497679073 0.39476975048699753 0.8326908395504886 0.4653473035952438
Ni 4.5615133550136795 4.552877452688623 5.680911284991495 0.47570267868763877 0.062400159503776406 2.399147010528145
Ni 5.990304338074561 9.239513784338756 2.079057695495911 0.7621461965627067 -1.1054051807649221 -0.6188087379829148
Ni 3.5482031625000694 9.254257100902308 5.696571178486425 0.788093769666404 -0.5809320175417995 0.7792939119865869
Ni 9.248242645784641 0.42175088324721804 5.02364289157559 0.428747650094339 -0.605554186965854 0.6021618734548533
Ni 7.344160973834815 3.9893964458687687 3.2508455267907927 -0.4699302949802358 0.21194734643870594 -1.1632508881287966
P 2.783521434556932 3.188367701681313 9.912509931407797 1.1036717430135832 -0.4184722363102599 -0.7241571189134431
Ni 5.508199745628816 4.959452759460432 1.5078304051373381 -0.02310187612478602 -1.688183507486841 0.5185354575824489
P 4.08242063808281 5.412033535130741 13.33966916349341 0.5008439538399568 1.6811345710598595 1.7514115622085515
Ni 1.1510105381982894 8.654178088211895 12.63735278012355 -0.7095319128011006 1.1316029222062125 0.9479495376161932
P 7.1964768185730525 8.286692091748874 3.7852972593580234 -1.715744704934561 -1.3245752702043123 0.6998100575276464
P 9.19491199816478 5.565973839224326 12.30554170546125 -0.37714612386796337 -0.08243625221904512 0.12044744135549579
P 0.4088658195090466 1.8594241103033544 2.929945993731456 0.9704991407819351 0.389332124411194 -0.3260626749285868
Ni 7.119283564636269 4.440192406419152 6.069036065461073 1.3950304388020813 0.525917608979133 0.19476852066657424
