# total energy = -340865.1080987255 ev
CRYSTAL
PRIMVEC
9.29074847882451 0.00000000000000 0.00000000000000

0.00000000000000 9.29074847882451 0.00000000000000

0.00000000000000 0.00000000000000 13.59794952200779

PRIMCOORD
 96 1
Ni 1.376182811816634 2.3867003492180547 12.596582457381848 -1.0817091226995628 1.161939882626857 -1.5738696898329088
Ni 8.315061849991132 3.1536980810476174 10.810940570550095 -0.0072212003387875645 0.17052378918659664 0.23160034478294306
Ni 0.8670981129364383 6.26779899253485 7.930527994707739 0.3574532734247263 -0.8655901613816706 0.9960039699212588
Ni 7.019736421253811 7.232791862914711 10.273359288264079 -1.3792721475265601 -0.2911308960484083 -0.24776692724047653
Ni 3.8995593603314567 0.49483454902761026 2.356117063727938 0.6461665611705775 1.204252784462455 -0.7613663809738888
Ni 8.305548123658463 6.063346783866189 4.033600703389998 -0.20218666750751632 0.42824499942630767 -1.2227454439500038
Ni 8.783250532688573 4.597341016791505 5.901183274561207 -1.5850483321575477 -1.201569324093021 0.8200451257620199
Ni 8.2540402146855 5.807507445953394 0.12491597000781106 1.9878836332614989 -1.1921652571703016 -0.2887688235741349
Ni 5.863149737951787 6.230152880132532 12.209475993874316 0.24588796505020882 -0.4047592575995416 -0.9704664877717868
Ni 5.641797657994918 3.1396040157676777 3.2003181273022063 -0.08454018593592537 -1.04281347407563 -0.3427481060040678
Ni 7.296015405584448 1.3285491449146878 3.8968325256843492 -0.4791685257490522 -1.392162373225667 0.4488580476909689
Ni 6.443886546424569 6.9797118772683255 0.6218288594461812 -0.7200055586389148 0.3352628533706162 -0.23432777101643515
Ni 6.751912017941464 3.036560325576633 7.2985229785699826 0.19583244315471435 -1.2064798740207607 -1.6613159936720356
Ni 5.631484927302278 3.968264444540525 9.009729247596972 0.2304646885166031 1.0647544971230953 1.5523966075607973
Ni 4.982972109457602 8.269537182969572 11.212107652643429 0.1811334463816429 1.1327308651630685 0.3541236948308611
Ni 1.8859847564711285 8.63091013163704 2.5727457272126113 2.3290499966007436 -0.32217516694872256 0.3259096942904903
Ni 3.007378084940976 3.9668522507880195 13.411195274616613 1.3183472870167297 -2.4409063538531184 -1.1102460537969912
Ni 4.58359070920132 4.853486949400566 4.316111921728402 0.19656289356283568 1.7236703875395412 0.5104871333566757
Ni 3.953575771364793 5.959355437341226 0.2661241963603175 -0.41319350440982383 0.23436839444638347 -0.8556924426519844
Ni 0.21994453157854962 8.33228689747235 4.662722800308 3.75858078317254 -1.514501375176921 -1.6773421938969626
Ni 2.6526944751011676 1.7354932143455726 6.399697889018866 -1.8847811109423538 -0.43059884437046486 -0.4144906259546926
Ni 7.132767665944484 1.5761475890217418 1.5904023842485133 1.2075499671564882 1.8968737804408298 -1.0397237794067127
Ni 6.713531936417779 2.1959148314042323 12.448378297505414 0.5218956323039333 0.042739962070687684 0.22594340360748183
Ni 0.3175141128289609 7.124387410913169 2.287828205045924 -0.5859042739454103 -1.741885110775355 -0.40972380069366854
P 1.8957957867516932 7.47339437349784 0.5050915352300188 0.33405237800228277 0.22525794750468303 0.9085419823528481
P 6.135535898714662 6.292456638713467 2.5110653778474212 -0.7917393368387913 -0.8697075259841538 2.391105371170592
P 2.7532389539802122 0.19729833242241662 8.084170958680991 0.10109269097796782 -0.7152965831990197 -1.0671327675472846
P 4.655779824049794 7.118274098484559 5.823226463123553 0.38886212675331094 0.7122207724871734 0.1048884105749742
P 6.517116225090677 4.01190308964262 5.247666459643509 0.2112022407425653 0.26304416511452117 0.19558818835439218
P 2.6292074632173916 6.742268221131591 4.071103738267391 0.42321540742220015 0.022348028677896998 -0.5554832384513917
P 0.10627594154957531 4.95365050759637 2.4839233855541996 -0.5118909556827378 -1.3537902012053717 0.3917877850405382
P 6.03383936703752 6.170376205108712 8.704835687356193 -0.5645538332940921 0.18908792534202917 -0.19057068053514278
Ni 1.5183870063945915 5.0699056419720385 0.8972419460285711 -2.0511615673845385 2.2518955616059286 -0.7946277141301799
Ni 3.6824252801353605 9.029771249984504 4.5088763689454066 -1.189982904807002 -1.0625726589804283 1.391904748688906
Ni 6.509934476599318 8.255582478915208 7.068785069132775 -0.8468041390234191 -0.8573310066966718 -0.9495130254485712
Ni 1.6950041329414995 6.596840136868638 12.036292727925606 -2.029440116547047 -0.4734493638770878 0.2656798029651553
Ni 5.958110477059411 8.243625285760771 3.914659613660057 0.3602375210380828 -0.5178633712160887 0.41142535676580755
Ni 3.9602093657022204 7.061005925521111 2.3028123240198775 0.34496851069415424 0.055724290145497575 1.7173603861611133
Ni 8.574440963033561 7.372654788902989 12.033954246560436 -0.1382376754593813 1.0309396054561795 -0.8684088617773883
Ni 5.468441584126492 4.174974305063521 13.574016568906314 0.8141696408178494 -0.23392385070979715 -0.2967032479298632
Ni 8.512778266090278 5.554278808333063 10.483937816409071 0.6283277332169437 -0.17245365921945782 0.1787289507052083
Ni 7.862147157616844 4.920352465432029 8.095008616656633 0.26215816296514205 0.8221786271652549 0.8670955422826034
Ni 3.7031250675076124 5.708468068310573 9.462418174785826 1.0158099489035926 1.040016628056783 -0.10579215333616619
Ni 1.7590452614679508 2.730374422237343 1.757466763319591 -1.2347177858205316 0.12523689232433916 -0.02610415328621956
Ni 2.660721681694357 4.6759500387648565 2.8642717586961215 0.7705156515733247 0.9880533476156145 0.49384566814525266
Ni 4.792140137901922 1.9416642114630076 0.01363881860972441 -0.6680805876348493 -0.8029143796190042 1.4934396694106151
Ni 8.323860188699177 7.862676730274034 8.485786783920679 1.0509762123920803 0.6106244023999097 1.0129022883384944
Ni 1.2849569535544516 1.749875292825037 8.638355737382156 3.570083440226658 1.1635823033262864 0.1577790879264186
Ni 3.7218923792185414 0.630954232496911 10.009518757853536 0.42543889743608015 0.2478859693168441 -1.2919695683541492
Ni 5.925472078029465 9.059863983960593 1.6638587571748926 0.2619789570748004 -0.9550331839358519 0.2930980470771081
Ni 1.2287757981504979 4.296042047095754 9.940889857781116 0.3205582001705899 -0.2768759287912909 -0.3775798689712723
Ni 4.568019414930273 8.24665406972996 8.561839921016961 0.8942559047474793 -1.0482778396243109 -0.2444566319203209
Ni 2.646051590015368 7.474806567250345 6.85850663216019 1.1188471652024408 0.2568539771434093 -0.2704404575785923
Ni 6.9951716825589125 0.18332783409582085 10.785866698844426 -0.06105033034410131 0.7996573061342873 -0.5531666745030731
Ni 1.0598699927521398 6.082457853266872 5.3568847812024165 0.9059227995624463 0.8191524387444215 -0.12282211223525943
Ni 8.623505405184757 0.6004954430349759 12.272680025972473 1.2188916174215525 0.9871082100935258 0.5501481993917235
P 3.6819793242135166 6.745473529319844 11.691815934246996 2.031164298327005 -1.4753709848343621 -0.2596791052970302
P 1.3950801940047672 0.9424628055783747 4.50683612060297 1.5768285153509167 0.9761581388399253 0.9506566521347111
P 6.814094996793566 8.869728818532792 13.284707309984302 0.42004189479022497 0.9233823897997904 -1.5445390591895916
P 0.3509227148989255 1.3878798640166632 0.5557344755295738 -0.9572281347046416 -0.6058069264066083 0.5068971020125722
P 6.453168004047943 4.249718375714225 11.456435753323628 1.2130593270104915 -0.7622341282908227 -0.2255230282406116
P 0.5991845184397224 7.81729142447805 10.154459077826973 -1.788567088212926 -1.0365718640412924 0.24191586777633822
P 3.8826037445530184 3.0208310885832654 1.802721069563533 0.5682233117258795 0.0511991485816344 -0.8965308168245849
P 8.874281285234948 7.297102423143943 6.5086988070658744 -0.9799574579813575 -0.7814826921077895 -0.6976930111846436
Ni 0.2695905745778162 0.8792206814118936 2.7021026749421173 -2.0043425501484706 0.6980498803034301 -0.2962795301288833
Ni 0.7077506294629333 9.201427116900899 7.05223638813302 1.4501422921745606 -0.3058178086366217 0.714681318212524
Ni 5.5580136891785035 2.1071138584670757 10.433475116627926 -0.3029507715014718 0.019867428347888363 -0.1870043033401231
Ni 3.1231965541431728 2.3563660557843007 3.7691200404166425 0.35044676019990617 -0.3194001753067467 1.3241793203174743
Ni 1.0988353914232463 3.706376829437724 4.407258808629424 0.029846651047787304 -0.2977013501770744 -0.937516000987695
Ni 0.10554104335337014 2.0451910205693826 5.940808316366707 -0.456728194467665 0.4991686230200629 -0.3350147419155521
Ni 4.41563256013688 4.447908619980329 11.269763249813977 -1.0027328040046601 0.1573610265523935 0.6184012181318511
Ni 6.731063578595265 6.300586043538745 5.599989290322056 -0.5090079777079879 -0.41370129728417787 0.8300140640492737
Ni 2.8306215971684923 4.603881703645215 5.938849826609943 -0.32367823385681027 -0.509154016367549 0.4650536836142249
Ni 4.610794020433795 2.7721827899102043 5.9462471204635285 1.0433773169988998 2.3602683311850767 -1.1491013361012918
Ni 8.013837206282355 3.4639997859155915 3.617952131809623 0.6956386997587761 0.7378109622514519 0.1865510178527884
Ni 9.031917412858379 8.425120055202846 0.47416449205014777 0.06546157203791951 0.8539137534850068 0.8602067855825701
Ni 2.501403928615641 0.8893977671783052 0.4107653542361843 0.4896977074151502 -1.4362328811823202 -0.3012019071311651
Ni 2.9656347525067175 2.701721754258876 10.868596167720645 -0.22198056230499189 0.6557590899550191 -0.5799331439636398
Ni 4.757913020900407 0.8260720262764786 6.938530635110558 1.0183165173755302 -1.9333883304270962 0.6416596744391595
Ni 1.8400420057728402 9.234362819878742 11.487302406639083 -2.0317163141757333 1.6492652331550883 1.5502479366489108
Ni 4.146191566607849 8.262067421278688 0.3286295641809189 -0.5257029218651657 1.3319358243344415 -1.39404030697467
Ni 8.123040662643868 0.07067379378904129 5.784254560928586 -3.5615581763644664 1.692179001799479 1.4689493975787349
Ni 3.9850156638547842 2.421810087314886 8.551070085504433 -1.1598570319558992 1.2347437539624606 -1.0960671911934479
Ni 7.08908256710053 4.3846014605752455 1.5585564860546763 -0.07688035539782243 0.5443904709723398 1.6078817851122953
Ni 5.033290802638985 5.113488542583903 6.985238943474679 -0.3866311805402632 0.4614934770667924 -0.3083040653935851
Ni 2.6891049179700435 7.8687993334510145 9.967350838218689 0.2049554885019051 -2.2644191479942353 -1.1495859890471944
Ni 8.439474261437194 3.1546550281299077 0.0947554135686092 0.9851194617982711 0.6354190928460862 -0.34150343496368923
Ni 8.443905948410517 1.521936072272599 8.373753365605133 -2.610805879192155 -0.3202116154644485 -0.7354002959274302
P 3.7217808902380805 1.0639950850291955 11.994125737365597 0.02829113363520934 -0.3600580580374251 2.2143394577290247
P 6.524966907464804 0.4001032914047676 8.662805270797246 -0.7702269166883122 0.5151498289396677 -0.034391075885360126
P 0.3990562240632717 4.6931007602591 12.261760609411157 -0.17869578347442774 -0.9205217804225436 -0.020591450998106473
P 0.2845431050073056 3.432262589477704 7.639042842517063 -0.8189634626620671 0.827491040517104 0.43174221394628876
P 5.1751047857853285 1.256703787755969 4.483705873456669 0.3658859775731118 -0.19207246189164986 0.15101657239160443
P 2.6642893290691076 4.5713826658408445 8.134116163777827 -0.5877575251040651 -1.0205022121729392 -0.9484866410665858
P 8.07838003522088 8.435116900450845 3.1804647271066204 -1.4016636278478827 0.4934245214474341 -1.0587519996827572
P 0.10531249094342517 1.3664832705165302 10.3055322208006 0.03345185190054239 -0.9837876303607249 1.9674227943039857
