# total energy = -340872.6227006145 ev
CRYSTAL
PRIMVEC
9.19021028166932 0.00000000000000 0.00000000000000
0.00000000000000 9.19021028166932 0.00000000000000
0.00000000000000 0.00000000000000 13.45080170791580
PRIMCOORD
 96 1
Ni 8.213410144306758 4.973567034725998 2.5549666043289783 0.534183448532351 2.2533574908634355 0.42196019485886044
Ni 5.054385741412634 0.3223934856081265 12.81701332845404 0.2612667614991242 -0.26096337132609254 2.464666946607826
Ni 3.9051499816714643 3.233685668884826 10.796339800584272 1.590525810332351 -0.6309350889328037 1.0279111030425008
Ni 5.12419457652654 4.866657321866589 6.605782333425261 -0.009415122666312817 1.0395386599791 0.5604817201072476
Ni 6.05313181250317 5.756333980749144 8.798666611266318 -0.3878923066408739 0.21594695451640228 1.9289004698590717
Ni 7.453370587598605 8.32694599857179 7.441696263843315 1.291767222535356 -0.03979656317164759 -1.3579846989026936
Ni 3.503813511236463 3.0381455708439398 6.446901983050168 0.028404519284622048 -0.766369490615435 0.6429529393292862
Ni 1.795923266384168 3.9127870461764216 12.321862275379983 -1.4077795109376336 0.14800169682468062 -0.6891785459557292
Ni 0.9069018694741807 6.579951410195316 2.2282059309317357 -0.94519228658603 -1.3734431995496088 -0.8318557452437029
Ni 8.83607444202562 1.3137588990525366 0.06961951678803086 0.6859014178663543 -0.6783048364660189 -0.04050104543783993
Ni 4.572313276180942 9.140628811014524 4.237809850863812 -0.32655144163954725 -1.4459524224629292 -0.18098226551575927
Ni 5.2751253952568815 5.351156002536679 11.631768487914647 0.32426341693631894 -1.8464860720168974 0.4178196903279256
Ni 1.3948533120389908 4.253201614561649 3.2070744968263973 0.31458629885787115 -0.7898899423348783 -1.0474671707975574
Ni 2.9665262643612293 5.080568649685346 5.296750878393603 -0.7629902897305569 0.08292141938557977 0.0039011348266190884
Ni 3.780448022263804 6.455212689947681 7.897946996055056 -0.7658866374417455 1.4611291302033675 0.7946230861444895
Ni 8.428902188244471 6.29893316900087 9.554656042430146 -1.528673810022561 0.2142744519099858 0.6825502420059343
Ni 3.480084389032131 4.0765749686882735 8.685854945548806 -0.5755368146681571 1.675493056503366 -0.341170991324935
Ni 5.992742942633045 7.183720636166653 13.215613873373847 -0.7953267970797334 -0.9136926733158522 -0.42274643820558166
Ni 4.628015138954162 2.1606551304133386 4.519321606334932 0.08974281318278739 -2.099556927968791 -0.32241607931493504
Ni 4.344772866941185 7.377036703389009 11.149947834436789 -0.7245309573130941 0.5932779407016622 -0.45929878340831864
Ni 4.100405183202539 1.7885894788090102 8.549853622953608 -0.419488079169284 -0.030896689578856468 0.3146492908853226
Ni 5.600854008071806 8.184506933875843 8.744970971334773 -1.4647312457323292 0.3344215884162434 1.2268836344880933
Ni 4.725357843209888 5.370473823943924 1.3129124807120958 -0.15785416413872813 0.7946621669125411 -0.6648849635156872
Ni 6.31167080005246 7.507638777612773 4.5205852602090975 0.6298642244661281 -0.19543675037819244 0.6764418151153512
P 4.23663166594259 3.762288167315795 12.925305248896535 2.625174232098685 2.084997284987061 0.7696273354311004
P 3.560011645349356 8.95030875225019 6.982862163602278 0.42287165092953627 -0.7849750215317642 0.794815918881586
P 8.603470227079205 7.2925694833347805 5.382567221274939 -0.9457715561282678 0.8803644914773676 1.6522371712992188
P 3.688141553084753 0.846512999604055 2.555813941690419 -0.8251130272032307 -0.9959196377375689 0.1689793275176122
P 2.70445823617427 1.473098759927326 10.682626575266358 0.3057825845233121 -1.4030252840820998 0.2180362329452632
P 0.0793004839956386 4.463841227622566 10.44457440383554 -2.7113540105205627 0.29708737074215935 1.3997293869396474
P 6.5841421459525495 6.402911204872215 2.0925143184133312 -0.28776892155471084 0.24907613297020328 0.2566824845625515
P 4.855160369164181 4.109577012776483 4.663258675259892 0.9245262735962464 1.5932678918538625 -0.8208023156430188
Ni 4.066300313915058 7.164154679089572 5.443229959402884 0.09002666297179333 1.1102329411708687 1.205006631909344
Ni 8.47274868012552 3.584981445902869 12.271596421818174 0.24197628870062846 -0.9905812562437908 0.6114898357239985
Ni 6.437273400039525 1.3049362974583623 9.004208414843601 -0.04322204391342879 1.9221140430648578 -0.6918638060973762
Ni 6.230576387066005 2.458344412536777 12.980103714027353 0.0554898055371883 0.1256634383387965 0.15161049722186148
Ni 0.46810886016691183 6.828151411501432 7.730188902825825 0.8759265103106721 0.5911135860604916 -1.8198700120912659
Ni 3.615373470352801 3.5572270117211944 2.850547652279809 -0.27925651320832556 1.76024253023662 3.4159175235727943
Ni 2.536286583495312 6.110533864125269 12.704739290021173 0.07115116622352907 1.1116341923937694 0.028681684205408668
Ni 7.651456373807812 5.708986018860407 7.141837173140308 -0.5094046989257743 1.3616315516266613 -0.6769853463236469
Ni 6.5245160635119195 4.6060689174886535 0.3495468800561973 1.454909888766533 -0.03708996287376193 -0.5317923225923551
Ni 6.2586157177574915 3.853804278435367 2.778195886060582 -1.6074123016750443 -0.5836815552624786 0.2322608611850774
Ni 6.382288373645832 2.9489545828528314 6.135125947048031 1.8011089294336786 0.7373430214760979 -0.19338886671022823
Ni 2.7391972299513325 4.447013953123676 0.9924186115097148 -0.28234980742166854 -0.14838016321002187 -0.21317247709505865
Ni 1.8683421211363505 8.790472620035729 3.2743018019530075 -0.07022531197515003 0.7007166285023158 -0.2248008053626064
Ni 1.6221731562388935 5.831849936269282 9.700166475306066 1.3220229360961038 -0.8316875950969548 -0.3643114339971403
Ni 8.409722219987136 7.63658661403763 3.260352901224218 -1.7520376258283243 0.7387062203722117 0.2520480711143337
Ni 7.525486165420989 5.619500944149493 11.824128773297634 0.6412138451509924 0.5911493243944336 -0.5896028058429201
Ni 9.140886136894354 0.46202769821392725 5.155597524075805 0.9426252971898024 -0.8710923221468225 -0.26507610794288544
Ni 0.5555509511961746 1.5665540053556184 11.411216314354274 -0.004759369061856319 -0.30813874346031445 -0.040705962359794415
Ni 1.1537665332681781 3.498326955870086 5.836329244620324 1.1396828710008695 -1.0498744946874694 -0.010084380819195536
Ni 3.031592951118266 8.858287179580952 9.233571242725153 0.15507865827612 -0.2759040517963248 -1.0592662203150143
Ni 1.6230646066083048 2.392551699190219 1.6449657960448436 -0.037445546440967765 -1.1629852931722358 0.4717159261257489
Ni 8.817491837417888 1.100141657953586 2.8148087636554067 1.7631792442674408 -2.720783274254263 -2.387128388800715
Ni 4.907498615079622 0.5295398998503494 10.697650730564437 -0.7343751970970255 1.0742665503785886 -2.093888416829104
Ni 7.60320777133967 8.514876602737703 12.301591429196367 0.7922651274352743 0.4496013536148966 -0.8774231494608568
P 3.342304760803106 5.307116516245758 10.857177152702102 -0.7331670357215374 0.18651013731252394 -0.9858249725057281
P 3.6106313219959323 7.931472882112919 13.188631416831663 0.7212119202421903 0.20608574545160638 0.3949067902854941
P 0.1988550067856978 8.425805087476515 1.3859571887648647 -0.778102462781647 1.5483350358969141 -0.5524408520806421
P 7.007231843443187 1.2931360678261536 11.398706600510536 0.6019746971447116 0.10521185535266395 -1.1437233596188303
P 0.7514127065868489 4.939232410188668 0.7939900304677355 -2.2937729185660047 -0.6047697433913455 -0.756012315750827
P 1.2018313315364415 2.1237564372877022 3.9804821329917233 0.7340507238780714 -0.2738332853102252 -0.41757414997602277
P 6.460019169774506 7.224019706990044 10.706151674808824 0.45373671593950893 -0.3258873256929872 -0.28701815943161535
P 7.818001359317843 1.183322248608663 6.627384841036997 -1.1379579178899626 0.4957958498930881 1.173953105037649
Ni 1.57686542096881 7.552146964613385 5.478241902416766 0.5066723875962758 -0.08302477773266347 -0.1453920271159754
Ni 8.4253731476068 3.175373786473329 1.3446416807161452 0.2282905636834197 -0.5702405992662244 -0.7684639112506185
Ni 7.722064757191189 8.86842398120426 9.872807327105074 1.7390684672621664 -0.7060742932698034 0.47883376811745276
Ni 6.714091715266745 3.5574200061310672 10.44289259540665 0.20954696452732946 -0.6618304929600796 -0.6422772534185003
Ni 0.29451038848653743 5.488623163625911 4.653937045263047 -0.6593936013838128 0.8762129312028394 1.0631473005369754
Ni 8.276482555495113 2.7910575849470893 4.102009793867479 -0.7011819981745085 2.2454505773115327 1.7244903123376754
Ni 2.9901726746756156 7.143789173743019 1.749572442279773 1.1308549882965944 -0.11112873505773119 -1.0630097465178465
Ni 4.679526265970151 5.9941858056020925 3.4994408093213503 0.08191046162256214 -0.34087274335822587 0.164380138182704
Ni 0.3467420279660493 6.9515207904599725 11.780426567713489 0.6504502761475959 0.44745165426174555 -0.5860901647039714
Ni 5.4844048572386965 0.9892342037468175 6.709636301461686 -0.47955521966450954 -2.075867554771651 -0.18753189370881895
Ni 1.2992383672621244 0.1660220625613771 7.20450429606793 -1.3042753823046958 -0.9996701059189365 2.5800781110909954
Ni 0.15642288822271536 4.2299779539069835 8.21342209157975 0.551354818105315 -0.1860540236117118 -0.38179982058989087
Ni 6.917452682012467 0.5198203337607672 4.3080359215114425 -0.6017288996824927 1.1601280262290987 0.15544452625597102
Ni 2.259652072467972 8.68103559942799 11.460728570696583 -0.5990333551282006 0.09279779795902728 0.9828178102482881
Ni 7.131419151091188 0.0517482344338311 1.0222527902130156 -0.1629691167677903 -0.08985748438378073 1.0992373613913133
Ni 2.063036719857795 0.028740543714022876 0.6027344083260199 -0.21344964201584526 0.46815494824736786 0.4028928938147642
Ni 4.424663362418434 2.3809352737578897 1.3851227176974157 3.194587193257292 -1.296242227587574 -1.7390962351763082
Ni 3.0896199370199513 2.1545804016073498 13.088449856708813 -1.8538103735924525 -3.285581362348677 -1.9806410927664724
Ni 2.5085505297336264 0.8858663978190703 5.554212773331603 0.45806851054564335 1.5520430808761205 -2.7537820977777865
Ni 8.848913165387142 1.9349711435923558 8.868072915182491 -0.22429301248825242 -0.6710237294235735 -0.34599335241424284
Ni 5.080136709815631 8.090141857658152 1.6453692462635774 -0.005350722788952075 0.899245901762903 1.3366648543789947
Ni 6.9883000108556885 5.2017323782453415 4.76303678516401 -0.39560535901441546 -0.8056119810558254 0.1820415600182091
Ni 1.6424099986455314 3.2109490893598385 10.003495789302782 0.1394815751688114 -0.5632875649871589 -1.6012817632972745
Ni 8.205929313371698 6.595510435715044 0.46803166240296284 1.2975653172743717 0.21788633763096021 0.7368442274628083
P 8.40835287869804 4.063396207556975 6.1491814542127505 -1.6634672356870837 -0.5306535810022216 -0.7228877652827164
P 5.672546836234467 6.959939022814415 6.936793478944697 1.0251260840981957 0.7872656173381538 -0.8043847935169438
P 2.1203744400099356 5.234017585954025 7.378921615458763 -0.9239493180468539 0.0530930231702376 -0.9413927103342818
P 2.426555476167767 6.295918780122861 3.6437013736380965 0.3149688790082705 0.8562400876253383 1.0616239219139134
P 1.096281769756135 7.868042052734802 9.539052903902448 -1.0082365074317088 1.5528113265007129 0.8002669146938283
P 1.5165225021486537 2.2844840198715755 7.696602361382001 0.8791005371632795 0.07273753687404247 0.33444164302090146
P 5.575746354368385 3.7148666837471067 8.3641920816352 0.8852151347014495 -2.6314592937764485 0.8687958128031619
P 6.887648831002147 1.8130905786528324 2.4194624720944504 -1.0771091620337063 0.03312300780621392 -0.308173710463308
