# total energy = -340863.3180186546 ev
CRYSTAL
PRIMVEC
9.30453782944377 0.00000000000000 0.00000000000000

0.00000000000000 9.30453782944377 0.00000000000000

0.00000000000000 0.00000000000000 13.61813163048821

PRIMCOORD
 96 1
Ni 3.3358442368900967 4.40745714504776 4.823923598952675 -0.04443123373018154 -0.7339152267414716 -0.5788288551558677
Ni 1.0220290269065486 6.0254697234231935 11.554807541398585 -0.44479647602708555 -0.5572832677746079 -0.6903208870902885
Ni 1.393103293781333 1.4805473388175465 11.296553585151337 -2.7265397171220656 -1.9203068146527895 -0.16279813840756477
Ni 3.4316716703682792 5.419986238991767 2.7394912952756565 2.253619743385886 1.0180066994445953 1.6368002679188587
Ni 8.395744867997053 9.127788673835434 4.334624015517012 -1.5179865055120438 -0.23558015536629748 1.1417081289610145
Ni 0.9375810430005396 3.610960806759298 6.910398248648576 0.9310005684666804 -0.7988834040827403 0.16133800892227051
Ni 4.657488681354754 0.3328837920023501 6.777498745726066 -2.1994923654138634 -0.0011292285084367648 0.4375300242726594
Ni 1.7751755241837621 8.708405247370521 7.09578185721439 -0.3217771601793555 -0.2790572527133258 1.2362663612545741
Ni 0.9662111054155672 4.009678855055937 2.897312071897357 0.1423126168597033 -0.050102573083345966 2.285209859487342
Ni 6.741360851863951 1.3634869503731326 0.6161725373083792 0.0093924969584935 1.2488817360257396 -0.1791254148126786
Ni 6.113341777192292 1.3160524173241206 11.003586259759473 1.1106024086951454 -0.22193325400682423 -0.4173044412544039
Ni 3.6179112963998654 7.614647539554826 1.1448331064555435 -0.21515993983873266 -0.04170380749668946 0.49569840508327534
Ni 1.832919484972732 2.0460213112617716 5.08811478068807 0.14900494127821437 0.6478208089445487 -1.7384480600693477
Ni 0.5893363897564057 7.238297599820334 13.580027628242078 0.421217660265881 -0.002738481977085606 0.36991695310937583
Ni 7.013146397246778 4.053903322608302 6.205292009822785 0.527275408558608 -0.4302656294007622 1.4815781420863385
Ni 8.820087613040844 1.9558138185371399 12.914414499562726 0.23951857118875522 -0.23080510257515732 0.9808614578528657
Ni 8.269240373816125 8.991830769380321 2.048657286784091 -0.5718526809483506 0.01337025065931891 -0.5930987348113206
Ni 4.56048887612997 8.892616484189734 3.9695902544985286 -1.6846788367676921 1.1916592640681605 -0.034961346566533345
Ni 7.234278039546271 6.981641232691274 8.00017547524843 -1.8117671804784732 -0.4598546559117886 0.6004423196605854
Ni 5.113504072632134 4.997299701653493 8.452610480429838 2.227845205524944 -0.2844910221343875 -0.3936919440417865
Ni 3.596231723625405 1.1895851412938787 10.857136558626044 1.91540089271074 0.8641140910567762 1.2629397567807024
Ni 6.703835651435026 4.240812875352232 10.64133083368968 0.5955058015909163 1.378071956570872 -1.753647907738238
Ni 7.691912420378482 6.660951037307349 0.39037746072795826 -1.1370482615914999 0.2323469931409805 0.22077420070171658
Ni 0.27022982668416007 1.6136394456698548 3.3661844733291355 -1.0939041221038581 0.03310526719440105 -0.8066051982070302
P 6.883804019076059 1.6274194659612606 8.886266137228976 -1.5393024933810007 -0.26140354418730466 2.5235902033065956
P 8.020018332286547 8.953737992153437 13.566096874440396 0.6405877815312193 -0.10925645773568281 -1.3902469013705088
P 8.133971005148698 5.92151012402017 11.848264285471963 -0.47209644939361917 0.6334822808346896 0.04162358907805735
P 2.6502952057959104 7.4117434865536875 3.78357952009366 1.1945440418151234 -0.03130318098865577 0.01827360149820724
P 7.007824201698712 2.9751724431319846 12.236612426533782 1.9313183352719445 -3.4093401274655926 -0.9296527961895344
P 9.208217097467381 6.286638791322902 2.2015345625409544 -0.33256782303695626 -0.7405039357025828 -0.24152403165455827
P 8.856152001055353 7.884544263790349 7.151329947112899 2.6824658667313033 1.0333137621153106 -0.872727029536768
P 5.486625337794635 6.758034583371176 9.871116092507974 -0.23918895576347843 0.41180716558525854 -0.14882882071166625
Ni 1.5793987470389477 9.313283936853304 0.36971859573605526 -0.010710444438968651 0.7343219752615869 -0.7146957163902272
Ni 3.2481489693367545 3.6680255362982526 8.148245096390458 -1.546491554930272 -0.3154599597120761 0.5164919447898588
Ni 4.2194496568586 4.3532489085739385 0.5029512011072026 -0.0040739129590575 0.05651027638190268 0.7128265243919724
Ni 3.803862481763637 5.221622800374291 10.315721329238865 -0.06055539298555376 1.0010361330285278 1.074381221579582
Ni 1.3406163967767277 9.00201923813055 4.819524413541618 1.5173352450812898 -0.8320727463505153 -1.2145827056335532
Ni 7.036351914199354 5.197989274688829 2.4725078217850625 -1.9068586595676835 -0.9028719285512645 -2.211982270350758
Ni 3.4745655890336278 0.9672159954840829 8.554392818017744 -1.3359050933948347 0.9052432569969184 0.3499075998669845
Ni 8.891062626398604 0.4045575761392361 9.080311339913134 1.16060213765204 0.10905668302005088 0.623559622404339
Ni 2.2322144146050005 0.8117753195987375 2.599987431513957 1.5026779001794315 0.38357593865370715 0.35679635656701775
Ni 8.443849327758409 2.692323802457815 8.110918082613933 0.41386636210713246 0.9920642685472204 -0.2631086998038695
Ni 0.05201329603712876 0.9549526148331222 6.337210814474726 -1.4064962733498358 0.6334264878960898 0.45217862742376963
Ni 2.5274846130705453 3.1798443582906977 10.585237497883625 1.3913810149749521 2.3326590541082406 0.38140927001969155
Ni 6.684240295098969 1.5059301175852404 5.656426637122085 -0.46781299152691697 -0.9315037333553441 -0.7091223360675077
Ni 5.766812880694773 8.6051620973682 0.1254633164154931 0.0028801497612724594 -1.602942181718833 -1.6238118260789904
Ni 2.95410696984384 8.462225789659506 10.291085704846187 1.0878514881518748 -0.7645175250083607 -1.7561621895196595
Ni 7.524393524141837 2.7899097935559 2.5729828718301304 2.185277507366062 0.4602043259417236 1.0797388863470694
Ni 7.151086168225907 7.046558992024926 3.5133013098136083 -0.3887826796656272 2.613549246265247 -0.2836512998419115
Ni 6.541750605198503 4.4635635072065565 13.415738337031192 0.242707253329382 1.2202872122174986 2.5261211972585658
Ni 4.435277712685373 0.9252143819814258 1.5456577020809972 -0.5054896801420843 0.7771832934014873 -0.4846958833251846
Ni 0.16988504016649222 6.86870275443531 4.647350457107951 1.8337485698455709 0.9295077859712378 -1.0426805480421915
Ni 1.5214593909588774 5.313458587191426 9.221136448024177 1.5454800829466222 -1.3223780054426773 -0.9376191022244625
Ni 5.432845110053699 2.341654386696503 7.446516404739401 3.2003798886796693 1.093218151780427 2.8110246243400234
Ni 8.764372041464247 4.246302552578383 1.2671580023144593 0.49803913740131006 0.059497126924368496 -2.34590640603645
Ni 7.501132179963232 6.459879978227484 5.73033257984635 -2.037893903741355 1.27713096067942 1.2540239423483113
P 0.8263062160802287 2.0937721985916125 1.1683503254201137 0.31209258590173994 0.3799473407621844 0.43207311492314615
P 3.029055020787306 4.562228824674529 12.36360168712739 -1.1532174151521946 0.6260481931541476 -0.4405456711705316
P 2.870645266931003 7.2526451969096986 8.36311199347577 -0.07130646085447075 0.06497589065075261 -0.011728087070205609
P 3.7176001130116965 2.0599967268442776 3.87275141777546 0.23464375959495715 0.10213861574397894 -0.10434822180078802
P 1.2664499269976626 4.804416635724497 5.077915146492635 -0.5375012000516742 0.260358647862558 -0.18471679285752704
P 5.335594082311786 6.288388044405134 0.6543909257938278 0.15888131985166185 0.002399096359795868 -0.1102843847795649
P 5.634474441393851 8.34301605301299 2.1700898774803155 0.2858123120489723 -0.6275636013574095 2.0134514544282744
P 4.7423832830689925 1.1118178154359655 12.938790527354369 -0.7953046855925465 0.06875952606290094 -0.6359515683107886
Ni 5.852237841056283 6.18564733943707 11.949570230731092 -0.259198823226502 1.137762514049705 0.23139825607446599
Ni 1.9426478977320492 5.39194236245004 1.3129456321956259 -2.199723250477747 1.0361807992504608 -3.028343776613604
Ni 2.709258061019839 3.0835516979289426 1.8092506020441173 0.9753384711521073 -0.5256931516731527 0.689200143222284
Ni 5.425541047981618 8.749131208758426 8.973245885835384 -0.6888347894630653 0.9236076184367191 0.3012571858491328
Ni 3.826342244777841 2.5837863705204422 6.250109176424821 -2.195010675493426 -0.24459881392514005 -3.042682047613147
Ni 7.348705243829667 8.011253457800048 10.103740699739236 -0.14729567189659148 -0.1038993071888275 1.3001999266837414
Ni 4.902840035213012 8.612354504988225 11.479158858768457 0.7192931059529225 -0.929672079463244 0.2388140889225629
Ni 7.344676379017932 9.4461527348015 7.474379773250302 -1.6975379521185474 -1.4034600576266734 -1.3061270908014537
Ni 4.857098928020202 3.0450774346575296 9.671937576390482 0.5196574870020342 -1.7227195935904975 -1.0940185361945354
Ni 1.0519152019072209 7.503783973199593 9.530022906918111 -0.8878034642539162 2.4596052158142028 -0.2690276363914657
Ni 2.968668571299647 6.876751179521107 12.20531847498342 1.636585580804891 0.17534872137906574 1.159004711257933
Ni 0.3313215601273149 5.750232194564263 6.809760369194257 -1.1712560178214604 1.9556808232767091 0.8704222926629913
Ni 2.85765613234167 5.801518806209252 6.738278258533404 -0.5881820142359935 -0.21953235787481545 0.21161027481426134
Ni 2.6317047395283693 2.0729300342075825 13.20303753631579 1.0248856859526156 0.6082646439184815 0.06905494581613268
Ni 4.877643347198746 7.006102862229496 7.323844449625341 0.09298548848980115 1.673367525519931 -0.3985258750953201
Ni 5.703997946874867 4.127083511394194 4.239800541653579 -0.0931675225936202 -0.4359935330234749 -0.8804961319592256
Ni 8.664934447369545 0.08824795709102592 11.445916537029696 0.32339721228128177 -0.5627823432159662 0.688204097857602
Ni 4.864430903705299 6.761188821641796 4.848149823687809 -0.05969741586063266 -0.9761198294028223 -0.09131067189053951
Ni 6.30023272086088 0.9343523684285492 3.027977555324953 0.16419424742414304 -0.16920018527916666 1.2003786462190296
Ni 1.0788425339283743 8.139432768761836 2.460496594104998 -0.009317934966816212 -1.5810394681084707 0.016409294595958836
Ni 8.6925130970277 6.082962461695034 9.584631238511806 -1.1593494961918613 -1.4780081653468933 1.5712052556268683
Ni 9.053156977172797 4.00066275805231 11.604254645945929 0.4004945687859167 -0.9863075685691014 -0.5848956301752378
Ni 8.328063660974982 4.927683150795762 4.301994862810799 0.6917997856286602 -2.3501009037337717 -0.43458791092519994
Ni 4.814456231871983 3.329852114629688 11.832985304161689 -0.818733348929132 -0.25362030069746 2.144149626977501
P 5.905552841913647 8.635327408499016 5.730728022697385 2.8743745493515784 -2.8346548621644536 -2.2761552054842413
P 0.78894477551432 3.2901403478479727 9.500512635239367 -1.5393636856362394 -0.26160254757198814 -0.19951014911661769
P 1.4460275040564958 8.437168669710314 11.73328625255842 -1.1259657785250932 0.584814126205025 0.6913490712444867
P 5.691939266052678 3.0866873271242183 1.8113478448352605 -2.018095380958189 0.7412333576694395 -0.6640007611385209
P 7.5498042165225465 4.849627384270034 8.276950113730681 -0.30934381951200923 -1.5115996281490935 -0.3284787405692472
P 4.998611641465166 5.011842694033957 6.258130618351371 -0.4568948019525163 -0.44548578878462636 -1.0674477276845424
P 1.8977721125426839 1.7178037449016497 7.163232311702208 1.4014057462008058 -0.9616889986894727 1.0382826760848118
P 8.155631968847816 2.5418787328482666 4.70046168859031 0.636082437461698 0.9720022076900228 -0.2264648233285906
