# total energy = -381167.17395351804 ev
CRYSTAL
PRIMVEC
9.33478153578842 0.00000000000000 0.00000000000000
0.00000000000000 9.33478153578842 0.00000000000000
0.00000000000000 0.00000000000000 13.66239635180048
PRIMCOORD
 96 1
Ni 4.7423211612139236 8.529563463846626 0.7435769748662039 1.4939919423696593 -0.8940039366376732 1.89947779372258
Ni 3.7567642402632555 1.199071383608058 11.137203003660773 -0.6105832647493291 1.5911207636038727 0.3647904305160879
Ni 3.9723976983748157 1.1172986955969209 0.12410125579498434 1.6908556550023655 0.39392437176756673 0.439956631436281
Ni 0.2446291571412628 0.10100887273540088 9.80320668483434 -0.6060128717698273 -0.15379182114389645 0.27842373289438505
Ni 0.16544780454015898 7.186092341557715 1.1432941957765343 -0.06839160120052093 1.5926284584976507 0.5684966199919241
Ni 1.8542237049977441 0.9317148333731062 -0.2670120967888775 -1.1848162730043983 -0.4565772707120976 -0.018150445656781644
Ni 4.568591538317203 9.335248475518004 7.805805164085039 0.8158837952954787 -0.9621248006753108 0.17098684486594426
Ni 9.369133733221247 1.6454606462441972 3.7552324025803077 -0.4171756289860234 0.11620229292589665 0.5944544775082665
Ni 5.322963254783415 0.7586265099816784 5.749724271862361 0.3325323418133306 0.07575781175760501 -0.7782027358049372
Ni 7.452479007970251 1.0306345819558937 11.755740577167481 2.1099698957719983 1.6602173612912183 -0.6134814122327306
Ni 2.8837474479270027 7.273699268154122 10.896253617480012 0.7334377728844207 -0.6244795631154471 -1.065929491267803
Ni 2.9570534889031967 7.861277104553783 13.30150482098842 -1.7036700331582142 -0.09892242279952641 -1.9818515681348061
Ni 7.485206752738179 9.290226823203195 2.048676543349342 1.2606090517649968 -1.5495380550660798 3.0084226122096447
Ni 8.70470263878555 5.183762989529753 0.6729602845082757 -2.3354975519983 -1.7625259269541582 -0.15625802329620186
Ni 0.7724317186916864 0.24392624807650953 1.9385849279843934 -0.22105933604230318 -1.4147592846895765 -0.24315822482387153
Ni 0.8189301334771973 7.236938897676056 11.99460083919563 -0.9532043582572294 0.4262768199563432 0.7830124984887548
Ni 3.2468144487837565 3.115968813184201 13.203408400154785 -0.48647637226437507 1.4162572093913417 -0.7986877431321664
Ni 6.525665868486945 3.655155141062202 10.721033229939982 -0.7988376384464694 0.26935210961042 -1.716210074606754
Ni 2.4014379451690764 0.7289820436212938 7.395824350655503 0.47118396488167885 -0.674927949573986 0.39057139613493386
Ni 5.249918587695841 4.598369492056418 8.550392162335125 -0.2041293930561839 -1.0622720970208739 -0.29902289720197534
Ni 0.5861533487066812 7.078555655954027 9.542132442708006 1.6665134787125748 -0.7473422987806548 1.2974089942021656
Ni 0.8925619583359929 3.0947321847338203 13.348352356610874 -0.8113573681800349 0.6595962043129221 0.3947036731357525
Ni 3.149928749141338 9.16073473095542 5.488075007181063 1.2312655656058729 -0.8506353398440513 -1.0303585361417287
Ni 2.4767883033455487 7.418547076358324 7.6585797869725685 1.2954963505604848 -0.16425132591432356 -0.249081532286842
P 4.480489868288766 3.3351308187921322 10.357927022999935 0.2973182558060428 -1.2970135585359597 -0.6269161975813977
Ni 2.4754814339024485 7.078266277720199 4.368688120909702 1.6337306278545993 -1.2941814884038034 -0.8639749943757506
P 1.2390895929121384 1.0319414513989942 5.753535663245345 -1.5598615484792748 0.672168641661294 -2.094118787672355
Ni 7.177523011923671 6.786470335421097 2.383350872076567 0.30720954677782575 0.21628711146464039 1.1434197123354826
P 3.494774256048578 3.1089677268818776 2.852940801240432 -0.35086173625013767 -0.7432889546468876 1.0053802689298361
P 8.831338287821975 7.879349241995513 3.3241017741705385 0.6171709452691757 0.3995879978112473 -0.03326416136976852
P 2.4802888464967103 5.585027917251985 12.293452009531128 0.7890237376798411 0.3884111552588214 0.20950685531801336
Ni 6.048182447886754 6.309705693014609 9.867911657918585 0.3139705196507432 1.1768551091757926 1.2603761098185842
Ni 4.6432977965538615 4.9058011937640424 11.926425194261778 -0.41875505765800136 -0.23763986610880364 0.17955093238587141
Ni 1.5794170654589463 5.060207818466351 0.5257125039196366 2.043284478629307 1.2790397476663586 0.6341654229446434
Ni 0.7233139641509327 5.758813548839124 7.7683297493259635 -1.5397449802350578 -0.2816342694118827 0.11047258953097101
Ni 6.2749616353916124 4.7540269775114075 1.8959035054509092 1.0784276237348138 0.674512202192806 0.0689094213772039
Ni 4.921492961862984 3.1782411421479337 1.2837574569991355 -0.5747444006738489 -1.3133488053608735 -0.5436505074825217
Ni 2.739048996230583 9.22157883831348 9.477153960518882 0.09687042536650413 -0.42719393245397397 -0.5223913409934293
Ni 3.7977532668679252 2.4952338320567367 8.334991140288803 -0.0968071762287365 0.32346586073568806 -0.11539830896736254
Ni 9.091022580947753 9.022878674271805 13.254833712740785 -0.6267907277471269 0.5566219800415252 0.07677956815390002
Ni 7.253704165674686 8.11445505480927 11.55066849111252 0.3921428543871117 -0.7939846812295422 0.5191823471378284
Ni 2.5052873919868732 0.9949757157227267 3.427089620634063 0.599038240224207 0.2134007910557809 0.2890153923673023
Ni 1.4927809561631287 2.638252023040599 1.963204481336057 0.5875119847521624 0.6861297318270764 -0.07318902258916427
Ni 5.7479198585527085 1.4441747476615316 9.423064501225305 0.5491030459566607 0.7501617705073209 1.5251076899378573
Ni 2.8370268653361648 5.225405450855973 2.7951762383772225 0.41113610766016284 -0.7365243822295444 -0.7047653446503926
Ni 3.3795830494210173 5.050863701948183 5.437538365816372 0.40041357903633623 -0.47150175323241383 -0.626324843854302
Ni 7.8998390879069795 4.849549799020308 9.38177676160507 -1.4629924086643515 1.9201178385704354 -1.4158165223094972
Ni 6.997501746136595 7.772493995458585 0.2948764202721246 -0.06543226146188086 -0.45643200338348494 -1.0667684422293304
Ni 5.1789929160624375 3.691243407255245 4.263583145948356 0.03457079599633401 -0.2529315021605515 -0.08543004474004642
Ni 8.388505577027415 2.0917752306264448 9.497128526478498 -1.2199213442376473 0.6740871988402455 -0.20892270067976923
Ni 7.983898797443542 4.618541955388846 4.282191099861758 -0.42040776277007597 -0.9299129918294565 0.2104180542783731
Ni 2.383393812072555 3.397720530334903 10.534746458651414 -0.6379081778165272 -0.627312661688868 1.2662927324133355
Ni 5.184799150302498 8.728020923563154 10.191163947713115 -0.7797453977017087 -2.0815314379256473 -1.9232363295947588
Ni 0.43512684847113486 8.476159177532505 7.639929826541352 -0.46521797710623103 0.28682069870882865 -0.5260654474109069
Ni 2.7077027991596467 5.114424230791543 9.126672112399183 -0.591990075128174 0.7940918962313679 -0.8656253854949801
Ni 8.663993655632972 1.3935708958683382 7.004696995899037 2.1991663495330127 0.5395028038627353 0.4930848787198282
P 1.3252029544307162 5.578913635214621 5.769219963518897 -0.8877199034011743 0.6831868471486685 -1.3513828773154597
Ni 0.5828124303232125 1.9286032458736277 11.51393052411062 -0.5817917944389335 -0.5932882251143073 -1.0619820765842807
P 7.9699993074379964 7.591324551517929 9.70619029824761 -0.9757588465189777 -0.1667344973474935 -1.095219755591488
Ni 1.3800261275687764 3.83349614613672 4.307302596210931 -0.044944940141806465 -0.9657798809293949 0.4646896154065868
P 8.828976588042657 3.7119199488014405 2.5560153963771612 0.3442367747344523 -0.19252189072424264 -0.7795502509717671
P 3.8930427188334145 8.424444486712675 3.2615690047963595 0.639135365355409 0.48999004184458844 0.049092900871909
P 1.7800308597565888 9.4265426409003 11.354845306802014 -0.13892801665818655 -0.9177886977620968 1.26198356351502
Ni 1.364362363815045 2.187671443404802 8.578933257494263 -1.5437674711308897 0.8956972651796961 2.3341040140848834
Ni 6.037970196667098 8.320865748565236 4.310199178983746 -0.837390559019003 -0.6059593928240725 -0.6569199430323396
Ni 6.974379491775456 2.388677298535375 2.742001587693816 0.2918222656884781 0.7157439551490835 1.0105988370162984
Ni 7.334739405928644 2.086258374620214 5.396400916182094 -1.0985632181424243 0.9127215676518344 -3.2212688163135366
Ni 5.5071571680066755 0.2185085708863811 12.135828619042444 -0.6110362931263477 -0.15246975989836323 3.135438707921594
Ni 6.936788325722848 5.943978279362972 7.4289693601670495 0.24587870907882817 -0.004588390701630807 1.185061813356301
Ni 0.5411167607410954 4.841979291032063 11.57259682688957 0.4834825797433737 0.07152988971918649 1.036111893685738
Ni 0.9683062443017428 8.230056991833232 5.305491343807337 -2.0835384410533475 1.0570440158527148 -0.15679384119501386
Ni 7.968776451030524 3.3616415989235966 12.284830405119358 1.230389590758823 -0.47249754148677986 2.0389696533040365
Ni 8.069004002534585 3.7757978602238387 6.564890621343429 0.7031779455586147 1.5925664949114637 1.2460625214093894
Ni 7.927544720100707 9.288901284196621 5.098246120564134 1.1252268434765396 -1.2172767075259487 0.18080434517699828
Ni 0.5209816365356134 5.652826437003685 3.232741331837913 -0.626057192015212 1.87909845873528 -0.7074866002362976
Ni 2.4213396998311474 7.634833969191435 1.7269271534143793 0.49920847511906274 -0.2571185436587056 1.8751052784154867
Ni 6.24164579937429 2.1758629445082165 7.337048830930238 -0.32233688933756743 1.031066875062663 0.6369386148144062
Ni 3.011577949025691 2.444489958537497 5.502967717963366 1.102992200448055 -0.350928327822015 -0.278259696512695
Ni 5.010920170897994 1.0123850836611707 2.5364375586413437 -0.44789311267453835 -0.6190105695810758 0.4064191618004678
Ni 8.668903750826335 1.9442296705004134 1.1308229273766623 0.9558034864429733 0.712615951043063 -0.501068411145937
Ni 4.7128232509268 6.657444982260144 6.64955709169286 -0.6251796745062652 0.92763679420077 0.7032730763755823
Ni 8.57035646003483 6.748869834586751 5.967666221497341 0.26395305008203573 -0.2112932577944748 -0.8008919498723368
Ni 1.624830778606684 3.769310186917019 7.014902712771477 0.45226347382809207 -0.10754153192710511 -0.7235855626806893
Ni 7.681097147477187 5.687999894586557 11.896422272282715 3.1120972049821756 2.7097740676279525 -4.28139044265031
Ni 4.917684370914519 7.285862488756691 12.19237779332357 1.2846195557469813 -0.4225800878310464 0.23411051279930645
Ni 6.328533947776991 5.846737858014569 5.202093700425584 0.09767569487661887 -0.040315668899911214 -0.43806609928178747
Ni 5.689586807481751 2.559037065225244 12.56307877868438 -1.3242423123449258 0.37590505237201066 0.3975375430401218
Ni 4.864224075909979 6.325005400280621 3.5484389827731473 -0.6160139488465971 0.12289487445472386 -1.0823806948452908
P 0.23354877122011897 3.9562951998794724 9.743201774354386 3.403204961102132 -2.703885984278292 -1.0980500259514314
Ni 6.6413704881100095 1.1962896186506013 0.6127173370940435 -2.405002183757342 0.695406529143312 -2.7125585723516252
P 6.527738190032434 7.97250102894336 6.620182400524659 -0.5765986802737683 0.019322611588011882 -1.8074762664126032
Ni 7.546424251365695 9.06513723119263 8.081416461809518 -1.2433728903923684 0.46281502409169323 1.4423798746203225
P 4.177734892231093 6.600344122378394 8.820825456630406 0.1799085728356063 1.3911048784954299 0.1977335168321691
P 6.504895979123386 5.176267159795399 -0.46067801304009426 -4.091432198888186 -1.8021188587554318 5.4364999326188945
P 4.649636113352898 3.714524352905905 6.604757607183379 0.18201353499375106 -0.7918432094065072 -0.3978342483449342
Ni 4.340729516130917 6.041610761544306 0.7308069934507662 0.24504232922046185 -0.5425917272007043 -0.05686611705942464
