# total energy = -381162.57136113837 ev
CRYSTAL
PRIMVEC
9.32188600539199 0.00000000000000 0.00000000000000

0.00000000000000 9.32188600539199 0.00000000000000

0.00000000000000 0.00000000000000 13.64352243957333

PRIMCOORD
 96 1
Ni 4.473740989509793 1.580152932650588 4.206311921149461 0.02406732536184887 0.8659233763513732 1.0957429750848096
Ni 4.864216159369199 4.5259249085527875 1.34803144052592 0.3542730759245318 0.9790182339965396 1.0228753403908062
Ni 8.18765503346859 0.306264046340524 13.3248915285511 1.2397257805580844 -1.0266137243873157 -0.1213172455549588
Ni 8.953522561288228 3.7745063043695612 9.192337167716731 -0.28184047188541783 0.00022779974008993028 0.4322008987502621
Ni 7.837245330570025 2.8671418656614596 6.755767633288657 -2.1822343496643644 1.3033377009817746 0.47589139765967725
Ni 5.7268821536665895 -0.1380226438953714 11.605958082655695 -2.9014382383375903 2.351644851182124 1.574959837573294
Ni 3.96622953819544 4.803167126533798 12.690332089984699 -1.3445059476899683 -1.7671917078609436 0.9176637421484583
Ni 6.062153113348678 8.791135303387378 0.5504014497989578 0.24737252001553522 -0.3024170104851889 -0.7456487131283158
Ni 4.736058867657322 7.3229009366585815 1.86800252495797 0.7511349330538677 1.122920563940866 -0.05339461357105643
Ni 5.626308323270935 6.425240581502419 12.949530865004004 0.09758853447945129 1.4097425482012753 -0.8221292619845584
Ni 4.140539488567886 2.221480060610562 9.004615819643828 2.9561045195322184 -0.7493868400145094 -1.1543386732408314
Ni 4.448637149927302 5.613043279184087 4.009585630990896 0.43357643894155007 1.930014271748541 0.5896562847886748
Ni 1.385539914097427 6.843420397198869 6.686458477076337 0.42898701979865467 -0.0013135766051009636 -0.22949281152163703
Ni 8.415892095606617 6.570046761997931 12.896294505007106 -1.873771904316044 0.14627982903756742 0.1314399358112575
Ni 1.6105236379457073 6.080647735603288 12.854626605805556 1.0192871088189155 -0.22384486920724034 -1.0105098768469178
Ni 3.0160030666613844 2.131253523915824 11.791851408841437 -0.8065712596453011 0.5018531118307615 1.2839145592601566
Ni 0.8716131406885067 4.213539179533533 11.398276711814866 -0.33191090617924773 -1.1084827912489812 0.7471957459004616
Ni 0.038284054504764915 6.44445298899574 10.938516622647303 0.0800664664352879 -0.644100165559852 -2.355104013375318
Ni 3.8069464684048633 7.030258962647019 8.910434938815822 0.8751878323724347 -0.9295095857434508 -0.4279860893379661
Ni 2.1418525085445994 1.4152114779262681 3.8025726393918284 0.9614696835898151 -1.32520236226535 2.2041203511041783
Ni 0.4006155176863026 9.270503980212485 7.649377628883515 -0.17872303716793736 -1.5815441756590312 -0.3709302248652386
Ni 0.6802618501226882 2.099708260957358 7.327322307291324 2.334657315485192 2.1833985451757942 -0.9859201033226958
Ni 3.8289367979908624 7.764721055801448 5.59859249117043 -0.056663257019999184 1.2993062112248783 -0.11301849588127631
Ni 8.688930142903741 3.373105883863784 4.494449559740949 0.3724808571818101 0.26115131896718247 -0.1461121931114516
P 1.4622683595498902 5.752918181870784 4.480355799969405 0.7318015228325784 -0.9267461640657007 1.3418605396473213
Ni 6.997007794510835 1.8298303330878094 4.252604408103285 -0.4406428588700282 -0.6109697015544703 0.7523397519952462
P 0.09464977170472388 4.669612462702254 0.6816890309025172 0.3433854824777506 -1.6132980710318603 -0.4816568393885446
Ni 6.243799388173936 4.244273438391116 4.27586624296929 1.6098448223759372 -0.918487009380702 -1.2312655656058729
P 2.8941660138046617 1.8279752777306182 5.856509506834894 0.7180479206919118 -0.6126036376134675 0.6233539341514361
P 3.6007836328287888 4.23963113905503 9.340600835810145 -0.19287181786449364 -0.4843202451533207 -0.9647794646893384
P 3.569322266846276 6.4408454190297455 0.5025205134337494 -1.0428654103594879 -1.3698971340695634 -3.4160327089944205
Ni 3.1240437279168876 8.640717347389206 3.4410605700087684 1.982717258569211 -0.12400481968945096 0.8051586955684907
Ni 4.457287860336716 2.670459388368116 13.721837019633753 -0.916691093822544 -1.0746277903727492 -0.2751412054883713
Ni 3.614076642574289 9.336428359539397 0.03654831929115192 -0.13197035439343077 -0.2574003365651825 -0.5794083818084216
Ni 5.758818935846172 6.932230007188617 6.80114564320459 0.8603890767967052 -0.5154773874824155 -0.4945882027382321
Ni 8.349902463076186 8.252721799263535 9.296587550036385 -0.7626529609957963 -0.16182214764754066 -1.5090640062114333
Ni 5.393671330838465 1.7010298312269565 6.46172271540143 -0.5536497847870787 -0.11536257063342067 0.4849295966025455
Ni 2.240673824331449 3.9048915268873117 0.6828747748293248 -0.18673228062565905 0.008111316253224738 0.43745109140560795
Ni 1.0044145961137134 2.847276926132946 2.9060159955637634 -1.4542905100149792 3.096781914781344 -1.7918850968425657
Ni 6.2529814460977216 6.932863895451376 9.212829470187652 -1.0032629654765173 1.2359871394512583 -0.068611687631127
Ni 6.9744208642069445 5.101542060568841 10.497230647584674 1.131116469488097 1.0334256051028265 -0.3756739101978111
Ni 3.523281470820312 1.3881407203519815 2.0892602908852984 0.6006768042688946 0.3608023924026173 -2.1788554058898026
Ni 5.395554351854308 4.705837312541675 8.04785004492852 -3.926790065293347 0.02696701550714711 1.2847072303647808
Ni 6.296225676258574 4.131441327620054 12.796273462464123 0.9351770684418732 0.2753330097842032 0.7815587967613636
Ni 0.5701228322797294 1.7012722002685994 11.350537468120155 -0.15098057694734646 -0.2525754043727134 0.6229842095168432
Ni 7.323283133993479 1.4209257941773141 11.052399309995025 0.8756699142151758 0.6399144096132786 -1.0168437894847457
Ni 6.2607372554303 8.821720412065488 5.098024912899151 -0.42963442357466647 0.6380778706251721 0.9545421032320464
Ni -0.06778409562721227 0.7190250495790089 3.3587622975416234 0.13501711163955457 -0.5952705456516587 -3.573833394187393e-05
Ni 7.243366603454789 6.371723632730387 3.462016170224676 -0.370729164598026 0.6725069988373192 0.6727828782065252
Ni 0.4680425850714022 6.576544116691208 0.9596648813288091 -0.06405800682217355 4.616504429147889 2.840388936434753
Ni 1.7896623253785804 7.893083429010099 9.291416699751794 -1.5094085340350456 0.20800815928529984 0.6241664027504025
Ni 3.4280770468856736 6.724491772841863 11.6123706081844 0.09070312021352767 2.3934563879012716 -0.41178042611238114
Ni 2.1213257150946756 2.544623246324282 9.627428749388137 -2.386985435464947 0.5217362239079337 0.2912401679327629
Ni 1.7874437164589247 8.5425205979789 1.7832768333199076 -0.34643789615082915 1.2571619737566606 -1.4907585230340261
Ni 7.094412183592693 7.824120114776431 11.148300078830077 2.412561998382471 -2.9933788305026447 0.5644833850674731
Ni 7.6096514785809735 3.9536170261437835 1.705371965826854 -0.7209452968443648 1.4360205080611979 0.4053410982449406
P 6.414138215017924 5.003848693014253 6.240137751267882 1.3822901084172774 -0.41615901479605105 -1.7136076039869006
Ni 7.747783188545084 1.7149287635765642 1.9349793452387862 1.0983655003093213 -1.880539819167497 -0.7886002769891773
P 5.20027015749352 7.642744174651469 3.8430529302893275 -0.04401677190058226 -0.4709348249853503 0.9111845621820179
Ni 7.139930953990503 0.2333156257490711 7.158197190032795 1.6967056860252392 -0.703522216271911 0.1490594486652336
P 6.019384299384896 0.7036420729436483 8.925333177367897 -0.5406250903926366 0.29242930314485766 1.2380800174245452
P 7.977800730950566 3.6187189419103754 11.40104624420995 0.05623696811585798 -1.1643016979908143 -1.4468101424775341
P 2.2921119924770803 8.545876477017034 11.560361940602284 -0.5142484001713208 0.5821553484259393 0.030912373308140312
Ni 2.728730499110838 6.181547832016538 2.380221528811928 -1.6271606879465657 -0.7302704309000326 1.0239873425080623
Ni 2.789518519132161 0.4813728823617705 8.154542761437039 -0.7619114548440813 0.010015732364789202 -1.2766401370859304
Ni 0.8333607805968797 7.48548395416999 3.5269328536515268 -1.1187417499728283 0.23325022168154025 0.11888703884691137
Ni 8.542632460613504 8.566347339149656 5.022535346124933 0.10436544819196865 -0.2665490929439861 1.0897913854870651
Ni 0.07389086328799571 8.696229179811684 11.150946562327094 0.5876770495751169 1.2468929877304848 1.2578839395243497
Ni 0.2551940927004659 4.411414858262658 6.813834594723225 1.2363067275742061 0.811091516113158 1.183248414296646
Ni 9.474765151000282 5.271535977622797 2.7314058804551284 -0.42477503859983623 -1.203493023478295 2.1414990767285316
Ni 2.816589276706448 3.611242789164309 7.27843740378054 -0.5457788666794342 -0.30688584488981985 1.2378162222401972
Ni 3.523635702496559 5.738273498623813 6.364020958149247 -0.6141689252180584 -0.025360590251975682 0.7026716953461576
Ni 2.067296062580707 5.511444041304559 9.983320653570944 -0.06379189764498046 0.4496682022970901 -0.5362804402706958
Ni 7.415681670176789 5.380396964865399 8.101210386012104 3.2902296597539658 -0.8188040542660673 -0.15158478619024862
Ni 3.7174004294039698 0.4289671024268105 10.487516309957895 0.054019648749565025 -1.1230218654054207 -0.3985338455151201
Ni 3.3899598541441938 3.8654319825305774 3.3081724210417427 -0.9312643636510285 -2.0266108746283678 -0.8455126739055051
Ni 0.7757710997366233 1.7554137154171725 0.9615190044973785 0.5528856529275447 -1.4781130663558737 -0.5807774942418061
Ni 6.459088350356494 2.801543752352144 8.713585599759194 1.3022640083016217 -0.33733182008450296 1.0127140835870883
Ni 0.9730371271071542 8.661663625718898 13.313636283132645 0.7592778738759762 -0.010094922342156809 -0.262316028699245
Ni 5.0921455992620634 3.014427667890705 11.179298147067604 0.45205624291329244 -1.1293740328756936 -0.35675547602675334
Ni 8.879572037928444 3.123036964205447 13.121303397948173 -0.44727733346741033 -2.073602412886558 1.4919170621185016
Ni 4.846718978939813 8.722768589871599 7.656417517354624 -0.3081220312897661 1.5814708992189344 0.5764333583404976
Ni 8.4246360248782 7.186605638279228 7.089883611268455 -0.7317105057806689 1.23215902395442 -0.11224716493289057
Ni 4.808331451498039 5.2720113938198665 10.646955055248297 0.17305992534488904 0.821417066408882 -1.0412628417590584
Ni 1.6318148260654286 8.930255133290494 5.236151961920154 -0.06876004028353319 0.6207470926562084 1.3120444847271533
Ni 5.7860201998274965 0.28017301900764846 2.823936787422719 0.2326490977624316 -0.5448021045884617 -0.9321783908248654
Ni 1.7705058492025616 3.6137037671256076 5.098462109362731 0.2710840046998622 0.6532759185218491 0.1386973887046192
Ni 6.50364696647395 1.663471951658499 13.357499486538309 -0.9587746532561553 1.2958215951103875 -0.24635976248030472
P 0.28684469297318455 6.046837254294081 8.596824313947648 0.2074476587961395 0.3381064934669984 -0.14073858750436408
Ni 6.834862905651627 6.474460140728395 1.2565809401708845 1.4816789293302612 -0.1193107566478913 -0.5721036206168921
P 0.1338930483012223 1.6406799398578342 9.249598718182149 -0.549035425943519 -1.5497630265926923 1.3020968865961382
Ni 8.615427070082376 5.698925816901684 5.2597279443516705 -0.37958841476086885 0.65167000748731 -0.9954864068548919
P 8.785411665250114 1.3661503907659822 5.744727972640492 -0.32112564263828564 -2.210856384276431 -2.043013227245791
P 5.816372261350181 2.4382139151567612 1.8434719813778269 -1.7776095607601579 0.36749703081397356 0.0018069713017517266
P 7.9686093511405645 8.414092971566728 1.7671359873351014 0.17474065548142162 0.34119027459864465 -0.40139702599552807
Ni 4.632809655917377 3.8494169820097013 5.877520106179482 -0.4386823927095477 -1.4289216922328876 -1.2191924364914228
