# total energy = -340872.27960941853 ev
CRYSTAL
PRIMVEC
9.23992879286823 0.00000000000000 0.00000000000000
0.00000000000000 9.23992879286823 0.00000000000000
0.00000000000000 0.00000000000000 13.52356977467878
PRIMCOORD
 96 1
Ni 2.3550823022965877 9.15770271180845 5.612822492759244 0.9186525884242889 1.097729409387219 1.0607155511670312
Ni 5.786006478980048 6.138750002320252 5.978648831341941 0.8407355642318358 0.8588826674545079 0.5724754021340142
Ni 5.613561687066327 4.149476482741568 2.22737262585467 -0.07893749503716728 1.1371886438241061 0.8757244216021951
Ni 2.2893309686815178 6.373231676455949 0.8370728732700936 -0.18915605957580325 1.4939271505699947 1.6053531051531706
Ni 6.178999132340944 6.764210025330042 2.7302603728567725 0.756556104069439 -0.5297750350520102 0.254636143556484
Ni 4.737431634595714 8.371920683521108 6.421451169092768 -0.4284635431950169 -1.6752266902158568 -2.072456986428205
Ni 3.8611352634060068 4.274769917792207 10.109422774121414 0.03354749693814223 0.5899182802008098 0.29641836969959273
Ni 2.704296172820468 2.208167433763759 6.433960184754387 0.9652386637139441 0.46505522627612167 0.24528504135888726
Ni 2.2479822871290396 6.83701142464892 5.547273513585739 -0.33924626349839637 0.25893579937310246 -0.17564079869818783
Ni 5.523204422954219 1.1666796147985867 12.62832347076806 -0.6217256545193938 -1.1021846169450955 -0.07650034635058438
Ni 3.247964345751478 3.5177979876234393 1.9046052796524662 -0.22266704684905525 1.6313988943976292 0.6278183976806929
Ni 3.7478167761301195 5.112905382878733 5.456246354632835 1.04044651650535 -1.3619416266679125 1.4708368444094346
Ni 8.151723939369798 4.7101738445220125 1.052010249926505 -0.33894621575947437 -1.6681003635837206 -0.36990512603483394
Ni 0.24563519223670147 8.268803077682971 11.018071832146395 -1.1647994635628391 0.5105902345934432 -0.5436633629983282
Ni 3.9877962079247493 5.842342325108643 12.048675938932647 0.2402585346785733 -0.6272288437258102 0.7662684462611965
Ni 8.58608375414085 8.926658291200692 8.435435030364367 -0.08162172673754975 -1.2385759832243572 0.2495638712398992
Ni 6.260061028041479 4.178850216519296 4.61662233701042 0.3798115865152685 -0.05060856618548704 0.6913125615795965
Ni 4.9449789161670585 8.869601730622692 2.5555083707120674 0.9896137501241988 0.2597220427198237 0.7891417513149442
Ni 6.3662832499693645 5.225946672289463 10.548898737490367 -0.618085229553329 0.377881202261775 1.7861173411208529
Ni 6.500049699764947 7.439916781363827 8.149965580911823 0.2761840449305889 -0.6765161199967122 0.07165278845029595
Ni 1.740959671971689 2.8743570630938455 9.34922241281646 -0.08080951524889954 -0.9310417061172611 1.6810322411540404
Ni 2.8392176137208676 8.654320628613487 1.3887086368385795 -0.5318571143920195 1.1217064890281068 0.4462833449852572
Ni 5.175043904317931 3.2548296128785155 6.798366346274599 0.34441443796289717 -0.12386032369178669 -1.0089371330431591
Ni 6.620760130111668 0.4337342715886817 6.9692634501078645 0.8302416066790476 0.26963184563436793 -0.45841998034779113
P 6.820795349537278 0.8771649245005302 1.1216783893762325 -0.591062421107582 -1.170561819967913 -0.6206838435184407
P 3.0979356212000613 7.819243579972518 9.420721906161987 -0.01381119485147944 -1.2537370072355118 0.3767589157318737
P 8.771122569061504 1.2240872926724522 3.664306299287371 0.446338880813541 -2.298304744998087 0.35986831062412217
P 8.237322640130056 6.969382645189882 9.53001917640734 -0.025510999786910904 0.10389313654124042 1.033887889451226
P 4.517299569946274 1.1442543075074438 6.720916338757051 0.004621557932411396 0.6583404775289501 1.4693713156075014
P 7.675461047315956 3.7824572693458163 6.925055010579857 -0.2606754077720285 -0.745006965779259 -0.5068284535581657
P 2.157828301451379 4.3232795441945555 11.682835740456692 0.8422877392103043 0.5680145381491831 -0.4409364788510471
P 7.6927119944575155 7.583015559286338 6.291083165124002 -0.2677834795717195 0.033621544709187254 0.1866878005409688
Ni 9.187556921885783 7.259035934420516 4.664711546650616 -0.8239876553495359 -0.5507737487908644 -0.22965042014542386
Ni 5.255080167917389 1.089415329850693 4.588114384564865 -0.6109666162306768 0.22347488746233124 1.088797654115228
Ni 1.9857438667623606 4.524072437784926 3.979729750048701 -0.8390687180523744 -0.03699817449090402 -0.37348924384166643
Ni 7.373869770025924 4.994588094101195 8.689664280413796 0.3033832310532001 -0.019340095089508628 -1.332098832274867
Ni 1.6765388881093697 5.7277487276530366 9.11047743551466 1.2823469576627207 1.119505110501414 -0.06122439402812037
Ni 5.851914891385373 3.2677655132524754 11.622169139681475 0.9699255276666523 0.13320602657274477 -0.9195702151425518
Ni 5.003135028276846 7.074800993308815 10.222709845639251 -0.7892191415200989 0.4499389394599735 -0.20069208523986082
Ni 7.44060053609788 2.2601512734094 5.377255126985019 -0.01799103726078192 -0.6195217048895394 0.5769594060472967
Ni 1.3043545544928723 8.777682918536868 3.6842395977707594 0.10202934385962428 1.667119230617374 -1.79553683466254
Ni 1.9146333744209367 6.8100955119422455 11.520580742066118 0.9069329859945154 -0.1983266703314778 -0.5860886220420746
Ni 6.904767822821953 8.72018284137462 10.569278324536656 -0.6593498926300709 -0.5411064009044294 -2.6976873116667477
Ni 4.866236242604999 9.138520619539637 8.666254920701348 -0.23478722715135694 0.5695350885587676 1.2462723234273505
Ni 9.00261974618235 3.2525103907400412 3.467551254599444 -1.3260315430348648 2.9589491880698655 -0.05141692101939532
Ni 0.7896424705560865 0.11562939347840648 13.61593603665434 -0.2788147976852166 -0.4135308331445846 -0.7377430851279939
Ni 3.7375604551193375 6.596653155771911 7.626495892421867 -0.12301803029614941 0.22761153533852413 0.6680939573712881
Ni 8.387961199984819 2.8749206987529963 10.136875526693608 -0.4056894827232949 -0.14314128340858573 0.19973100687817213
Ni 8.71567375610141 5.172752401965973 5.591292534572555 -0.5111139683073972 -1.3612700545221847 -0.7685004209155087
Ni 7.815926445519482 0.3461730099431163 12.321608652937057 1.2391578238697563 1.1771430727298564 2.466208065842701
Ni 0.36971542463083906 3.9970915763363233 8.130221700969626 -0.8566787178246537 0.8863466772027316 -1.786901527585045
Ni 9.048616111940618 6.329499093263126 7.610645718492232 0.3951610723881453 1.1306726970824594 -0.39658314954665247
Ni 6.008596364700541 5.348985564703497 13.499659848157236 0.5296372239225653 0.45712131614102564 -1.0251394538346343
Ni 8.974585802086214 0.21492536474892113 5.658667323684557 0.10052627695153656 0.062418928556853784 0.7093413940568494
Ni 6.558131892444026 3.119769573045538 0.45206074644704725 0.6112918607805794 -1.5723342270249887 -1.6485543231309931
Ni 1.787242475523949 2.104088875326415 3.580540800408679 0.7232526048213027 -0.5914858817982458 0.4131204850800434
P 4.012956534152101 5.312145968424227 0.7362366058621939 1.0004694618917802 -2.3590218603724855 0.3793714136540563
P 0.18802331193550423 7.355583950854449 13.138310255096814 1.1977538070016729 3.0645917032020447 1.624388524518067
P 4.713832856342076 7.449895904509453 4.357781438477674 0.9660058808972718 0.7387000497246246 0.8840969619366064
P 0.29020306499652804 1.2566857616148306 10.901120204851193 0.43964912749819124 -0.8291681711092107 -0.15783179554122495
P 1.6775090806374167 6.693931126584087 3.3838134755072677 0.4121810039849095 -0.5941282045170994 -1.2976025982702104
P 4.319010697071149 3.481540506860998 4.078356750471306 -0.8714728454146926 -0.42076360344759794 -1.075608923339096
P 5.794710491945955 1.496970111061132 10.31035611463013 -0.3982350833277786 -0.8583967289570248 0.3560031712417611
P 7.836522246900593 4.329553455875926 12.17413384471661 -0.3713961087580636 -0.6005562195306302 0.6655069133704022
Ni 8.507618278443946 1.793350068486226 7.683199487718236 0.1550480621485007 1.4165886245888313 -0.1660133029107528
Ni 0.3315231027696069 2.5274531747796 12.58882092699752 -1.307237036036181 1.4807631023842112 0.7729324885449332
Ni 6.520885739295861 2.7310365268792105 8.73038372281237 -0.8165589669856324 0.03208068258462862 -0.0605322530571022
Ni 6.806796857346885 1.9682064818268068 3.124985512874895 -0.22570351968253388 0.02218836317158114 -1.2321196860760522
Ni 4.716004239619133 7.310483858193522 0.7941986794663719 -0.449232143200936 0.16894281785272194 -1.0000935666096002
Ni 2.1211180641758487 0.35217526771663354 9.927395252009239 -1.0700270583759441 1.4498263035960384 -1.0981739531238055
Ni 3.0417476139328836 4.161580789520059 7.726583725593845 -0.25751217955269845 0.36745306494991553 0.2702021163155411
Ni 0.6299626403328118 2.643968677433623 5.593334558845874 -0.5379058916892606 0.7754819944396645 1.1014955612978707
Ni 9.170823410759182 6.390334784736091 1.9193595980218512 1.7393155502759656 0.0397471979909509 0.6577254696527705
Ni 7.031068410115992 7.712522401887351 0.7279105059857831 0.30572550603313153 0.9527539009833722 -1.06851447838616
Ni 3.915678563339924 2.1599996847284366 9.133859999433476 1.1653422234401867 -0.7416529617053614 -0.5723141939658014
Ni 9.465383102203083 4.908527396899007 10.677872436197395 -0.491494908524889 0.31481024194321916 0.408445191091561
Ni 8.578904329433302 2.065077895770088 1.3000339637679696 0.42424359157639835 -0.38873948513251766 0.10793979580678831
Ni 2.4276065037503085 2.147923097736461 11.686528016020574 0.2920914601894647 -1.015581120722238 -1.44900535035664
Ni 1.5499703428790126 8.082304354005828 7.852920348610354 0.6884426962309692 -0.09370076938927088 -0.3567223087959727
Ni 7.054787307444532 8.44209794304984 4.373455129766493 -0.9281111627340274 0.5154755877102026 0.12361684022241291
Ni 4.853272622444523 1.8904340007927933 1.475299705956098 -0.7493819549185029 -1.2775888741524448 -0.29812018288204784
Ni 1.7383632519680585 1.8329708833458966 1.3103540402877378 0.6965614686833617 -0.6320643174412405 -1.5080641041920093
Ni 0.7544013819658849 5.438391116145235 13.082782902741592 -1.146906128222186 -3.897744055769984 -0.6689933292571059
Ni 8.482365552928208 8.36354006806455 2.4062761280265326 -0.6640203015225468 3.041270254867285 0.5985733847726467
Ni 3.500944357421937 9.044744581757268 11.64291462790977 1.5353995587821687 -1.530297461668913 -0.25576125829986274
Ni 7.782958379423562 6.649828946237723 12.199165735933109 -1.3513584518354274 -0.8183284001812293 -1.9907480992934876
Ni 4.064681655790262 5.791809154290654 3.2714596368021245 -1.4502423080875348 -0.13138362865202532 -1.5958338528088258
Ni 4.013455490309382 3.2265554306325748 12.953496894439821 -0.25118495178308997 0.9701826379827807 1.417441716617746
P 1.190149034048485 0.9412807907111775 7.270447246536117 -0.09894273451450056 -0.1444252923273319 0.3299149587951415
P 5.804356977653394 7.899409202575715 12.194594743136681 -1.047118529208887 -0.4366769322437447 1.1823274451442733
P 7.553891303587251 5.181105297636015 3.279140789645605 0.9827067385917205 0.032356047733202345 -0.5810703428918766
P 3.3174578505461576 0.6245249422113296 3.6340667841774725 -0.33428840527248876 -0.45044981765812103 -0.5620968871131674
P 0.9506223587669441 3.8040232632549746 1.7411731143278595 0.32880784177389183 0.721073594892113 -0.2821448904997141
P 5.091644306621246 4.983130582341401 8.142027558046632 0.45562030611546694 0.3428275530917515 0.7973368855312268
P 1.6329818635644797 4.825506636284702 6.1812176392550775 -0.9409939322339664 -0.9049149271232222 0.7077575945094972
P 3.2248645236551217 0.9456235572652926 13.34749300407258 0.23324250837205637 0.679486772589262 1.4914046412584574
