# total energy = -381173.1195993953 ev
CRYSTAL
PRIMVEC
9.18716532399369 0.00000000000000 0.00000000000000

0.00000000000000 9.18716532399369 0.00000000000000

0.00000000000000 0.00000000000000 13.44634510456775

PRIMCOORD
 96 1
Ni 7.151822175857476 9.650473844685221 7.390770234442088 0.65050246954177 -3.528003994558105 0.5986428045580012
Ni 5.464544180732139 8.011924573294174 5.583836763513555 0.06420790213647651 0.24667369417629775 -0.1707194501371705
Ni 0.7092757891376378 3.5029466226388184 9.087981392482494 0.485244556739803 -0.6218590947734646 2.195890249884902
Ni 5.949176327358749 1.326479646993166 5.798185268804249 -0.8191897197402601 0.6252794333089232 0.004325109737915132
Ni 4.045163920164096 7.219614267191437 3.7966832590631387 -0.5274700410679174 -0.5426765736050266 0.31524938636316674
Ni 4.521059072772736 3.090249978810001 2.0471521144476186 -0.6866097567872885 0.4255509975339123 -2.418398916779222
Ni 1.9898480908012646 5.054254574161689 5.61246396999094 0.3367548645351104 -0.4473074153743974 0.3693867916375187
Ni 2.668127303580093 7.961872897784293 0.2685518607130058 0.5508639945118254 0.43402226822971707 -0.5248272041284316
Ni 8.278490168910771 7.5653089158856055 9.524073152259533 -0.6861986373917989 -1.1306148472613304 -0.32964525007352263
Ni 2.1735913929667627 6.99000863680543 11.319388534192141 0.8270074160124661 1.426753223826659 -0.45931858090266053
Ni 8.832255732977151 8.205498142125528 2.819954394159445 -0.38341704447833963 0.7559436672964207 0.18271133239172405
Ni 5.0578926915445654 8.808424226686284 11.802434976121063 -2.152812187748505 0.0984429120599466 2.9655918901973632
Ni 8.027322262015643 4.831603627762646 8.377705121064563 0.608803547141087 1.1562150643279379 1.2852882996792316
Ni 6.410261769812849 7.400132874403931 2.926905858050916 0.3982625941316045 0.4262413387327175 -0.0793316451517924
Ni 7.559833365481073 2.5368978371734947 7.56632501634658 -1.4590102840881518 3.300167230582652 0.2307778488816477
Ni 4.473046947916892 6.949134939238714 9.775035266656236 -1.942066317817068 -1.469903533961888 2.8195059223381573
Ni 2.2620729801245587 2.3332367610532563 2.356054923032678 0.2728434105931301 0.8685795830272977 0.10780095623607885
Ni 5.2374190849253655 7.637565969462188 7.944221597461763 1.5247644476658255 -0.07154814455163161 -2.7565637742879816
Ni 2.9972023705933926 5.518987321163776 13.087179169460358 -2.3462108246507465 -1.9131457781279764 -0.6811729020424333
Ni 5.361225321924477 2.2733548188775203 3.8237642656528004 1.0782489320651043 0.3289957894149818 0.19684751468279002
Ni 0.16907966793618076 1.8541628493171523 11.651459535747248 1.0707729354030333 -0.7550712919937964 -0.482211426340434
Ni 1.6414983513908044 1.2432531182773032 9.196829087252313 -0.01880710540417406 0.09596771104657666 0.2461525315655051
Ni 6.126415116627588 4.9580741426431585 7.122703456046799 -0.017914675496891727 0.26384814907305526 1.2246303196775425
Ni 6.683598306114244 5.960375481625736 4.826538743638454 1.3413815431283738 0.46413914221975555 0.4147827032738147
P 1.0038447827207673 3.9740920108864812 11.632957503935694 0.4222250184844728 0.08451138958051897 -0.7143090224747698
Ni 5.295096107475116 5.017533475223914 0.36687657656780726 1.7314554308015986 -1.4949239672656254 0.9241678618155633
P 8.599342723152164 7.383256052100029 5.188971488443388 -1.64568085823794 0.09399361803934135 -0.6509752954131305
Ni 8.586241825707763 3.3584417026507625 13.209554964852112 -1.2364090574800255 1.7501450367913018 -2.312674640566514
P 1.6466156023561136 2.103190146742052 5.4043948920517515 -1.4466065111071602 -0.14979684105189042 -1.5592511685887855
P 4.573618844357178 6.859661138249225 13.005802017080791 0.9780862091005735 2.5848480216758127 -0.5477796991595469
P 5.512014262846594 0.17887134850858016 3.643892434863929 0.07528729987908969 -1.470482032173177 0.4957521411393462
Ni 7.721371289579872 0.9390568943772125 13.544368335192038 1.594680713040989 0.386358900715483 -0.4956279568566561
Ni 3.5458506836944625 0.03324467566080362 10.074754584999065 -0.3755499830254371 -0.7208388531734876 -2.021733234821092
Ni 7.008566710324145 1.1607523756049947 11.34333671747988 -0.39725909256775455 -0.11255981107730291 0.8068435394700815
Ni 8.949162408979948 2.4868094130031797 1.6955574683209158 -0.4964273128294999 0.2842110290001234 1.9519444961627286
Ni 0.48212037568600785 6.690617300256967 6.8888313061845095 0.5263472403173839 -0.04413504264600141 -0.5159730961719113
Ni 1.6881232143152995 3.0685039589987144 0.06140609286719873 0.5361714254966573 -1.3837684927350167 -0.6806895346481115
Ni 0.19241782346073152 5.761335549554959 10.598153812233061 -0.28069375987548434 -1.3141095947862982 -1.4567284300325105
Ni 2.7628469758464083 4.769094156365943 10.111221199463339 -1.3138828234874729 1.1657356022238634 1.6571307519460943
Ni 7.694765259426307 6.050997678253759 0.13285100104820946 -0.7711849097262073 -0.2674991155620812 0.6918010711802408
Ni 4.616228916129357 8.522069477426465 1.788982669023474 -0.9912196611587379 1.2039632782464942 0.08897893843356934
Ni 0.470381934827165 2.1154733864918156 7.232694952872598 1.363692290810432 -0.38103568873035665 -0.17125346826376958
Ni 1.6974849355606316 6.669799184121617 8.9498202100017 0.5969510186778751 0.6243656632454021 -0.40549305044177264
Ni 8.420891228089031 5.66419046570006 2.8162969837298406 -0.9255567717432898 1.1511597612922175 -0.4496805435922643
Ni 2.648365711432194 1.1087254595968337 6.979231173416912 0.26129298675136936 0.9647900062122997 0.02406809669279726
Ni 5.309630202676407 1.3926088614425285 0.2573912925394734 -0.5480805182294174 -0.6396881525350855 0.24723393755514197
Ni 2.6008588806573045 2.3744228222336528 10.895761001317497 -0.7345456612366188 2.8632339593537273 -0.33972268891418267
Ni 4.833266504647244 2.0042443785259314 10.623983526934976 0.21845660831213345 0.51414684159645 0.5787344956698484
Ni 2.3078801853544175 0.5192282542748411 11.897541428038435 -0.5947617243360402 -1.7720737185435933 2.2849180392785358
Ni 3.348776804956857 5.02425848008317 7.599914210698945 -0.4515307094271256 2.2758219905145385 0.16154061185137986
Ni 0.6052394127350217 6.010059670531286 12.705249422862643 0.7128620056155981 0.06515612498235876 2.2173013685708263
Ni 8.392677444041519 0.6385006252930202 9.447334599543135 -0.16546000151044407 1.8799824040021302 0.6987479348117193
Ni 3.6266426136566325 0.6222953847585341 4.640992000962201 -0.45091544444062986 -0.5253491380701727 0.2759089368923313
Ni 8.018741449804514 3.1238566287760707 10.302656914973998 -1.250806463852278 0.6701559821066394 -0.11255801130509004
Ni 4.501609844238519 5.408024740986031 5.68933665531792 -1.4153395826730786 0.9751991173607655 -2.361824877038919
Ni 8.360549927657882 2.2971863251683855 5.303318620247022 -0.2110592874067978 -1.0122996217574889 -1.3478427253726852
P 0.9942074465221867 8.579452510692748 10.152608459559607 1.4560242048766343 -0.6374860026774439 -0.16371679356709226
Ni 3.867548457125817 3.0499458854799992 12.778855152277119 0.8107526447165005 0.5062314434041152 0.18888532241291986
P 6.08641419974616 3.8314796469107297 5.285059129594325 0.6961896871662397 -0.3803399482149127 -0.43515303940005057
Ni 1.0520682123741023 0.5327673794949058 1.1909533434654267 -2.3945200532790953 -0.41862316006582745 -1.5707609690005981
P 7.213734481522141 4.1351246409043245 1.1857662700452947 -0.4936050128893563 0.33689756076056177 1.1268823768020915
P 2.622375221340884 5.290061540995781 3.5372891645300615 0.5400712747716957 -0.12224849911997655 -0.9960906160977943
P 3.479298859650119 8.605755364397739 7.74350776390826 -0.6635091662140831 -0.6060018160262337 0.872799020425284
Ni 0.6198139314627891 4.155299655482096 3.7861272063537306 0.9928803366906127 -1.32487891748766 0.050149881381513634
Ni 3.2891061675786117 2.9977719748301057 4.432036361590064 -1.0722253515788436 2.1194816919171755 -0.580983182494709
Ni 6.2650953739369974 3.2930750229053865 12.375048009407067 -0.05863349337249257 -1.0499248883094305 0.6013640601439062
Ni 6.857989074199519 7.511821240625229 11.723410656725726 1.1332494566706999 -0.8834259040115109 -1.03554393699741
Ni 5.943811022935516 8.863749334968317 9.85684329707938 1.5611306449996856 0.4634577998820147 -2.321545203583266
Ni 7.322335960267059 3.6329909447464503 3.3922440392336384 0.272665233144053 -0.5135063797989736 -0.017224591408402594
Ni 1.3174486636917315 6.981262455622352 4.302642490772098 -0.33278610969534944 -0.9383055867685259 -2.0196799518364896
Ni 4.408332556894203 3.0493946555735025 6.480613405345975 -0.00602975113384768 0.40564166020449494 0.4863771276823494
Ni 3.805856643423751 6.172837861919701 1.6245471130495266 -1.1869405184362525 0.6706506623548708 2.0548647272677383
Ni 2.748533372607716 7.514209903553381 5.971253085113933 2.2153020787526105 -0.44432159327319604 1.6637495428141926
Ni 1.151013980590223 -0.18357977062657105 5.396919295803148 -1.1366677383236294 1.3322109323726994 -0.08030892146339717
Ni 7.0223290836563415 0.9797192871464373 2.270576620148778 -0.25623536972280386 -0.21699236506178113 1.0310619899666567
Ni 0.6274484656677655 8.873744970606118 7.901771382362469 -0.10268188984195865 -1.2452032587328876 -1.3277007032071715
Ni 7.1018072490080275 5.104012260388106 11.30442264223076 0.7382840452331285 1.0871727169172956 -1.066125409328693
Ni 5.436964311077096 5.101935961073635 2.936534007084388 -0.009503568615061053 -0.15236640155127953 0.23399301338483575
Ni -0.1146934879282149 8.622218764271768 11.976901078960225 -0.29918127715671056 -0.15651796182580785 -0.3114572663105862
Ni 7.572915888595258 0.06963687408770222 4.688041310914699 0.3751861719281151 -0.5279017292886973 -0.24979989851010528
Ni 4.8809938273847315 4.489629780937328 9.358628845556698 1.7910348330271282 -0.7265245907043553 -0.7842993356209782
Ni 2.325877841801528 8.802186141577765 2.754376409616578 0.8450714726030285 -0.3090589412817387 1.2967595335436248
Ni 6.406752272741488 8.212710066735522 0.4494159053335708 0.437973025347349 -0.5729572268664391 0.03899592164722316
Ni 4.803849201970547 5.171106127173837 11.544910469687519 -0.6373631039463346 0.23942215482020704 -0.345451878088476
Ni 7.419196242003601 7.24425424401183 7.231834115501953 -0.10101041567680669 -0.39928589318979624 -0.696911910044245
Ni 2.967537014458773 3.16726598391267 8.539343185263043 0.5690725471000523 -3.1048379523166014 -0.04867869615262584
Ni 8.394634310209582 4.410271048732049 6.06365575433994 0.46357169975205964 1.1845771604103985 -0.3390940541912483
Ni 4.863042106763162 1.3247983957783513 8.028247409542047 -0.3730626978272091 -0.7325815955317125 0.3131570226105123
P 6.470612257409107 6.194427699924146 9.26354995513465 0.40439827471569706 -0.4232228636213679 0.3637987560267799
Ni 1.2072669925481905 6.893993574258849 1.7654920065581259 0.32336404505050115 -0.32038979291352565 -0.47372472902566154
P 2.9556580099737735 1.2372998352871412 0.6904402632326525 2.4499620362974843 -0.3853410009739299 -1.169538006689089
Ni 0.572624057884135 1.3560347571464864 3.5004596570440083 -0.8714417350664411 -0.6819668586986384 1.366161064065899
P 8.801818654973435 7.952961347629265 0.5336374040306594 -0.3782509268963679 -0.031212678157378503 1.106966868825087
P 6.458035028375879 2.012577137279137 9.26329455194464 0.42700829880572916 -0.535041168546956 0.844564451059623
P 1.0248098934978505 4.753071740417112 7.5649138677859495 0.563661660497126 0.6328269066388779 -0.6995038391411372
Ni 0.9091563468158209 4.68107192746356 1.3436780200758565 -0.17769485301373913 0.17598738340432918 0.8764119345875229
