# total energy = -340873.7468581211 ev
CRYSTAL
PRIMVEC
9.17402970022200 0.00000000000000 0.00000000000000
0.00000000000000 9.17402970022200 0.00000000000000
0.00000000000000 0.00000000000000 13.42711979140707
PRIMCOORD
 96 1
Ni 4.182302608018546 3.850028420098733 7.441685884714375 2.4460447035209487 -0.5679554027764735 0.9714859301752365
Ni 0.433317870328703 6.54127595308464 1.867846242904434 -0.17341962267715294 0.16198309870543715 -1.7678015735308008
Ni 0.36852536695747606 1.6334176705802692 3.4564625386067 -0.3845498725312022 -0.05470613329362837 -1.3137941204284083
Ni 6.074960014710746 -0.0658374253736032 1.6457081183992641 -0.3424498580373586 1.5305489155580867 -0.6698968149079817
Ni 5.163997196519699 1.385168422254525 10.168303889870272 -0.7010215613372442 -0.6542588512604086 1.4424572648254772
Ni 7.373681553485099 7.330618657267766 8.761880157806216 0.7829222527677936 -0.1013711414503351 0.47352084054497157
Ni 3.308329478269827 2.7908224532123533 2.4022591702093083 -0.7819539753172533 1.3501415487091908 -0.5041835597361511
Ni 4.100314303055974 1.3219593564391379 7.892582113680069 -0.5012203633427691 -0.23363331605257184 -0.23611263083099981
Ni 3.7848836339804364 7.300069137795306 2.403897651944378 -0.24845649710833342 0.5752653061743254 0.2512901099023866
Ni 0.9565393985932015 7.827603377502448 7.68082256916865 -1.9866477039718689 -1.5004531246139707 0.4759633885481931
Ni 5.665275362734296 7.068920281150242 7.109632790914469 -0.41698819556556577 -0.5964794783580952 -1.7474803454749455
Ni 4.925059588513639 6.0212460698124755 4.055903741850502 0.8806087462776898 1.1742924906549388 0.17574364282463925
Ni 0.9940795288278261 0.13295371051130872 1.4856304711695554 1.037477149464381 -0.6168521284771763 1.432281866954372
Ni 7.840025013948607 8.637358298149904 2.978658880027577 1.84431220429403 -0.22615731939050082 -2.0015444185780433
Ni 8.90694633995701 9.268522379286741 9.714669212987904 -0.2348363352217375 -0.1811668707227396 -0.38224693542963845
Ni 7.797448341314469 0.7133643061894445 11.899879093061823 -1.3956284773973964 -1.5365074471343667 -0.006160363174441004
Ni 2.8746363901193748 5.823151242794817 7.336860667192408 0.22238808215605574 0.26546434452023954 0.34634456510607453
Ni 2.175593661962499 4.293317543494888 0.7640921043645074 -0.65383770456259 0.43280382244158366 0.38084516998610535
Ni 6.29988887910286 4.3904796938651005 1.7047741923246325 -0.3948651384142812 -0.5180214940605078 -0.21073532840847578
Ni 4.179862316072698 8.591809239837364 11.238539792871286 -1.4838137162850769 -0.09000455148460627 0.9524445972730694
Ni 7.173320741089155 5.76329987191244 11.015246658005283 -1.2580490043473043 0.4808086324556364 1.038212742078825
Ni 5.2677554743676 1.076379750806032 12.770050504831747 0.056272706449799856 -1.2814239316278189 0.28254881080635214
Ni 4.935160195402281 7.923215116824359 9.146003210351402 0.16371627934645996 0.28199165275130145 -0.23023586033524862
Ni 6.99656470755286 2.7339801641278627 12.973350676398557 -0.6030126514909226 2.424581648551166 -0.7547792146746743
P 6.652290888560984 8.964559247550715 10.171298293220365 0.6273329734038422 -0.6607552576180297 0.08991353443269676
P 3.4322155776560366 1.8203201811545626 5.579532127345275 0.30065991858476604 0.5549731315841926 0.40749131181872406
P 3.560954738844328 1.8442919212090774 11.634667063503473 -0.1743591037722868 -0.7523045278819366 -1.175184663451905
P 5.839517712085769 5.2220963276966 12.87283541811027 0.6593241815984581 -1.5289802855193861 0.5896812244893392
P 8.906845425628422 2.5449584526532276 12.056855918194929 0.4059771891670427 0.8205097241032643 0.6036374295591153
P 4.17525695307715 5.008442346016694 2.2694522441759455 -0.6161813276623969 -0.7635204512024141 -0.1811067069087655
P 6.080235081886921 2.447585299595968 8.72509046321509 -0.19375499180039535 1.1867399723896723 -3.4625017990902367
P 3.753306623162358 5.023056575602167 9.512295618438129 -0.3011134611824169 -0.8852971528922946 0.08009629123195883
Ni 7.2827393953678365 2.04224913777866 2.8578956204096624 -0.5477655580921599 0.661315500996874 1.1871762885961425
Ni 8.749721816017372 4.5026230350156515 5.262074915071098 -1.1302646630107631 -1.3594108898262587 -0.4955055723461789
Ni 3.088749073292861 2.8873332474616817 9.505958198602821 1.4222288535937442 -1.0126346364994043 0.08867272004706019
Ni 4.220833533479304 3.269798552809068 13.222826492518134 3.554485585788401 2.2673113819403663 0.9246234612957431
Ni 5.874819379031721 5.4316219959342815 8.892445868341945 -1.4088665733542254 -0.08232955143785177 1.3222828746257098
Ni 7.090240726571862 8.562443170218343 4.989732829496535 -1.270570790963399 2.2205723260126145 1.2967014266121797
Ni 0.4444386293390676 5.3949350504777165 7.132714650071438 -0.14170069430731724 0.8734939896097795 1.8006556439463441
Ni 8.554636070797603 7.447385709473607 11.677660237093784 0.4825163591753625 2.61467410389831 1.4899080021082727
Ni 2.5811775225863407 1.93404145544303 0.11743859119244328 -1.5446820125253589 -1.611250187363896 1.1846152127371856
Ni 2.1102195250974125 3.0344663385425497 7.378443792391451 -1.0843493885358875 0.26726026007839776 -0.5929169578178175
Ni 2.4108983541394027 7.6978734210880235 0.18325216408838027 -1.514431955391566 1.5930336643558693 0.13906017136067664
Ni 6.317328709888789 0.15330537837848648 7.696640431473279 -0.380558491983622 0.22205923806172725 1.304382083085889
Ni 3.9008800676770625 3.975611715011191 4.62835494921203 -0.7145741032106984 -2.2992704513454663 0.491286906279141
Ni 8.229508452147774 0.711332258572883 6.697353723290327 1.75538777324748 1.829505992519133 -0.15472795980492063
Ni 8.688732865430914 4.0675079722350995 1.253261468551567 0.3019963780080025 0.21910426919846135 -0.17643346980281227
Ni 0.26498910063246933 4.745569694075606 11.247723914175756 -0.9333886090828829 -0.6161489317625647 1.9823447057211407
Ni 5.949982205769815 7.528575873837348 12.463791113418857 2.284612849333291 0.8420877073843563 -0.10687793020117721
Ni 3.525864074585423 0.48028798586835475 1.9832390254355086 0.2851145146509993 -0.05448758952491907 -1.6576169475538933
Ni 6.229102064613524 6.817083987144699 1.9125054203194274 0.3838893561290679 -0.9363970568919036 0.1898021778002344
Ni 5.746685703814955 2.09709148835114 6.3595136514474095 0.91935449958732 0.5229168744795961 -0.21251298913418887
Ni 6.961253866577037 4.949334071553917 6.967641743576638 0.3003601279561602 -0.8913305035705682 0.06450820698571472
Ni 4.725093259402174 6.028576119679891 11.298142547544145 -0.005481077719229269 -0.5234740325346469 -2.3886751644625446
Ni 2.95778979687564 0.10448669581970545 4.218935426698868 0.4647253537405287 1.1907190116420783 -0.5638838038102612
Ni 7.083240941779824 6.36249245894672 5.126527706315087 0.6073873835198507 -1.6356504705851314 -0.7741913006526988
P 7.8160074037447345 2.2735723009912854 5.043588971857816 1.038821065086785 -0.4620742892709268 0.4649510965980896
P 1.8777954783001942 4.9151516362523004 5.598719610821746 -1.025668586865227 -0.4358279539798881 -0.264147425481029
P 1.6893425566775986 7.848520165609718 3.195896237775333 0.07710918357917688 0.06460050958920487 -0.7044997496938319
P 5.363688304735016 8.566865052616459 3.6963514935104467 -0.8722367201639107 -0.3962910722275304 -0.18057011767900516
P 5.834600432074586 2.1042839277704815 1.21183154965138 -1.02952164206273 0.4692553804003983 1.0285459084130224
P 0.9709334514617562 2.43710855748259 1.5706507930046936 0.9468501339044274 0.47275645157512125 0.0392013527898099
P 7.852666827111685 5.4817305470930116 3.002599428380528 0.0061115122143765716 -0.2895972330127013 0.19176135840913427
P 4.56481378351529 8.160116090198922 0.40185186527207073 -1.5790250087816031 1.2805410148022334 0.3156116547985919
Ni 0.9408426334828781 0.574317205037413 12.571100658230057 -0.41481458495301465 -1.2746243922074822 -1.135498914826509
Ni 4.9787735334119105 1.8484202346513015 3.637272575943258 0.1630123113008999 -1.2844647753366716 0.996288333930897
Ni 3.8663673673000694 6.060171478557713 0.26077913832438787 1.8068928831053075 -2.4239203608180837 0.027178360187004806
Ni 6.380335947047001 3.740508851491463 4.615182877122373 -0.07833251446331671 1.5275309546673692 -0.5002279175225127
Ni 8.23524222081753 1.3724073467031168 0.9364666212341206 0.2725629032382338 0.36764126970132166 -0.6056950834190923
Ni 1.1213233231470454 1.9778566221098355 10.572755675207958 0.2916569437552074 0.5462617198531238 -0.09601039135905401
Ni 2.4976938507546973 7.441266631549244 5.488147780988202 -0.5516489523069661 -1.6059264611581374 -0.1747689376161958
Ni 4.574327252492148 9.002695689726995 5.998216502625774 0.40725219922472444 -0.08554831548546557 -0.47546202343174243
Ni 7.666489064897248 2.467419552178387 10.145384411042032 0.7190575929033487 0.03354158340087127 0.45285379911392337
Ni 1.6827005590505535 0.4097736400662052 6.491247215985794 1.2900646380219525 1.838491483847195 0.49903903942073413
Ni 2.2360046486670457 0.2758814262990309 9.151146171497427 0.26723532037773334 -0.040703134146316995 0.13317363067291257
Ni 0.3398170752802495 6.818294959087751 9.824220890699724 0.7372676881534722 -1.3158512600677532 -1.4984119258142259
Ni 0.4476816488986815 9.021172185888416 4.642292135392977 -0.3739476715353237 -1.803820671937887 0.8623032631002827
Ni 2.480639329223376 5.593947280482535 3.6756475428961988 0.16958636497399182 0.8485355198922291 -1.0094688371769132
Ni 2.576361156903746 6.32771371170345 11.615237385638395 -2.3553294991225626 -2.1357590889209606 2.3871345594483016
Ni 8.512463055477816 3.2992655367566766 8.009921625349898 -0.5264344007145514 0.7902388410338648 -0.775241082073452
Ni 0.8846021607579654 2.330579722613465 5.564305989967365 -1.0452297968266062 1.3068416003699752 -0.5424274337086981
Ni 0.8211380569121475 3.895559130351529 3.382936358797701 0.397585879779554 0.6718454539939204 -0.5519436007292494
Ni 2.8164455186437576 6.992665744857427 9.546279894694518 0.7487291518258524 0.19819502984961995 -3.4319686634983864
Ni 7.816484453298058 6.0041456781317954 -0.1680581358150212 0.04152280183413495 -0.34041123034077503 1.9974789902594179
Ni 2.6197910143159437 3.722151617718373 11.581562274188679 -1.0797172890805147 1.8613858719468654 0.7679329784478128
Ni 0.3176287666327756 6.492488462227422 4.17258455817555 -0.8723120534865364 0.028343841250015697 1.3226564559150447
Ni 1.499183265498884 4.568914574867899 9.453713015886994 0.5102570196237406 0.5135212921973091 -1.6946349195391395
Ni 5.800206994085923 3.7735445330591273 11.035763458410148 -0.9457841545337582 -0.12946918523813186 -0.17791751054750649
P 4.905674863394928 5.228692455174287 6.053684522035497 1.5320635524304 1.0036074933001295 0.2343408836425577
P 8.094732779303964 7.727358753095374 6.666296879965969 0.21800949347238585 -1.069714155121216 0.9350922220375508
P 8.004377759098485 5.0008921194323595 9.391719509029596 1.8082684232965955 -0.914014318321329 -2.908253975707843
P 1.8201642226467454 8.12600704713628 10.952206394339534 -1.9297715596101153 2.858109236532652 1.4064541072579906
P 0.850689441934575 5.725512042871282 -0.262461655402841 0.6085749760700487 0.3190595041378763 0.4373155942690081
P 8.41408993316455 8.477390739278654 0.5031248984277514 -0.4365373213420869 -1.5724998060685758 -0.8142439456992104
P 3.045466000358609 8.17760179113421 7.423277276374004 2.0548724405772223 -0.4321723595051718 1.4774425226514103
P 0.6817047291025212 1.777266458967101 8.424605206203388 0.33664482131980733 -1.7795399450136513 -0.1282365983826114
