# total energy = -381161.5088908866 ev
CRYSTAL
PRIMVEC
9.42348542582764 0.00000000000000 0.00000000000000
0.00000000000000 9.42348542582764 0.00000000000000
0.00000000000000 0.00000000000000 13.79222346121206
PRIMCOORD
 96 1
Ni 3.6417154317346565 4.541733693957069 13.192579224031627 -0.5324122155645411 -0.4637012833513885 0.5594080274270946
Ni 2.4620081170479353 8.509454609856238 10.999670988684722 0.09425124257610219 -0.9022561493441364 0.09650352894538865
Ni -0.11098510159698102 6.493516606940734 7.265137050883432 0.3453284651367343 0.6528102917393402 0.16286370153817759
Ni 8.111981410938043 5.228017879395688 13.054380980732947 0.36765386810681194 -0.07990731514960431 -0.15782022557699915
Ni 5.337198383501196 7.73355307640766 1.9379313315073412 -1.4597083385964407 -1.8807555347227287 0.33515203882436473
Ni 1.418705756351135 0.17403387431994952 2.14758692372555 -0.45319035651773565 1.2424272386496475 -0.7129069999209205
Ni 5.53462040671977 4.433448420983101 8.529690602823282 0.6235987031723904 -1.0983935253337793 1.3394241622916867
Ni 4.894379371899096 8.412571754452413 12.188546412506973 0.24130548788584893 -0.10513806469193507 -0.03942606720610629
Ni 8.490079923472592 6.152574898107893 2.681400996931621 -0.6069847487647932 1.0550562959987249 1.8630784291579396
Ni 3.583252127102292 8.908614612695969 3.0465365626814718 -0.9200129591069252 -0.1902148398576208 -0.792534579046577
Ni 3.1030124542018167 3.395564564503517 9.368147118349643 -1.0728267326082683 2.9697498782297953 0.9071037072444249
Ni 6.82200989130237 4.82243105938006 1.3270604742410983 0.4437006718597455 -0.4457606397125678 0.845484391770731
Ni 4.464941709842122 7.926395285626987 9.703366886729103 -0.4407765562344151 1.0774431483343572 0.3848110966123889
Ni 9.211721026864247 0.559932205881613 0.25785389399176667 -1.339580485363893 0.5308268733552921 0.24747767813483185
Ni 2.301158641424172 5.8766363929104575 6.069599222745403 -0.8503715446597033 0.9033180149497475 1.1376113331838213
Ni 6.942828400117898 6.125689693704906 7.707604566472832 -0.9464169030217506 1.576691218442104 -0.5692373548126906
Ni 4.867456473553728 8.048947715792027 4.548302805765454 1.1045037519965752 -0.9569645966306101 1.1635241963948413
Ni 3.3681799153639864 6.951309537153541 13.601863819794797 0.7035852082993624 -0.4294230788948088 -1.1140795686104685
Ni 2.294147568141374 7.55675906315689 1.6164764485367298 -0.2403747485414634 -0.9833217464679002 1.3349643267481202
Ni 3.070708745581613 1.643691474935548 3.565165631199504 -0.4653822705982373 -0.3122437667676235 -2.1205142469467484
Ni 8.066814644480447 0.901350743085568 10.032876965186455 -0.22959539853777233 0.03265301014833086 -0.08675519130937318
Ni 5.5700150186151856 1.019677682309737 10.198838681745594 1.1843316200584957 -1.0648622263455534 1.9832620753290877
Ni 9.186673402152316 0.4634215781587956 4.453026654655603 0.06893127575407482 1.5191882391296287 1.1949862715588646
Ni 4.053578293156661 0.6480662972588938 1.0505358282396438 -0.44449565695721505 -0.49854255940028974 -0.3948599962079587
P 9.1948812581057 8.446185327570344 9.567348295648582 -0.15468142283770134 -0.07040297520359487 -0.24278155821074318
Ni 7.087591985830726 5.008582593826824 11.014525229028372 0.09768109419325759 -1.6631332493864326 -0.7275962265019792
P 7.0013953630918095 2.9192921790386035 10.17999924934375 -0.2699072107829416 -0.33318385935440037 0.19500969014310285
Ni 3.018606293725981 9.449023241121532 5.309426429103704 -1.1453578098984598 -0.3532371784608497 0.6365439504791489
P 6.08644087620107 7.6664955529125125 6.378862000052998 0.018241462708691165 0.35399873921722264 -0.835570989311761
P 1.4731546561199618 5.242727940409731 8.813437408184866 0.1480294647388225 0.5656866613469548 0.2788441082612552
P 6.854181671124241 0.034535190009137434 12.523573941780292 0.10852497888629697 0.028258994845693268 -0.02661246038120578
Ni 1.196782670585149 0.7931314345107661 9.169139122505403 0.019018964304664022 0.18827699940495962 -0.21690134800987163
Ni 0.7030570474494421 2.2831692074230143 3.088989365287661 -0.10646912479853275 0.04388641697030507 -0.606396223251175
Ni 7.064485599151396 7.2570074098604875 0.18278546539217333 -1.8025965697227988 0.5913025621428462 0.35393908962388076
Ni 9.28496035690982 7.409941157584318 0.7208749740127681 0.9477739312702773 -0.08165900773338838 0.3315686923484806
Ni 6.124907544400508 6.013738684834421 3.7174868523596487 0.626514848377921 3.0596685548688147 -0.9065174957236516
Ni 1.0561842655053817 8.166317228879727 3.8973925005539414 1.2413800283320555 -1.518382712509198 -0.9398503055478266
Ni 8.116401025682173 8.633184975720672 2.9813411199399256 0.6237241730066613 -1.2005524527927325 -1.0541034451671523
Ni 6.024500305384092 3.5944660749605313 13.109701552919326 0.3109877828733354 1.116050319183594 0.47279964610823083
Ni 5.2394391439370205 1.3693832327460747 12.770192213896951 -0.8490487120832216 0.30568693948571224 -0.12822939929375982
Ni 2.709836364715012 2.4649482445536246 7.457276268077359 -2.2295434191629733 -2.1836093756350206 -1.04792791248406
Ni 0.526314863369444 0.3489714609084747 11.533499197119184 -0.08513642475902758 1.036491131402028 0.1900510605862469
Ni 0.20825903165300624 4.810105140221592 5.800277889132888 0.6684821939486423 -1.6536967865638812 -1.14546605334155
Ni 4.42951882748992 5.725643883219232 5.339149045019394 1.377388814460918 1.2585606538764003 -0.7185158614672658
Ni 2.994133501635354 5.225482961770591 10.920324297624926 -0.5565451040570027 0.7064442750147124 0.37871501101698
Ni 7.018536683389403 8.117899359891803 10.322169491820791 -0.5359827065246188 -0.23186208308476197 1.6590480235734655
Ni 8.380531903428874 7.382679013757524 4.895921996491023 -0.5886777229254894 -0.18864852381176542 1.2714994734252554
Ni -0.06201690105029861 2.976502160086812 9.938966277139343 -0.33331549983625824 -0.190471178842801 -0.8400169408982565
Ni 8.566438427250164 5.910476129682673 9.500704463171061 -0.2601002519948488 1.8351719325556588 -1.5345618933722216
Ni 5.96286128610616 3.925041949638697 3.6689521321503435 -0.8235377122963107 -1.844845451089681 -0.25047455597962665
Ni 3.864552595603373 7.748263137421704 6.963211399460227 0.19319294864933825 0.24689506615848447 -0.001968693690596609
Ni 2.3012528762801234 4.666981241002323 1.7529916573081146 -1.3273258363662561 1.0252777791847116 1.04993954359745
Ni 7.598090470977255 1.4276392206953454 7.517547939595434 -0.05520338464502106 0.6980640213708171 0.02654149793395429
Ni 8.178916429120454 2.581403679538595 5.381932611969974 -0.2263882044543843 -0.5690920874840779 0.9724004715697059
Ni 3.639943816442767 5.947039253791888 8.61520213815943 -0.7651746989763853 -0.3064065912605562 -0.019019478525296275
Ni 7.981390747560334 4.1646434943812 7.6154730325060855 1.3045402059303082 -1.7102528285820546 0.8314489967235874
P 0.2031081544266925 2.6523248321277593 7.622948683628724 0.10413224913524002 0.4776178934324806 0.37890938641597327
Ni 1.0668422277135063 4.688579869986426 13.334460165500897 0.734812027524128 1.7325160108556292 -1.3060553570232538
P 0.9674056077133921 6.926459805639108 11.892082613334722 0.7785783739768011 0.48505506643681623 0.9476723726954065
Ni 1.7941751164046364 3.1333372308470375 11.756960195734303 0.09911628397788737 -0.48825480432103663 -0.4621722483013718
P 9.308509647412121 5.1725041257546085 1.1364431499707885 -0.3922043037526665 -0.7697350646535583 -0.2526710494103132
P 0.9870158812369173 4.281146046794147 3.7809314114776136 1.2759531383212348 0.9259378092317924 0.5667356714367595
P 3.3736926544371544 0.1121771725247686 8.74198005926534 -0.3208741887491119 0.307683915311083 -0.48204584729684724
Ni 3.7120994456448964 3.7933204679895685 4.236226175659144 -0.6874862458549709 0.5074588880533131 -0.3131328542407962
Ni 8.730633240260207 2.9671823328332003 0.7212311817682651 -0.15298269497903977 0.7435059557537002 0.9879466468344211
Ni 1.9527158380575858 2.431598529032358 5.270395294117116 -1.3612075767153653 1.0696046261265448 0.39588689481057626
Ni 8.043924997969807 2.4600009146161663 12.327517381624457 -0.11696951010922436 -0.5186434439152229 -1.1470740212586181
Ni 4.4634245286613 1.841433896664357 5.650535875980138 0.4355590165892176 1.370320337649911 0.9467727436992727
Ni 7.758968217057804 1.7301708022423188 2.8007871359366865 0.3583176783075506 -0.8836228505136654 0.8181142272878942
Ni 0.5068902325121435 5.000619748498915 10.924462150149761 0.9583995293049237 0.15844886029993357 1.4279318175157922
Ni 1.5997780320621087 8.764077190637426 13.507056015919025 1.3121051627617597 0.0407427291350008 -1.1297388724142803
Ni 4.68549839019681 2.027896406135761 8.556337393040712 0.4167380272279726 0.4777073678224934 -1.663176958140174
Ni 1.915087860076117 2.836912067965727 0.5162006362801602 -1.415152406362937 -2.5006860450149127 -0.35822049060805405
Ni 3.90446105709887 4.267312369940454 6.901298156751475 0.36426926790529524 -1.0626611049291763 -0.3865694740643923
Ni 6.698326642865912 0.2855683651271283 4.7799848532137865 0.5703714684171338 -0.30856477525413956 0.6607686273544684
Ni 5.451882203194277 0.3107535727287493 7.120194418944296 -0.5647538651200402 -0.6763248299215127 -0.36638065782134316
Ni 6.627952052441267 9.387893090065738 1.6351236418324298 0.03993077475666671 0.31441994848333593 -1.4643579215533102
Ni 3.1174115401912195 1.521817535733361 10.593944701082284 0.491016940447206 -1.8552779592769144 1.042787763044017
Ni 0.6979683652280565 0.8405560681169615 6.7112820508621365 0.3679626575964824 -0.5837957122428398 -0.2196822531891184
Ni 8.35441942484469 7.997146815475438 12.195884480739922 2.0383366477057283 -0.4835203749598447 0.2507149541252069
Ni 3.952784691230843 2.990401801339671 1.3091596210045349 2.0564066178335616 0.07831220274834255 1.1265741015330535
Ni 5.348921199581574 1.6824314242172451 3.5249339441480934 0.38880556248376263 -0.38722279137767507 -1.6360068254832858
Ni 4.601846108568586 3.2732759919351437 11.336035710563992 0.24734758031487078 0.34264217655382284 -1.2410573548853143
Ni 7.135303093399014 8.489844336332713 8.190125665235895 1.031532758955488 0.5017584952344262 -1.1650041233744775
Ni 5.17142984839676 5.943675069434417 11.806984769016202 -1.1639296593633761 0.593097706370056 -0.7918591502461072
Ni 8.201457406664074 3.8340299257606545 3.5006043890385126 1.4883540273575917 1.2258122558007858 -0.997467956061295
Ni 6.2591545201891385 2.001133707045511 1.112002397731185 -0.47942383629296786 2.1716455184049246 -0.7044370147766965
Ni 1.659249649653155 7.857924239292565 8.236232895555888 0.2418078814435642 0.216544221780769 0.28629567944329404
P 5.866911355776255 6.375185898322327 9.682499520227182 0.5919448237125354 -1.3702213501782015 -0.6685151040691067
Ni 7.370532140825364 5.100471001865216 5.464023422035079 -0.9158673123696678 0.10216586943748855 0.07169881119688297
P 2.4985241237291747 1.371823915515221 12.82276866707802 0.3965998617172008 -1.489674545941228 -0.05969664452968429
Ni 4.49162902104761 5.3035471164408845 2.0034443457134437 0.1798772053770386 0.45880230338787437 0.6058637477864728
P 0.7766507005533931 8.231103692346442 5.98458336275156 0.19272912163904227 -0.8991875377211418 0.6223350059686186
P 5.354707219737001 5.834324942588196 0.06703302243260155 0.1888020186704942 0.23190219229407802 1.2755242783139324
P 6.238714979933239 3.473185815350839 6.539665300597345 -0.9106741982045027 -0.6977894275531917 -0.38111282182519524
Ni 2.45193441094671 6.188911858562825 3.7290720855503365 0.38616915330218005 -0.6674817777085859 -0.18945662153535758
