# total energy = -381165.3938227455 ev
CRYSTAL
PRIMVEC
9.27725528404452 0.00000000000000 0.00000000000000

0.00000000000000 9.27725528404452 0.00000000000000

0.00000000000000 0.00000000000000 13.57820086753188

PRIMCOORD
 96 1
Ni 7.711236143351993 5.154517324555057 12.238113741213915 0.37185582200330153 0.1324272394251913 1.6640632173998697
Ni 0.8184218455985702 4.817706566848235 2.9824251655802625 0.7754935644038902 -0.5088675954753816 1.42865455461443
Ni 7.379008349818348 0.8430362596558004 4.306706989264607 -0.9337853303006692 0.6945140992360297 -1.1775436506023849
Ni 0.7201710721653218 4.95347919979244 12.649356846811045 0.2648030567871569 0.4509085024620944 -1.2770821097193554
Ni 0.9022668968291704 3.468394708064235 5.677466934833966 -0.776266952234805 0.866858743681449 0.4185439700884599
Ni 7.437353009099941 9.019050838681302 6.635477148527403 -3.3010167230671406 -0.1671024222098735 -0.03220872352206066
Ni 5.269926381871483 5.291987695239526 2.5731506935814097 -0.7709056879228917 -0.1251834133785844 -0.8260903035148354
Ni 1.635023493685446 6.1454116977793465 1.0503523031552362 -0.6872360775173777 -0.8416107677479375 -0.4122961894065351
Ni 8.729813846723568 8.047462433967903 4.920319505775872 -0.4978725299164586 1.9178336705219485 -1.0194694000330509
Ni 2.2370988153672324 0.8018897764556546 11.106303424645406 -0.3455956027551919 -0.7436669068115968 -0.3566163793457277
Ni 7.727610499152917 5.449756700763895 8.846686854943894 0.590702466665002 0.5402306831676954 -0.25101808718792257
Ni 6.315927652238825 1.9322760343185335 11.041629821722234 -0.5736681368905345 3.344207399522002 0.20604717890418708
Ni 6.124732695467585 5.70947346600291 4.638380930650198 -0.34126509370063807 1.099258444437236 2.5595959319772437
Ni 3.3701300187478695 3.474387815059927 7.863584448539545 -1.6053880721561642 -1.1105021356718552 0.48515533946010636
Ni 2.9378841346251265 0.7027391092475112 13.43128475279823 0.1572090743555615 0.15920579307061614 0.4649503252671412
Ni 2.053047345262684 1.5194196140053826 7.073754176393025 -0.5907549171694924 -0.5164657195376138 0.5470163386309611
Ni 0.5591114241465694 2.440883007731591 12.34553137071906 0.5464085298436331 -0.42391886124712796 -0.19928389203842453
Ni 3.0506955604263917 4.8930193262770745 12.961411248452842 -0.8623323165660053 -1.6892379168932845 1.6868154234947208
Ni 0.24177362554804266 8.991682935218002 7.004518946984121 3.6644208147586634 -2.4789854201130272 0.8229178193241247
Ni 2.863471268971183 2.4962682225369814 5.01123846425758 0.18617846500471805 -0.16553404928148913 -0.043965864057988795
Ni 3.4500535741161182 5.8690608135878914 11.110037519948449 1.5199158613242727 -0.7720814533985477 -1.9644444284019522
Ni 1.4208858842820897 2.523701066788161 9.5649876324183 1.6739408815248977 -1.7100571676314806 1.0993088380591969
Ni 4.742291757609873 8.894828388724152 1.8231319075813504 -0.5019294735946517 2.2460846113511064 -1.7579956431839723
Ni 4.720480930137935 3.763912401935412 4.241979578260049 0.3129587905567771 1.2510656310509358 -0.5512743425763668
P 1.3556018379528543 5.395614638183616 6.69970173228867 -0.7460372068159861 0.5192026588528026 0.17109868785346016
Ni 4.097615279079451 6.3897003872693885 0.6769659659894112 0.8375705362402929 0.6737311010524074 -0.27681550786700065
P 6.363167436793105 7.131231412293661 6.606174937310849 -0.8636536064805901 -0.8412600692767384 -0.4277001826664312
Ni 3.869858658732324 1.1325023998221937 9.084821013194087 -1.1748617328948476 -0.39991298525083385 -0.17353043722340436
P 9.478015218388556 7.344997931480566 12.829973876962333 -0.8841527548752063 -3.605975269027261 -1.5862099565658165
P 4.5132734305268105 4.878092222320311 9.042009262647616 1.0530598343939865 1.413395057352198 -0.07569867638489544
P 6.108618102818177 7.929901053396057 2.8594198915330735 2.3544879770578744 -1.5225545844987005 1.4347840645509353
Ni 1.778171544681624 7.441611269333722 5.267785191322558 0.6124120904279516 -0.38094672856097617 1.32842601140897
Ni 5.386736304755014 4.230215090672995 12.578777343093046 -0.6333159304601544 -0.30688224534539404 -1.2247277644873553
Ni 8.7525245679704 3.8523060914941665 10.452064878962569 -0.20656551330150233 0.4641255153730007 0.918045036747277
Ni 3.242270884669495 2.72857069803564 11.8661802222455 -0.8851367160550304 0.03104709911379169 -0.6438055171375686
Ni 5.483089879456654 1.3903266049573062 13.12853172743179 -0.3287718463296338 -0.14933327115191056 1.0644426223096315
Ni 5.834131946964391 6.80752013922758 12.328463076213371 -0.7799716547799018 0.6913143613518095 -0.8777283394061013
Ni 3.166522094236326 7.813731261135906 9.93796669807157 0.5584153244965222 1.653607055063552 -1.1726238447032642
Ni 8.406251009744064 6.956791178795208 1.2244288682415672 0.9345949706861582 -0.20989329212315466 -0.0929518070383883
Ni 6.61582421066413 2.0202986336608366 6.599019390212122 -0.8588559279816305 0.6175836073265621 -0.8596755956694484
Ni 4.600192036475171 3.1276318395522056 10.155136114543334 0.260870297391654 -0.11480361280615713 -0.7792378619376709
Ni 8.46490181845423 6.7393879754870785 6.945997092124173 0.4102202807141128 0.0358558333563447 1.3008817832421145
Ni 3.2596657385656598 6.2208079525068865 7.796970043784332 1.1243984340379731 -1.5560552873593072 -0.18851508355769472
Ni 6.3583432639792345 4.897407468086613 10.521666559960218 -1.7930981433140603 -0.09614665982660216 -1.0709613972647556
Ni 6.604830663001753 1.2553889250001182 1.8460374511918212 0.5023264519227543 -0.15755000263474803 0.04060466089523975
Ni 2.76702492171543 7.94237896192424 1.7446630258615918 -3.054446644348243 2.082042316123795 -1.2174541136440775
Ni 3.96603596558115 2.0739118926826716 2.640280913737492 0.485802486125802 -0.28585344969955284 -0.25930089602200507
Ni 4.823263642839597 8.102495113067665 7.8684587185326365 -0.15136752797311998 0.6761404818248484 -0.9957993101096206
Ni 4.471794821582941 1.0455281303413662 6.650752149562089 -0.957340749023106 -0.46704757411580206 1.3075715365574643
Ni 6.1400308896408 0.7472040667082748 8.548699555682232 0.06908219950964231 -0.19515418614076716 0.4618534315093723
Ni 8.992786928611944 0.05994591356558032 2.547772761403831 -1.1732473372198762 0.08487417223657641 -0.4735954025366489
Ni 3.3660665808777255 0.11440154737876025 4.6356933097575475 -0.5127000818475944 -0.2848275795381998 -0.7713250348484973
Ni 5.669841030885887 8.660160213095613 4.974849357632343 -0.06627686885036328 -0.44731512868388124 -0.3763272275110938
Ni 4.176397732032111 6.760493731547759 5.6703113877352385 1.6358962680473503 2.1570254544989047 0.8191706935768667
Ni 3.9285001901870773 7.093806963964524 3.3220153890083055 0.8092308087553353 0.18298541198871712 1.759494853437318
Ni 8.663954610558832 5.842741239986067 4.951413155012346 2.3766611707208036 -1.3845966450632672 0.0026240678864083837
P 5.031241154649859 1.8468325119805684 4.82320797930713 0.7735909480645387 -1.878186745554288 -0.6561372992300442
Ni 7.573153473810378 3.130804660902866 13.321858597496545 -0.8192596537462471 -1.6252956097133686 0.010464904087065848
P 7.623946447187182 4.042128014464536 4.698872346833962 -0.20025011260643577 -1.668540536444933 -0.3503837681724546
Ni 1.3440052686887438 6.989660494717402 8.540960469218135 -2.8014004709866978 -0.4583307630680945 -1.3879547629022224
P 2.6796331757410945 8.491045124203241 7.58622234350826 -0.33198649661218954 0.9561636979958694 -0.2504773841931041
P 1.685167059183459 4.486128181193381 10.485073353715931 -0.4448784942179306 0.27292722855618806 0.8701749525388756
P 1.1965432939263168 -0.009760600418216397 4.135187235769628 0.16639716861273277 0.5889060368862116 -0.45883675617023556
Ni 7.614947509438232 5.466836127976077 2.996220444376848 0.7057660180007652 1.9937205516582504 -2.5168413146185364
Ni 5.798600058739156 7.3820234578270165 9.734307748655263 -1.4728158225126764 -1.4650076393221672 2.002237845100642
Ni 7.629920999672051 4.162500403426002 6.813636633720241 0.36330433288886466 0.3861323865269737 -0.13799187799716237
Ni 0.44876310965700106 -0.23559682889520692 0.2159949159366959 0.758927432515093 2.146254846245962 1.4209751836923012
Ni 7.624308260148222 8.066462253050222 8.852389583845213 2.312505204868185 -0.05934748872038167 -1.0618409230207262
Ni 4.505007395955353 0.10162398350079291 11.25032724855241 0.45810759131369494 -0.004633385006953311 -0.6239226621707126
Ni 8.012923212071676 6.999911861946876 10.978763428153178 -0.23437636486618346 0.08064882130131917 -0.26455083156703474
Ni 0.5733603607327671 4.078049547417044 8.361714617416636 -0.6870841253205456 2.0267216891746194 -2.0851363816680863
Ni 2.892212206235354 5.107695016494285 5.1193760087826385 -1.5898568092897845 -1.532441247484793 0.0018041430882743121
Ni 6.955297540673991 9.292655655271014 10.6592139318646 -0.5848215824041928 -4.198494991406659 -0.32444802214329926
Ni 7.333225094363641 3.3276680207304032 2.616234267711433 0.26382320937239084 -1.336125179825441 0.7706514058202406
Ni 1.2670782668183416 6.7569869290022915 10.754369812892643 -1.6178928894913942 -1.8357224057424901 0.25662874850648065
Ni 4.831028705618845 4.522281645531172 6.612937128780136 1.5070415764647658 0.6361487719232592 -0.2964757053000894
Ni 1.3660851365676099 3.4868750008435216 1.0783111677882355 3.053941165466734 -1.9702864890050262 -0.3367060135750459
Ni 8.805460587347211 4.465560505946556 1.0524109261310008 -2.311250249415161 2.091652328409733 0.0912934454993589
Ni 0.791523371259081 7.1713740964583055 3.1160751624863634 -0.03199223663588038 0.19132067132728986 -0.46994135072382937
Ni 9.431536168777999 8.871616695685107 11.14462127267065 0.2938110139837327 -0.7080365592024966 1.29723004542214
Ni 1.1402674626014422 -0.03876408401052693 9.133702871956167 0.639343367601157 1.2630994222870182 -0.1021761538501337
Ni 6.98496620347929 2.9080206494561893 8.854494593098034 0.7383357244066704 0.7870696992772638 -0.004052829913134956
Ni 7.911615582980408 0.882626947123473 12.400156778306267 0.5278479932326263 0.7155099847614065 2.3701760772170926
Ni 7.020794963877686 8.615295405926624 0.43339997469590763 -1.1418680515776463 -0.02911568641903373 -0.17635659381828983
Ni 0.489082989400001 2.251116748293689 3.446093113781039 -0.5377472546242094 0.22407601138143987 0.7187477749724138
Ni 5.521711093733847 3.3958929570250174 1.1065038192575996 -0.31668560458906103 -0.5320386342752064 0.6934195806202703
Ni 1.9102889389937805 1.0600470350600324 2.025636766424492 0.1979582312484655 -0.41080572090393763 -0.1989987566978379
Ni 6.375311364126481 5.6214879756822524 0.5983328768488729 1.5414182541724226 -0.1076690586439049 0.8406322058847522
P 9.121091370950062 1.837833574231619 0.8815943885961968 -0.22749017926931142 0.20081498397097028 0.5344037920732733
Ni 8.762061586533203 1.501087757312677 6.000274603222988 1.6928762849768202 2.6350146152278744 -4.600470258503161
P 8.802538251892654 1.5124987814685618 7.915738395285185 0.05931843525465914 1.006917274399653 4.883293920237454
Ni 8.620351510125776 1.470389319156724 10.25664691552811 0.38787867979411905 1.3177631323784855 -1.959381154946432
P 3.041167819118999 5.148375781472784 2.9729475214520904 -0.3952713727137644 -0.010854169105684533 -0.8508518267302315
P 3.5606755676403194 2.8069449517502036 0.32597306793535397 0.2295015532723854 0.1733723143789853 1.6705166863346972
P 4.550595829046424 8.475505721389332 13.163631295554858 0.546076343315195 -0.756660233747471 0.8772825101179345
Ni 2.3298713694801148 7.794583005967007 12.414019781067353 1.2980587119710225 0.5671552754726813 1.2252065038959865
