# total energy = -340898.07301188045 ev
CRYSTAL
PRIMVEC
9.03243801213620 0.00000000000000 0.00000000000000
0.00000000000000 9.03243801213620 0.00000000000000
0.00000000000000 0.00000000000000 13.21988604359115
PRIMCOORD
 96 1
Ni 6.393249888380833 1.9771284024914275 11.485304834022278 -0.5049402353965176 -0.07243646069385588 -0.2477815825284959
Ni 4.721174011963191 0.34123737564901363 6.084399222159177 -0.5946172283383759 -0.9258984713534246 -0.6417969713479721
Ni 2.7463579135808116 1.532732456533703 4.782307358333741 0.10008379009747925 -0.30892061593166154 0.5132240726718645
Ni 3.271133524641743 4.263572641757698 4.702366669713736 0.9325028640438199 0.44465069447784067 0.0019712647937578953
Ni 5.064713756039534 4.561823742073227 2.7426771951259785 -0.25645519904309383 -0.5846719442002059 -0.4091126494722309
Ni 7.176091283424653 5.968165294708832 2.5668129189759648 0.5607154333846085 0.7356080410628622 0.6064265622684782
Ni 5.023209703769702 4.498226346636473 11.425022343304354 0.6149124882523023 0.13072979711811034 0.3916720853982803
Ni 5.709133039867864 7.831620465901927 12.408317020264056 -0.5225360941014097 0.3255597671502393 0.19371719658392444
Ni 1.852291077916596 6.465997143436595 0.4442360718064348 0.4563314732498786 0.38491085541504677 -0.1883325352332434
Ni 2.8240368797441535 1.542306840735231 0.4363986254180706 -0.05909114973520146 0.08470370809698315 -0.2378800071440677
Ni 0.6156175490137898 0.015942252939337067 4.59844485840028 -0.2170566426408133 0.2400991262825736 0.29458697291780883
Ni 8.665395778410293 2.394761234874503 1.3415807791939849 -0.2982885901391121 0.018949801629625427 -0.12950029558638343
Ni 6.917031931269908 0.6906463978896523 4.819811847089953 -0.06466555849918541 0.1474494238656364 -0.5322862315096382
Ni 0.6328451178699924 7.414592806859892 2.5115931097155473 0.6027565696160587 -0.32221501904772254 -0.24443477754345
Ni 7.694679674506296 3.966658342255212 3.779948817887486 0.2865057385715711 -1.4557339273297254 -0.021305960566627823
Ni 7.503580385306548 3.8859083471970397 12.651563283341806 1.0820716482453043 -0.2866286373026805 -0.1179889525126742
Ni 8.036169055173444 8.782158103479308 6.841568622129806 -0.3381604866333853 1.0463615964382045 0.5633287026377395
Ni 6.744241393746101 0.7677915469715696 0.41339210277683247 0.05546409450557545 -0.2891202933762827 -0.22272283978765514
Ni 1.8511439582999976 6.564242970757371 9.05301743254054 0.2345779393540283 -0.011083254397355104 0.4935739025411048
Ni 0.11644348001022758 4.79193413067524 1.4105353135646326 -0.9999850660561939 -0.25262348400182943 -0.13059250020929766
Ni 6.333012559852539 1.9773542134395767 6.973424150973115 0.9458556312016421 0.4602050972726719 0.2943146930930286
Ni 3.5861578621857992 4.462719833149484 0.5555843535826227 -1.1938310749084988 -0.08624662710407081 0.14285717650926366
Ni 6.004529889798787 5.4621590896580665 4.837420584826632 0.15636112453296944 0.8606621279524339 -0.15109370548644302
Ni 5.358638318588524 2.9437979742045894 9.128833910003546 0.360423926017276 -0.24694314578760052 0.6256861818290386
P 0.2970145595634644 5.419074360751189 12.56207801756543 -0.5076915728894095 0.6468782425256214 -0.9804148572337501
P 4.2267835220852215 6.163816932623269 12.630054338908694 -0.6811857575582397 0.34224416978445577 -0.8933436773458551
P 2.441865398658436 8.439982257529785 1.4780094313592136 0.4961910284489777 -0.17238989586105793 0.2163115369446726
P 6.36804035412945 7.711416781983118 5.972043823554244 -0.9348618511942995 0.5628530485529016 -0.967409703223334
P 4.691936010396825 0.9673379721196842 12.55318106620835 0.3460018370546751 0.6878672833434734 0.7538209645264631
P 3.904768077586465 6.104293166691126 8.210461687124338 -0.4765154043969213 -0.46671153093262197 -0.9364525927201871
P 4.82606771359748 0.9764697668628398 3.8254777244971296 -0.14551466873676874 0.13417096158917538 0.42747469691918644
P 0.23010948535821937 5.546594319390034 3.5704007742239443 -0.7152927265442779 0.13572313656764368 0.17011241268079091
Ni 1.4436184239560828 1.1214042658229546 2.504996720298211 0.26121276833273727 -0.18118821087897827 0.26356661327689446
Ni 1.7762831127695582 6.6663727463863145 4.635010876855985 0.5061396550212574 -0.35296412730512117 0.9863487062196818
Ni 5.833455515480916 5.56890444106718 9.27771558433731 0.23466227153771846 -0.19736404930789236 -0.15870622772637827
Ni 8.580825062109435 2.3018264810541975 10.423034132813065 0.6421078177201716 0.5807864931028708 -0.7298045470072076
Ni 2.249221562573348 5.269659772579794 6.809192751627959 0.05563892952054289 -0.5190710183709447 0.7538453900064952
Ni 0.5877335098925277 8.971812202610899 9.054961213182208 -0.21661698400023338 0.10401989192709182 0.5078759209860737
Ni 1.4677260007804966 1.0314502165182193 11.49564245922855 -0.5297902045606617 0.9614881955325764 -0.37043862994080073
Ni 4.107212108821231 6.708870366828003 1.5800272047578745 0.3015919434807322 1.2582505788351492 0.38583799521500645
Ni 5.444021954302718 7.703088874215374 8.131684376509199 0.23010267719149405 0.7749816577644781 -0.5586503233254637
Ni 5.404468908624896 2.9225898099544123 4.796081826170845 -0.22613417946204922 -0.09415045533217978 0.17965300518137445
Ni 0.7625608621686404 7.372447451497315 6.859454655710811 0.37911044668318583 -0.6144931413266966 0.14384113768908777
Ni 4.854808931077917 4.537878749131481 6.7868645650749615 0.6694769537617439 0.28766762009015623 0.8739421328907916
Ni 8.092965024851944 7.168504035566839 9.107456839164154 0.015836967032256597 -0.10804058305071071 0.08922602144736892
Ni 4.578073097902047 0.34445021381928115 10.502128481999405 -0.33545979987277064 -0.30001868545634136 -0.9418377682915006
Ni 8.023812680090717 7.24398811931417 4.543529442297968 0.0979006664032314 -0.05873376639578272 0.3071972054826516
Ni 7.24891983042175 6.122502561549881 7.008721111900221 0.40203234558668177 -0.8536229617174653 0.093878946838348
Ni 2.1255584549288926 5.270364302738019 2.561630106094043 1.9549017790188397 0.3380216470626759 -0.05312747595259882
Ni 2.5414931889818857 5.2188794065599895 11.39667855309266 -0.47240626732455415 -0.2677698527249647 0.14631890980561896
Ni 1.2882695240673245 3.356986847128088 3.671452980008319 -1.6166011672631644 -0.7574269367101666 0.6369170175478515
Ni 3.6670072140611567 2.498543946643898 2.7451358247294277 -0.16633160548212 0.730440895039626 -0.6091308485735187
Ni 0.9744645656432744 3.2980230923473557 8.333538589547398 -0.4524406228359047 0.20728439374539784 -1.2923837730734324
Ni 3.684575305827168 2.539280241690023 6.995223036663652 -0.43558807005494016 0.06203789106835122 -0.32375768094449403
Ni 4.189615040019856 6.777083338044928 5.94510186770866 -0.3216036107159687 1.0108289507492334 0.1874169653975095
Ni 0.8177075086818576 7.239309316468518 11.419879273149306 -0.1090793087278702 0.01752335359574401 -0.04997556058717845
P 0.20538408977966904 5.5032115200316 8.054506710650747 0.15511568216164254 0.4330192808864994 -0.8506345685131028
P 8.431636284886189 1.6459992281253668 8.070410124107003 0.0036005728670647666 -0.20118650837777607 0.16314138067959644
P 1.7451031370491097 3.315690540930553 10.319323680547077 0.10286006729103575 -0.483928666141857 0.8890967291440429
P 3.9971066905036565 6.165668582398093 3.7627627982457423 -0.9154484796646944 -0.25137778452018644 0.4210153144470878
P 6.944924099585303 3.913592769440138 10.476429389612434 -0.40772682486829775 0.6927989163171359 -0.26775108367188727
P 6.273949448254621 7.809698739055597 10.171723709155009 0.021747418979420615 -0.5069824626375269 0.8595719802120486
P 2.3941831588472406 8.550945757450327 5.870621287814904 0.38142341108707856 -0.4139437523122871 -0.344716028363716
P 6.8273759524167295 3.909708821131971 1.5687249151811082 0.6643519738303526 0.34125275240546393 0.09200178442029316
Ni 5.131617023757193 2.848108326816863 0.5839633703022279 0.37826095419869693 -0.9052915937363505 -0.905000544858493
Ni 1.4407822384473281 1.0543384142226273 7.098404188067178 -0.40737355529393715 0.9998310569768328 -0.9630334285325094
Ni 6.7727206705266845 0.7750156908247603 9.241282342719119 -0.1094264076546438 -0.39513227603273887 -0.343632308381234
Ni 2.6477417563050705 1.5388112872578805 9.222522872390671 0.1544320258310566 0.42604979154720174 0.508444391895034
Ni 6.300667399639639 2.071156081300775 2.5548223576292393 0.9857051590984122 -0.4768090243779401 0.7861127346806333
Ni 4.002715834455684 6.832614766413792 10.302601024970935 0.5126936540896913 0.994254848440636 0.6972731500384055
Ni 8.136799446106675 7.197389772054091 0.3084451097587795 -0.11147557687418867 -0.15287470864626573 0.16982290646483011
Ni 7.517716150660691 4.077603777299902 8.329731416961602 0.6755954079546558 -0.9969884453217152 -0.26513935708065306
Ni 3.0065643853521555 8.385697305594705 12.406585501913648 1.2880938874488268 -0.7962755341462481 0.45811093374780454
Ni 0.23761092505573747 5.04549272813307 10.264752400329742 -0.5250344350432312 -1.060094629753581 0.220663129045149
Ni 8.665188032337996 2.4011742658019415 5.939536079458677 0.1780352670722934 -0.15221213536160239 -0.5198318077963692
Ni 3.5378162544060077 2.702848660091414 11.321259502898394 0.47983855523288327 -0.6021299917756533 0.7043634812262838
Ni 1.2510920095640319 3.376722723996332 12.603561295228031 -0.6946223426791199 -0.15727977969249687 -0.0804269350985002
Ni 3.0753193028446395 8.556283928264575 8.073701544487227 0.30873215406993926 -1.2376331596951138 -0.2926488753548315
Ni 5.521502206831689 7.839307070576927 3.792692684557237 0.7114005905787232 -0.257749235264169 -0.14439109665528682
Ni 3.166474666393529 8.36954730658307 3.660784767573956 -0.0986362590176753 0.21637915695781443 -0.384793356000576
Ni 3.364474738168717 4.074866948608332 8.984485616264829 -0.4845881541027267 1.0026075912807055 0.24112833887803634
Ni 7.3068177575272175 6.200362176471743 11.407386508253897 0.0904030724746056 -0.9473612692128911 -0.22818566267443927
Ni 0.7103768552951412 8.900943694643738 0.2926591179955617 -0.1851939896042617 0.41023493600213223 -0.14376811835930722
Ni 4.644100219140888 0.3219811212346381 1.6317568800036972 -0.2939945907494485 -0.9515732504117095 0.1423864075204322
Ni 6.16415113282653 5.649762825380463 0.4849199787125889 -1.0423771578691596 0.48097164039606194 -1.1013706056842323
Ni 8.019160974558842 8.725118257976806 11.260566939498633 -0.2297401516457527 0.5509647817557478 0.31140995801241855
Ni 0.09829821546074642 4.862757476452771 5.64945210951581 -0.0539797966505651 0.1056286311751084 0.7414195055383166
Ni 8.154755932703504 9.073625842912433 2.258432842770252 -0.5552330701137986 0.2087085277864341 0.4468075929198434
P 8.485623166369711 1.7289802353512533 3.535381109141166 0.0667286116758012 0.24682821747629102 1.1395712851236695
P 1.8386340317725292 3.1955952462668558 1.5480090187978959 0.6147888181902443 0.15650536342031757 -0.24250490751058879
P 4.684601670800938 1.0478621562297068 8.197082840068392 0.49171576628644353 -0.2011512842644665 0.8843748981883414
P 8.48840515725091 1.5152727540228028 12.506977436485633 0.05374942580731388 0.0479364186699626 -0.23175666785514926
P 6.463531287882805 7.8401199899902645 1.6624138775682322 -0.7679625461341677 -0.18442137310429527 -0.7330793611037374
P 1.8319590601452374 3.181360124095527 5.947917278610185 -0.6917977287461312 0.011727315739257222 0.627694470508319
P 7.0188455715714415 3.957183314870869 6.079667127929762 -0.7661679161275902 0.08823691806122223 -0.2384420502951248
P 2.3110305353007607 8.44268295646965 10.342300396143159 0.43277528319649344 -0.01803063224946572 -1.3279848101064935
