# total energy = -340861.4311346299 ev
CRYSTAL
PRIMVEC
9.37170792214515 0.00000000000000 0.00000000000000

0.00000000000000 9.37170792214515 0.00000000000000

0.00000000000000 0.00000000000000 13.71644185081340

PRIMCOORD
 96 1
Ni 5.251895635717941 3.2482620115787957 2.1688990039632854 1.0016262012040427 0.8675094898915704 -1.0028955548347698
Ni 0.22723860864838022 1.890770148042737 5.120374963888516 -1.1546335787734308 -0.18753960701830283 -0.007950365195328244
Ni 0.6151354656047502 8.960870798911737 12.25627156316157 -0.9088415158711379 2.0541769571720945 0.7224239382724204
Ni 7.408353697680232 3.139250307356142 5.559630653503154 1.8597820177948552 0.4592620166331122 -0.3629397504605943
Ni 7.897313176369429 2.294690750862234 13.64726915614543 -1.3488451984952705 0.018783451255090233 -0.1350711048059416
Ni 8.851549828334255 2.459557833108187 10.818143652043622 1.5954898392058456 -2.4295436205421317 0.1342915463274397
Ni 2.8523635905693565 7.161634120190067 9.195955401265 -0.839260008127574 -0.02720869920430798 0.8799695700317941
Ni 4.344048936977164 6.39790554279867 11.361534009182371 -1.0629027886263374 1.1462795503817809 -0.7237357151053084
Ni 3.261026277496201 7.698267476061232 13.318088859579897 -1.8876288648037942 0.4374402927723305 -1.3641036673162379
Ni 1.352562345274271 3.1186606654908418 6.8094041084822 0.6867917908911075 -0.35006520849077133 0.6549669330710268
Ni 7.610417087874922 5.239459379570808 1.9074217983232402 -0.3714675854259474 -1.601034680283475 0.3473503806627696
Ni 7.23043182657749 1.748779404346259 9.001346267392412 1.0242789056065522 -0.18712514518870355 1.0745953944729172
Ni 4.65111294048948 4.1748146389327445 11.533908766484442 -0.26280582385146994 -1.2326794152342642 -0.024953841731860254
Ni 4.946968381566249 5.35478761479811 0.26318660512854325 -1.8570651330843244 0.5716451929232349 -0.6590228483079554
Ni 4.620917298209099 5.843531544209701 6.107643136890409 1.0345743739952893 2.4888348021032813 -0.6575735174559385
Ni 4.8249581187331385 6.159985998859491 3.2887908987934873 -0.03310038209839461 0.07031427214453051 -0.6133600561635179
Ni 1.5660685905975604 3.7421041499911714 11.54117840016442 0.8182443251078554 0.9154729051447266 -0.7359798225799841
Ni 4.03117447467719 1.3760853316565664 1.7247465970638851 -1.2330704800250958 -1.614675153885045 -0.38548061187558774
Ni 0.44443543247260525 0.9140085965680118 8.753105661738962 -0.9416143394267847 -0.11127348816571159 -0.6469476623109761
Ni 7.5995084200864795 8.853367939632328 0.0479606514382612 0.5168837809116389 0.2974802353052038 -0.5463077425997107
Ni 6.638074296591134 5.800074935502647 11.105119400053765 0.6690437228790671 -0.5527247018696481 1.4477575939924678
Ni 1.016849031255709 0.117473419124875 3.3865349988219444 -1.345191146682451 -0.4264498551990978 -0.32880912732547246
Ni 7.392262475521505 4.802709684601038 4.066376483222679 0.03872981247003007 1.6025912261373174 1.23347928542774
Ni 2.159260202571177 5.180389505798852 7.816081088176417 0.5594121411921528 0.07467974820207783 -0.3438379966341369
P 6.7340218402492775 5.107224583612962 7.261004211508297 -0.5121616928456212 -0.1148177538735442 -0.4905083762419036
P 5.376136364988895 2.3958395923061047 9.595817117470087 -2.2312503745517507 -0.505505106761052 1.5239751189953108
P 2.092636732375265 1.8977333268802055 2.5689659605674833 0.026531727741941402 0.0704561970390335 -0.44067294077701524
P 0.6661081839048718 7.230094445099497 13.646542848796974 -0.5004690869990414 0.9063038370509489 -0.14851977411167971
P 4.879754493783849 8.036070680901807 9.330046732522579 0.15451764356632744 0.39223155744617616 -0.16092611819583252
P 2.4362410242957764 6.60458918490032 5.9111277976671595 -1.0585617380488221 -0.6642720125220366 0.5506693620025161
P 1.4152215831037642 0.17535683469922164 5.6975493901944105 2.4818092627150676 1.0732651056972677 -0.5886484123494508
P 5.303599347220381 4.249001077260335 4.036240819871719 -0.22215951108501739 -0.2046695818303701 1.498623784714716
Ni 6.7687440173594 7.837662256718708 2.5128659809726392 0.4558316507953246 -0.8388128932878264 0.5693653957501227
Ni 7.980280904832561 6.71136105097741 0.42304076091398274 -0.5977935691838285 -0.05508485678928578 -2.5505484770629945
Ni 2.960625558174248 6.0464196446839304 1.4364128886048184 -0.8110997436432741 -0.2790639375815452 0.730606988303845
Ni 2.7533514984861087 4.659107007176372 5.068101452556576 -2.1326706798036237 0.5990199853917618 -0.9969807320122314
Ni -0.16264879902814885 2.193504422587475 1.8438600650401153 1.4020806607806433 -0.8295934315720873 1.239751234479381
Ni 4.468308409663561 5.695346101708961 8.488611703383196 0.2541468626248913 -1.3032811367122266 -0.10903174331938642
Ni 3.279198018769217 0.4554753041691567 3.9720343130973186 -1.4213325670317198 -1.4465843996199732 0.6011282899840164
Ni 6.979213829380751 6.966224642478018 5.457758316223144 0.5644990687967568 -0.9033375553337732 1.0701360731499827
Ni 6.4463947585524535 6.6170254410474545 8.896908893708881 1.9144881510884832 0.9267340798808427 0.12194073807157063
Ni 4.245636634188126 3.743472419318588 6.238279119510874 2.144039583762198 -1.7872738233227994 1.4199791383276188
Ni 8.462520869085063 7.267056460355184 11.628044759039916 -0.0008988576651855487 -0.5862274616127839 -0.3870741816149528
Ni 1.6664020934696147 1.0792177461458192 10.69339310187259 1.2548163563426196 0.36369642612096076 -0.4814429236055257
Ni 3.163241879124539 1.7364556086917897 6.200462404510938 0.07411950482323365 -2.0704263291514216 0.4623650810384683
Ni 0.8614501853213226 3.4185927994266927 9.079242027636381 1.5899629958503456 -0.44424523150930595 1.1802638777470253
Ni 0.6052858007888966 5.2814446301655025 0.8790980481326774 1.307263261288426 -0.5666441401642177 0.9045703992996099
Ni 4.384553457751778 0.6850587140895888 8.457530434723083 -0.060516569327818355 0.5946318836263953 0.3715269779089731
Ni 0.1455341863861775 7.2193450963423285 2.1814355373830447 0.18436660860695991 1.6491397633208178 -0.5693412273804066
Ni 0.3361744020384858 5.716751082146078 9.477073831948875 0.5499530526617818 1.7528997167183038 -0.4558275370302666
Ni 1.6589422141228787 7.071384574826918 11.6830341912697 1.3814699265088273 -2.2756962635699516 -0.48554100493429925
Ni 0.15554504457485002 6.224632038726054 7.023490462513483 -0.1510960194792882 0.7910541378463086 0.5987456486844527
Ni 6.067618447551163 2.2765190095892174 6.862554811656921 -2.0075356031644715 -2.117884779743701 2.004469305534322
Ni 5.425122281251946 0.77561940014911 3.5540392796208766 1.4040326423006917 1.076586199650701 -0.8326687280633014
Ni 1.6797474052657855 0.21421568359784723 0.9078129605929778 -0.00187561975615806 -0.09452660772467592 0.1797244818492582
Ni 7.861391420670888 9.025357519747025 9.857896923916659 1.9137965243380974 -1.328455579095325 -0.14334851432338538
P 5.618760506204532 7.411455732936224 12.776261703289183 0.9200528112059252 -0.5489711483644868 0.4106501691626799
P 9.24539584535257 3.6011536658518386 3.705167438346334 0.030112760224980398 0.017492243247492455 -0.8704906840070815
P 2.946530509760315 8.20366493009487 2.199321441570539 -0.4340058131694847 -0.003825801503993411 0.42891965689582906
P 7.971255950296247 0.21681445814916617 2.8536100276963863 1.2981702978482224 1.114842157808106 0.4047026933299933
P 2.4523322464545023 1.7525749459736815 8.410263289656251 -0.9843617576966401 0.3554305865677427 -0.04553423698637319
P 3.179764199838478 4.842202060941673 10.07148938895099 -1.0698311403150542 0.05064070497500311 -0.9631038767591283
P 8.64840869175153 4.506460631799945 10.73919170033938 -1.2536783860834344 0.4734848451007136 -0.2642456416217901
P 0.8908764103977249 7.991958052654211 9.925079885063573 -1.2415422649415326 1.589689687584301 -0.7519417452258791
Ni 0.2086282714539729 4.626446605765097 5.551825895312248 -0.22967664539766897 -0.4912763647561797 -1.3050407997158104
Ni 0.8815740533128379 2.7716263285440674 13.538525482763628 -0.8076531798555704 1.632528637126698 1.7107464803890213
Ni 9.212969736634346 8.26062616962937 5.42289087764333 0.07092465203501978 -1.5942310270980802 -1.9838130627365511
Ni 6.373838997368496 0.6959542614872211 1.493473468241171 0.07996542208104937 1.3793225411485213 -0.5355949841678969
Ni 8.438519925608945 8.36662018396553 7.459824053660393 -1.6288846126162078 -0.10634134097141686 1.8719536201603826
Ni 1.597379466096863 6.169695088059514 3.7113537026136463 -0.2358480643157035 1.0293236671193111 0.6325723674259106
Ni 4.761670976486269 7.627464224221295 1.1026376437431724 2.619328571951186 0.7796199278674381 2.6044837936288694
Ni 3.739161433766454 8.765189541675747 11.075011851825973 -0.5167498264369358 -0.022823168542102628 -0.03203851649278353
Ni 5.970302634565601 0.3544679755118886 10.839609548580931 -1.350297614671081 1.1722086115427168 -0.8576084287277747
Ni 3.745674770633265 2.785215304741011 4.079297256659042 -0.15836349967497887 -0.6292502450312131 -0.7697345504329259
Ni 8.800033550986255 4.490472498426163 12.885265910145659 -1.4839777526667668 0.1270783164084521 -1.042259401344373
Ni 5.26283241862955 0.17288832688523892 13.107102666463062 -0.2340863444295904 -0.8716083425512925 0.18524284056432613
Ni 3.6202157193584483 8.33850506079944 6.247331251999584 -1.1709914513061639 0.9543729246440338 1.5029643210715988
Ni 5.949900426854742 8.501666492239984 7.300370069794685 0.028253852639370695 0.2462450912793114 -0.2786345633536105
Ni 1.8075025249324999 4.058024417300806 2.6195525645094575 -0.9122978498508546 -0.3963316956574787 1.0812643218526605
Ni 1.4043691455616534 8.372168234936971 7.544138496523181 0.8185824251735643 -0.48799229468826927 0.24471939866340436
Ni 6.592321619492184 4.0976761126727155 9.410411937751302 0.05430272720762261 1.4230451788474525 -1.162633823370088
Ni 5.096259685578188 8.041909254812632 4.644593043427264 0.8755652703165113 -0.8336105231512805 -1.3949430212945977
Ni 7.362347984472786 2.5542870547624674 3.220387741301162 -0.7115160331106649 -1.0947921811357662 0.09617468485106018
Ni 7.245145407701077 0.08045985947671715 4.988326664914339 0.1992980331058116 0.857825172724271 0.5541660623018649
Ni 3.161395652703299 3.4982148282330603 0.8760841069292726 0.3149295411299028 0.19619394025919115 -1.5778255891568633
Ni 8.355383506406815 3.628584654354221 7.829235217135059 -0.17518057123231764 0.4937443666806981 -1.2996803067348457
Ni 6.811132251386142 3.01150455939715 11.491566453825538 -1.6449519504917156 -0.26209877048211633 1.283207505890803
Ni 3.9763406127955916 1.7158940819496555 11.826124236281972 0.05671570752448942 0.7798184170314892 0.027346253223436773
P 2.0388150149276463 1.397087328661636 12.79292741113127 1.5622279918289224 -2.19578612020687 -1.5212584913950962
P 5.102866739522219 0.5970705617997649 5.596664830908301 -0.42930403681844126 0.9890427081120772 2.0276938232799013
P 5.270179837483622 2.2499127313663743 13.793253184502266 -0.06581638427417696 0.322460045178993 -0.5073935820330164
P 2.540070174148148 5.278183275878236 12.934741966722575 0.6825695252796438 -0.10029642032891758 0.9864160691225077
P 8.057953618432748 1.0745131488693602 7.217893418816186 0.18001347384458674 0.3974262142732381 -1.683278613986056
P 7.708426407231912 0.7042941441890556 12.060866771303385 0.8715854597331569 0.5065412613350503 -0.9548964012476717
P 6.759559743791811 4.598912528477773 0.018130505759039416 2.0467930060031976 -1.1487686353522217 -0.789663171036053
P 8.499426654094417 6.694951190756135 3.931707854769423 0.12288998935871737 -0.16413948292680763 0.39576245341757
