# total energy = -340866.53601582174 ev
CRYSTAL
PRIMVEC
9.32005103907447 0.00000000000000 0.00000000000000

0.00000000000000 9.32005103907447 0.00000000000000

0.00000000000000 0.00000000000000 13.64083678088342

PRIMCOORD
 96 1
Ni 5.202638886235799 7.844127749295076 3.7387487229340852 0.08380150799768793 -0.7686197201021924 0.24303995407845239
Ni 0.3341648376673226 8.50536672980573 0.9848423363502343 -3.0289251030383704 1.531021227208815 -5.263896378085134
Ni 2.9179308966744113 3.5630089086982095 8.80927961383321 -0.031571347048377885 -0.4266663420852781 0.9849178873104264
Ni 6.900053180162377 1.1897790744493022 7.34155331752735 -0.058917343161498534 -0.2963263242064187 0.016656120499442283
Ni 7.499938264739367 0.5294599829753566 1.273514140927567 -0.3710364114257997 0.9919567964350788 1.2533120038829513
Ni 1.2320082256684173 1.0514229169017932 2.392043289259038 -2.3811312906770152 -0.9953262271279439 -0.005370777393610105
Ni 0.15669894998060102 7.27891325455148 11.851786040601459 1.3958639904469703 -0.2059026829065228 0.42193371249629913
Ni 4.32523996217517 3.2150168433220636 12.868506679496356 -0.00840107957950166 -0.07712178198466718 -0.18350168950350332
Ni 8.620981962838862 7.802774682872826 9.463603116479247 0.47473594389899537 -1.5810091290911674 -1.28644066811612
Ni 4.99935925320995 1.555507196936456 1.562639831990084 -0.4277595751494569 -2.1272456521333103 0.7588436145520351
Ni 1.0297537982559222 8.178903982309999 7.357471964687415 0.5282292878314452 -1.6695741199157699 -1.353990747251952
Ni 6.175810654685662 9.013868714028842 5.546350252173643 -0.2715887122504226 -0.7317650131676882 0.44414495848601576
Ni 8.974314417455474 4.0436439403401785 0.7476377175734308 -0.1234288925813229 1.9145038348177674 1.4523948356541632
Ni 1.2247572259667021 4.3607959568564585 10.550464595419344 0.17622546755706425 0.539638043889019 -1.0412569282217872
Ni 7.577872531456259 4.537466844190281 5.4580399726445155 0.3790307424851859 -1.6603898823133403 0.7022670037085711
Ni 7.969985718410708 2.6395782525980285 2.3367707266227633 -0.2456352256094544 -0.3364854129238076 1.464349436912878
Ni 7.329213569962993 4.954874649641458 2.9849420635835786 2.718426601096628 -1.9508867443221756 -0.10054607444587846
Ni 8.440909256878914 8.12563057061976 5.32202687592607 -1.1468945582579602 -0.3438693640927045 1.499749927899359
Ni 3.6769465325458546 7.093537439555188 1.9333700258652975 -1.826761082784144 -0.33326921997935505 -0.10507481555416742
Ni 2.7640754942632104 3.2459966929473865 6.431804496339919 0.8266927129855246 -0.7941026948646452 -2.7679450195417297
Ni 5.783949109109037 0.6212335934674122 13.148525748696988 0.4133739958517461 -0.005370777393610105 -1.3540874207308164
Ni 5.229461993101526 3.664308543348521 1.5029747293031428 1.1559484409301124 2.345746226309502 -0.6462429229344677
Ni 3.49538261842103 5.817864774808961 9.752625354975326 -0.31439732277551663 -1.1520699318113126 0.15527920432270034
Ni 0.37664376625405455 0.9899851405088543 5.957798816995931 0.44832711488816335 0.22268375901960358 1.1927100739301781
P 1.1756778372401826 0.41193413948097557 12.872257068031022 0.5187465451519905 -0.546642243120994 -0.5358004153104837
P 2.2210986412783456 1.4050442931003506 4.895041786035969 -0.6835102919263584 -0.830962286895156 0.9308391031881518
P 3.656852502524135 9.123854636239562 7.114350977516461 0.2664701600769346 2.7417272234957815 -0.299146053043401
P 7.208630749730613 8.06047409386566 0.03083166081393831 -0.9341296010139655 -0.30438236174167577 1.191288253881987
P 7.727319549730042 8.318518346746622 7.389350267232076 0.6675853931659858 0.544362703058198 1.0552411583160213
P 6.446847058703117 1.9640050336024928 9.347724126001951 -0.8395276599666639 1.1044703276554786 1.090656818811154
P 0.10057639869034608 4.310859123435135 2.883031965590771 0.7285058828004422 0.45313687757198085 0.4206625590933594
P 7.117312889733948 6.346712430431615 4.4887080652192095 -1.1602336985690276 2.385482111446543 -0.035242368142061886
Ni 1.8693133151327932 4.1514210104566756 13.056340191949387 2.1730071746391415 1.2997795513168713 0.33855720785117177
Ni 0.8755992222066428 2.2439048061499354 0.31223568959770087 0.8724341808866973 -1.89129911456653 0.11791953272731952
Ni 7.2767603227634385 7.456161985049191 11.538743234584517 -2.8307532131172017 0.8680851598893823 0.3101588592141368
Ni 1.4361825835931918 7.789577490613662 2.446920681731621 4.39217130745032 -2.644502500113652 2.8266150225791127
Ni 1.1646149366670002 5.8973741301500056 8.550990243610148 0.1473712623295333 0.32049237992966095 -0.04961432059301778
Ni 7.638546063664698 5.677551406545052 8.926768177123469 1.622823236913476 -0.3295822580460711 0.17498439606111155
Ni 4.511687583039967 1.6107937396492769 8.206054222966896 0.29901929765754953 -0.12318155245720722 -0.4705270480239703
Ni 7.5150833476639 7.627119681101327 2.290392288684878 -0.513351085168032 -0.5924068509506185 0.6468103654021634
Ni 5.371462290601953 3.9038524949339757 10.696612315628338 0.41393809588533226 -0.5226199120644677 -1.6660640498799821
Ni 0.14524647127434442 2.8451133379732534 4.493496707438672 0.7570109322186704 0.5662942130239667 -0.5180934849490239
Ni 2.942377390527366 -0.017395875248395108 1.160474037994157 -0.6522377070653218 -0.13399098436788537 -1.3948566322283784
Ni 1.7222429098717835 1.721366825074918 11.045067587540698 1.5430740446082907 2.5447179864241467 0.7711926230356911
Ni 2.419708928737922 6.660210986943946 12.186232343809904 -0.0051018400029396015 -1.5400938789340446 -0.6155205541499464
Ni 1.8515213377156026 4.936812390744383 4.260320214717242 0.5690470931787555 0.17287969101328293 0.24814770761866292
Ni 7.869990890904664 0.9747375370229854 4.5835805926789 -1.1971940778434607 1.0811686768150606 -1.7944554286729029
Ni 1.3212943145404372 8.58400932040094 4.748934142046408 1.6672719541451544 -0.09734145146565171 -0.22612852303509445
Ni 3.3172578031264535 7.634706202640139 8.448069852085634 -0.6927521222396004 -0.2394751195453295 2.1262053837942543
Ni 7.274430310005818 2.0782781792872353 11.586295066947141 -0.726266194836646 0.6591565456723423 0.06200986604389321
Ni 5.273872036261774 8.448821980203794 1.3402363862547892 2.504612376652512 0.6647204129133648 0.5711224876505455
Ni 6.777075106815163 6.496140808603338 6.633415840231311 -0.2648495937543761 -0.36215787798924726 0.3552390393822269
Ni 7.018548308963928 9.393120230561225 10.032371346680765 -0.40586766017237197 -0.3531739293230821 0.3841744914696545
Ni 3.0066111822294497 4.803992343508981 1.8226888278477027 -0.18015848406288326 -0.2762526933849952 -0.39550200066733177
Ni 3.133224075478551 7.308606937134597 6.246097819532045 -0.8490602820474474 -0.15538847620705498 -2.7984868968843286
Ni 5.669648003271202 3.0978638018689013 3.89173083656373 2.096282113872261 -1.1886772986217014 -0.5764665255712781
P 1.252102255690137 6.395474937423098 0.4045479990393184 -0.1455797176467493 -0.5555999665349142 -0.014980275458916135
P 4.732050869604688 5.924849640587867 0.27963042307266184 0.10931430755681175 -1.0021103399293128 0.5226101418724547
P 0.7373148290520686 2.5582701274081012 9.337698547108461 0.2909666025564021 -0.39389557541216036 -1.523855562698311
P 5.215556476964047 4.734231761545821 8.328153415501934 0.41346398446239113 0.5235236548256597 0.6893587802873353
P 5.646319915541905 0.7021521405242651 3.652157060814978 0.14327009567696616 0.7430578124726881 -0.1467390280621731
P 7.38578627971802 2.660744088488254 13.915290074995173 -1.212546906150447 -0.3966775090326717 -1.5079062384579063
P 8.17740345409409 2.576276465998993 6.299201606293526 0.19941064742427592 0.6484180762089156 -0.03864239496254636
P 9.053236609581598 8.924834266534644 3.1397797993733922 -0.899732097370702 0.7761800489479536 0.6679630882203786
Ni 8.296485746110562 6.234284654850908 0.41667804545549103 0.37848258329119977 0.512551214974556 -0.4843444135230368
Ni 4.349788976589459 1.185212249444366 5.569840508790871 -0.17852326245230546 0.96719013101336 0.018493173708181054
Ni 2.8853945985269975 8.909754423967323 10.858747651375019 0.3563890938262701 -0.5876258846222072 0.20978916244512258
Ni 9.274718302269978 6.686484210798876 3.811018262634651 -0.2005892411134094 -2.5977320767273326 -0.2726122684189305
Ni 9.212674722560058 3.7263241629053496 12.18474579567054 -3.3108807603454142 -0.4879982082255402 -1.0057384236002034
Ni 4.894620519729391 6.05069828965247 11.738294847198175 -0.2799669090117888 0.2823428654431331 0.6966982513715421
Ni 9.285063558913812 0.5222602435543091 8.231099064096007 -1.7981051096103484 1.9043685461559783 1.8249952491329733
Ni 2.146351832013878 1.4378415526766175 7.631447912799883 -0.23890279198162728 -0.8299713837367964 0.7284621740467003
Ni 5.64659951707282 5.871026345886833 2.2723999301705318 -2.294736053810222 1.5869818017348347 -1.192991609726339
Ni 7.136251233427888 3.623719721110771 8.079113263921522 0.535844895395174 -0.5871479165445243 -0.42076000390317214
Ni 5.523341842194692 8.21084379719146 7.725270070508438 0.29279979911039894 0.5781482841490752 0.7070927072319887
Ni 2.6183564964016206 2.5027133032153968 3.1530795121938904 1.385138633609666 3.8402657590478575 0.4499805913311863
Ni 4.079982819308029 7.916908027792111 13.090920377287782 0.36648427327874306 0.6623280014217883 -0.364052781019115
Ni 3.39314165861664 0.9063078583469788 12.740909588858434 -0.39244855855298866 1.126889575890943 0.01232226901077878
Ni 0.3277927187777818 0.07941708683584225 10.671185352406976 -0.3427990138466612 -0.09473743818390135 0.20014649714903596
Ni 6.6441898192225475 4.714808775198297 12.708567147772454 0.8821994878035774 -0.6919008299828987 0.6755480996564882
Ni 5.22394452289148 3.394744707393883 6.565811918076604 0.09902141027123591 0.33972371735544715 -0.9082820438232422
Ni 4.702357187021573 5.70401103142059 5.168294498188471 1.0882119568150872 0.9751929467131786 -1.445702768345968
Ni 5.7640787603120485 6.586974025946417 9.554383209531453 -0.8978958154929118 0.990052123213198 -0.10617396215561715
Ni 0.7667345021348888 3.916099041988029 7.2380187346399305 -1.6143319116130135 -0.4860056032755436 0.24757332317243166
Ni 4.683307002715266 1.1820993524001848 10.629158446295222 0.6897146209648574 0.5207666609058129 0.49919716226515315
Ni 3.567407972784597 5.276248649274547 7.051562725729205 -0.6587132874873365 -0.33393487858781196 1.9477685104081683
Ni 8.302282817851522 0.25630792737398306 12.738877817733789 0.8490402274427894 0.6529108218729466 -1.4533201756819099
Ni 3.433497479578628 0.29027298934436946 3.2967853790328965 0.8457957523635626 -0.9563102508760628 1.6316436634185836
P 3.039175440529955 2.6838484949928194 1.02014948566901 -0.03591265473620912 -0.041571395683883246 -1.260859991433538
P 1.0297537982559222 6.0010876580172114 6.320468098734881 0.4452901278340525 0.23157797618543988 -0.25858355824000623
P 5.1052723131203495 8.347997668156037 11.143431406116408 0.23373076086238456 0.06338617756612953 -0.36727643016273526
P 8.169956733320735 5.624874478120765 11.167657946765043 0.6458264042223393 -2.247474806830413 -0.43247215013377777
P 3.93949237007454 3.8641490775441207 4.478941583744367 -2.168775395945981 0.1313687162536899 1.2296884509267403
P 1.8223961782453455 7.275026793271769 10.098474740619563 -1.7696411978427005 -0.24406865245328285 -0.04136493610003199
P 3.26617460342838 4.193789962441247 11.114840285570198 0.21600660410974415 -0.6679057526198819 1.4869280935443425
P 2.9331412199561586 7.065297684932827 4.0127386511231 0.3050930146554552 -0.21844915211296573 0.07323350267385452
