# total energy = -340862.18448805076 ev
CRYSTAL
PRIMVEC
9.34826519100329 0.00000000000000 0.00000000000000
0.00000000000000 9.34826519100329 0.00000000000000
0.00000000000000 0.00000000000000 13.68213104415982
PRIMCOORD
 96 1
Ni 1.9893014802725946 2.136415129279638 5.781672041373245 1.113914503787514 1.1000248902896153 -0.45941782548468624
Ni 6.530847621192388 3.9666184845950703 0.8975970511237077 1.9700854287378136 0.2047197183420152 0.771466188412052
Ni 0.5051250951141566 1.042742890312108 8.914633738966002 -0.15427878808264398 -0.5977316055976416 -1.3895393337805229
Ni 6.610223740765293 3.0711294672675806 10.858617634165745 -0.6181507926839418 -0.01835896212316193 0.4421271567250386
Ni 0.5945739704095683 3.9164276488882126 12.913400907486546 -0.2527147581640551 -1.76890406256636 0.23248480427042542
Ni 4.1667181005953084 7.524035357829314 3.161557105926469 1.4749796629332146 -0.5961092395028701 -1.7846484698848104
Ni 9.267851394693066 8.443493327057043 7.42547005433846 -1.2332244891044568 1.1977288673010082 0.5407608446395525
Ni 0.8074367728487295 5.525067771369183 1.139681595663086 -0.2674584921321329 0.6740200930477359 0.8847636489863278
Ni 8.395003875611435 5.789763899705869 10.365117106792598 1.3168300790412548 2.5819002519013985 -1.9630948563525934
Ni 9.060656445427506 5.755801652337082 7.4856308148509365 -0.7238781542204437 0.063033165102085 0.5829207658370541
Ni 0.434906536103449 0.3840772138853644 10.935388392235298 0.08330502797724362 0.2967474709042373 3.1264568161379573
Ni 4.296621593421253 8.61251930962655 0.5490750289923871 1.2619779070880655 -2.0035447368375237 1.056740368569367
Ni 5.282573772815283 0.040031141118253864 12.226106168971473 1.670514115231536 1.0309131230936182 -0.21335219720603252
Ni 3.115458940711782 7.102391205524956 13.325342495369197 -1.3672995485457162 -0.3553241428968654 -1.4809795892703914
Ni 0.5337625706411425 6.580589740171004 4.2403656032709955 -0.47611791184818647 -0.7307016049001802 1.0412792968192905
Ni 9.425107911411404 6.007438254228903 12.566599900973337 -0.3493545555769919 2.127746503029129 0.07056161226864621
Ni 2.776836731397292 9.426977564445744 12.240704419863597 0.6784573028834832 0.4859958330835308 -0.5511419307635604
Ni 5.120867481875217 5.697272164097067 6.501707208999164 0.8125007377558586 2.7741871437966994 -0.8498200430316073
Ni 8.436089501041057 1.2179293796297668 1.0220233953855522 0.8922859255053022 0.42096594926639114 -0.05921764801073673
Ni 3.829956196049987 6.151981130313729 8.855431175633624 -0.09476366343614646 -1.0805359283270681 -0.3002788810962635
Ni 6.270526480956057 1.8896209287467574 2.1207025651790445 0.4175291556707003 0.6817781397266001 -0.44283729541818573
Ni 8.678097389806027 1.883236063634486 7.08230926228311 1.0142140651713822 0.5608144208563179 -1.8982349224544148
Ni 5.795943102984363 3.6276877825299136 5.789347901905728 0.450779690193714 -1.3132282206226094 -0.6074202936403151
Ni 6.564202231325014 0.9946741107992265 5.725492706997396 1.3204257668123132 0.8693563132923222 -0.5412069310380357
P 7.788329510763617 3.8299748925803305 6.914004965784857 -0.026438139586870593 1.2240286815378016 0.40803175770322636
P 2.784736015467378 6.261533449860882 1.7447041220550632 -0.2597752645552623 0.1877596934489089 0.5905222323333958
P 5.371008361339565 1.9605742613999604 4.032014273603697 -0.621979936622045 0.7229540997442775 1.4183986812143767
P 8.580024739889721 4.467180691478919 3.7512026709375172 2.238826387126796 0.35204701480749045 0.5758630876593244
P 4.896013659700315 4.24678599179092 9.79773256563492 -0.2562955335367779 -0.011475604739767333 0.5051724060119815
P 3.116206801925518 1.9049333870980019 7.637762612602148 0.20163619432068497 0.7149222305787364 1.2058036738893427
P 9.22982265197459 8.120725775473757 9.754428596880052 0.9880798299781759 -0.7609778872862185 0.09650944248265961
P 8.364874416963044 4.279411437240153 11.595044984770242 -1.2658330191680973 -2.4319113494433604 0.660065944860489
Ni 6.088917733465441 6.07884965187552 10.376706151125953 -1.525962838849301 1.0474149774033832 2.3337556296065296
Ni 0.5370737261649586 4.225013882206031 5.906959360857403 -0.7011200345883215 -0.7741182813229184 -0.8576562512465746
Ni 7.178794576773261 -0.029375053649033006 10.198646939921032 0.6362508447187623 1.6227504746940118 -1.2656530419468073
Ni 8.425628792313924 3.6368864754588666 9.230540598739777 -0.6090578292437382 0.502837587231218 -1.001075213796579
Ni 1.0263834262616331 0.9182950450403686 2.8116365833254626 -0.7085032144262702 -1.0290169345121696 0.6389420183976803
Ni 6.368468255159959 7.0045242174424285 0.680360195410708 -0.10443358242574272 1.2444627810224373 -0.4711711093658724
Ni 0.8448831186470084 8.699925588981946 13.302916942048805 -0.8009788531591883 -0.3116783811824568 0.6348436799585905
Ni 6.325541021491512 5.256006003197311 12.648144818066076 1.3182133325420264 1.2633938135989855 -0.9495652188427454
Ni 7.792489488765024 6.098256650371969 2.1819580075431264 2.143736193589166 -0.787305983657786 -0.08288799504448306
Ni 3.5881165760581073 8.123735916859042 6.0604859197722325 1.2942413951074614 -2.232452622389968 0.9144714604634057
Ni 9.306067102714975 8.120996875163735 2.5025165640663403 -0.4157669215639549 0.04235095416238513 -0.810745702737965
Ni 3.6277906134468023 6.02276006084532 4.653881439008561 -0.8035545843061644 -0.5617855265203358 0.023503996659211136
Ni 4.1718409499094005 4.066018588165756 7.667616297427972 -0.30273608438750443 -2.624705519992383 1.9438110684223167
Ni 2.5860012461822075 5.2078624375630564 11.136830419114194 0.6819933410611997 0.1255297409744096 -0.40759929815149804
Ni 4.117293822632531 4.005021157920414 3.3176291974475527 0.45202718944756987 0.2646197371317572 0.6227713221750887
Ni 3.5735613271857702 0.4984925009748354 4.654605929559368 2.408749566614916 2.113014596135593 -0.28205335922717234
Ni 2.8843324326066706 2.722635489931775 9.947935816281209 2.5273409285982797 0.22645556735720998 -2.4799236156565807
Ni 1.2067301579540701 3.039513634456891 8.127692102679706 1.01054227274675 0.3620756026880861 -1.5957783169805422
Ni 7.63294264707962 5.611408348495003 5.438414027360109 -0.6044316433256365 -0.1808269708848176 -0.3084488185015656
Ni 3.913819482905308 7.472348799694985 10.759600809467099 0.17114265371751813 0.44656205256794057 1.0067365258474146
Ni 4.159258184988293 1.3711007044680716 0.5871729488731334 1.2434135138223166 1.0743642522987176 -1.1217134310066423
Ni 7.493036510519957 7.37751999779326 8.87908696065061 -0.7977626602147357 -0.024549150094273848 0.44041968711562857
Ni 7.375771872206152 7.843540364867678 11.816504451861297 0.49942136246081736 -1.4355466537485728 1.6233217738164496
Ni 5.9866944538129 8.03177703236503 5.112601745810399 -1.983428425703623 -0.646137507704855 -0.21765596678770902
P 3.356260903269603 0.0811448113433906 2.2693044580014226 -1.2908740212971253 0.5305702772597959 1.7373517416813755
P 6.257691312875313 2.017467803234927 13.586684466162279 0.22461234350088416 -0.3876598789150937 -0.4494874537448517
P 0.28675616448886404 1.1782272974455568 5.079682764834775 -0.7588017055705061 -1.2657093491060396 -0.40504722115360564
P 5.24687274812456 7.316485174487231 12.498202384018077 0.42559316362575733 -1.8998714296165728 -0.4479193379267834
P 7.6658578887491755 0.23646717199770376 2.9012546622204822 1.9623178689772527 -0.05119580614752473 0.3984451424560557
P 7.270538451168325 0.7778009026014061 8.059664777025246 -1.5759823653005374 -1.5261543860348168 0.8825807824023961
P 3.489744781656308 4.013378506983913 5.639076408923684 0.6423569576165001 -1.9689999089831187 -3.0104828371727828
P 6.964064925779311 7.1437385823793855 6.938605860410703 -0.6162178373272871 -0.5655305953850647 -1.3311200133013654
Ni 2.5499730322104757 5.428920864078247 6.674841754111635 -2.5172856012448066 2.2602336491579784 1.8058749833637544
Ni 5.790521109184776 9.0111760778737 2.380293605905466 -0.9974062495854242 -0.8618124395067932 0.14465849138406053
Ni 2.789999088759046 4.930499409918717 13.396297697675434 -0.3432214460960605 -1.382849323354857 1.7966984590708088
Ni 6.356913799407737 5.1552971425025875 8.448031909797903 1.4583633945327723 -0.48838593058226204 -2.170075088594011
Ni 2.586244301076672 9.232729962442988 9.650431016497924 0.0680424453912183 0.6867393403866173 1.4240607645961603
Ni 8.170654859755805 8.275953718649834 5.494688714040708 1.4772376057294556 0.6289913349428715 -2.003229262479634
Ni 6.509673800578488 4.272166531732085 3.296367503141038 -0.5711944785390614 -0.7358386690164296 0.4364990119049837
Ni 5.1798363385783 0.9539811125068164 9.407422863359582 -0.028248453322731997 -1.0866893495229737 -0.9770307712528656
Ni 2.8525576792880623 2.184820446338701 3.1769088269914354 -0.11852836995591201 -0.4071303289348795 -0.2741364183729408
Ni 7.695613416790696 1.029505746828981 12.360642662016511 0.36667504913331045 -0.040312840686433794 -0.36315880844993587
Ni 4.692062558449336 5.446972364124799 1.402869848827577 0.11662678205782495 -0.4122288265037094 -0.16827638791331664
Ni 2.149502700520018 9.327568112609885 7.369072905384112 -0.22623470959565556 1.1822757659707315 -0.5959302907228446
Ni 4.798427119572938 0.6185737715848738 7.052440620233011 -0.6867493676889463 -0.32595597414739347 0.3243166387717576
Ni 2.5627614589653613 2.9052725465912785 12.185305665629587 1.135838814664431 -1.3225759803860964 0.7893484680091115
Ni 1.4714823758817865 4.414241465811582 3.4777107599007784 0.03789163283945087 -0.16950280412125002 -0.37818870619986483
Ni 1.4887579699190883 7.184740073422462 8.356073960130406 1.782428836525672 -0.007837493766547793 1.3680086587975988
Ni 1.468668548065105 5.0799875182793715 9.13367107055107 -0.17836179717377668 -0.6810201785146529 0.36320277431399384
Ni 1.3850670126345914 2.719279462735135 1.1253993161337628 -2.1668059309244363 -0.9556124534780897 0.24350120998558708
Ni 0.7806044473263989 2.8349175029090645 10.439616236425426 -1.384988995405679 0.22655326927733888 2.5754115588532613
Ni 6.28390384841676 2.7128572045621766 8.297473425075088 -0.04522699015859953 0.3311958823900942 -0.43008385240725927
Ni 1.495245665948248 7.441854758704899 11.310648322410714 -0.2799142013969824 -0.2020956504556068 -1.0499459713553532
Ni 8.252311956030605 2.1723218158041377 3.794752499066399 -0.6040115250690823 0.3132578098544347 -0.41325366822379794
Ni 2.262598012567245 8.257920915133626 4.067806911293102 -3.0006925905552384 -0.7941769997460064 -0.41394143831944197
Ni 4.848038362839151 3.6799539331048883 13.027824608014672 -1.4262991670083758 -1.6825083114789345 -0.022736008144935038
P 4.107487492467418 8.2093379810363 8.565779853421084 0.023561846480340067 0.9116974972626943 -0.848381767923184
P 1.53127387991998 7.381801503241898 6.145917845523365 -0.7508199729166101 -0.28483169330325786 -0.7972021597255754
P 1.0318615096522494 1.437875362589525 12.847343261303763 -0.7594357396100792 0.7710075036080787 0.10143336214683821
P 8.813572448674302 3.7447561072751134 1.2623654232969257 -0.9163226547395317 0.21682575757692982 -0.4601145944413947
P 4.2483938934004515 1.4352391518111056 11.110204690252155 -2.403315025862906 1.4735213332201333 1.4029733477982418
P 6.355268504737518 6.385472749507281 3.683585734124094 -2.0683709892842894 1.1522118567058157 -0.015787601851559908
P 8.629205962958036 7.506600843284094 0.3917222251427807 -1.1384448848287103 -1.359631490477497 0.6277893442149705
P 3.3282628490803616 3.0994827555333466 1.1643273619617558 2.164094188420228 3.8504876938861816 0.6039865853684179
