# total energy = -381169.4987551053 ev
CRYSTAL
PRIMVEC
9.26985515860962 0.00000000000000 0.00000000000000
0.00000000000000 9.26985515860962 0.00000000000000
0.00000000000000 0.00000000000000 13.56737003594275
PRIMCOORD
 96 1
Ni 5.086499144055913 5.136788106714973 2.2755871476410396 0.258588957556645 0.9823547545689405 -1.5212374083491735
Ni 5.9951488579298955 6.181408051793211 7.79511829200208 0.11830391264993173 0.5401044420024763 -0.2738379132959155
Ni 8.369983706715493 7.466145047518016 7.275122075238021 0.545048673381629 -1.0753201884540835 -0.3143847243700263
Ni 0.029606989462999264 5.693313113571989 2.99403334440536 -0.07851660544966478 0.1905233722369751 1.0230378341105992
Ni 4.600230367243691 4.910473869966901 9.280582871068223 -0.9301292216053207 -0.40935613294160467 0.3044890625228691
Ni 6.722192845084313 7.8068863727570434 12.847458020869304 0.4718969317883035 -0.11608247951858072 0.2548896543281868
Ni 7.072102056787821 4.929402913607417 0.8062270874371255 0.9335734714001793 -0.3576782449513388 0.2897887801982171
Ni 5.003737879794145 2.353681039976754 10.148189375528517 0.40348758997596956 0.03846601728568214 -0.8110236389897
Ni 7.04228093367737 6.472453685084732 3.1323256742540577 1.1476026400685786 -1.848546811200668 -0.9465020065363894
Ni 0.32667153952033146 0.5984405096137849 10.071424780380879 0.13765609192429842 0.41347324043377176 0.594761210115408
Ni 8.994623607142788 8.67844739730404 13.11109918221447 -2.878336362212804 -0.7522891012629689 0.8127221097380454
Ni 8.11511831697389 2.757550076867061 10.367966510623654 -1.5766971319793748 -1.16331773681099 -0.36941841620640253
Ni 2.679683295975614 1.513980506611174 9.363831729696047 -0.2641122013677193 0.33899043873384843 -0.9807910096262464
Ni 1.6446576506857853 7.423930128449011 0.06853018306836813 -0.21113179251594608 0.9956077629241047 -2.765776036914869
Ni 3.518707129935827 6.728069933070644 11.297887760463304 -0.7014308809605211 -0.9663329252193873 0.6430421566089828
Ni 0.9187909350996071 5.122614498621756 1.0020110571773415 -0.18421311374823116 0.8456368581881953 -0.8982241453666078
Ni 2.8102028525174685 8.776142397758203 10.550936759979793 -0.7749294643703041 -0.06734310533134855 -0.3128999122943837
Ni 8.214352113336146 8.312519876388578 4.09067015309006 1.3044047087937083 0.27968845853942154 0.10935724497960521
Ni 3.821747955426578 2.9467478147235417 7.616830246339783 0.37062452069936175 -1.0772932530200543 -0.04548050093030232
Ni -0.10945659231071816 4.9954598993969945 10.272506472178174 -0.5611620340037239 1.0988491248139594 -0.9677043516456173
Ni 3.6040268741411707 1.1284657823595652 12.005887757776843 -0.5766819840161939 1.290803573070506 0.3483996478628903
Ni 6.543822297713691 1.8558805637087044 2.320603416851165 -1.4085508418860193 1.031446626999585 -0.051432347638363025
Ni 9.160952613039841 4.9014821107449125 7.73968270592029 0.10437367572208475 3.320244460948501 -1.477679835473197
Ni 5.179828042867233 3.29030717584245 0.5991848789596876 0.2571432262490539 0.4712469569091303 0.7660964394597064
P 5.356780302443047 2.5899140214336165 12.205503885519501 0.3066932692630396 -0.11274878715965744 -0.35492922145129197
Ni 2.4301573426379965 5.719250167492735 4.95900897608493 2.738108138685955 -0.4449625692913046 -1.1295252137415772
P 4.195341646317901 3.36980545119067 5.314149166890466 -0.4120997571250129 0.11984400344354199 0.6035037321947283
Ni 4.484134704876491 3.2814730041532174 3.1277259722685415 0.10189976026029547 -1.5111021196873846 1.5945655276193633
P 1.2910961161642738 0.16249406693814866 12.217144969262772 2.928447419936582 1.027042070173986 -1.7177635351368026
P 1.438978110873948 9.19610390269941 3.615907120140037 -0.23443678579047367 -0.5219020600618366 -1.136700134223462
P 4.59920141335334 7.7971530251456125 12.941059453413743 -0.6285491051991304 -0.22771772189908523 -0.20338634424257226
Ni 3.015613566538133 8.143066929401 4.958575146877106 1.0044045352801283 1.0155597805659993 -0.19427795418340088
Ni 0.63311996366057 7.422484031089598 11.08258703828394 -0.15159404216162925 1.3188327112935803 0.8406023810880813
Ni 8.879019247083594 0.761134805417083 6.785665395336684 -1.4929187639101387 -0.31430064929665225 -0.280707129611923
Ni 8.331828984078683 6.057015869319124 12.139267991530971 -1.1325064078570883 0.39905757922907403 1.5281485336467102
Ni 5.637415888717771 7.135702531037371 1.467189060193822 0.10663650361433248 1.7407345421106795 -1.735937120722036
Ni 7.292084982661028 8.946781886168889 1.8969488017305352 0.793805989559833 -0.3072388573538644 -0.58882710401916
Ni 1.2216834429124694 1.4750378463105824 5.081386819096194 0.02378167580063001 -0.2625780241113801 0.6576650487284802
Ni 3.2823907197851523 1.4552188966027355 2.255262990842885 -0.8453059572113377 0.14918389005823984 -0.4913342145773086
Ni 5.33630319303957 5.456616639371724 12.723750880669964 0.6748952965638376 0.8020448325298574 0.06658128746465952
Ni 3.54405091314502 6.2182928043131 0.7464291076544411 -0.029175850233007818 0.10226228580603679 -1.434650881407181
Ni 4.822957170157835 0.1735196323181829 8.789770011399693 -4.050073176325425 1.0096331306689192 1.4953800809664375
Ni 0.9331499402901847 7.894199135759012 5.525500930896052 -1.8564069306750353 1.5181340868335016 -0.1574067921886644
Ni 9.110441173863949 2.899072951137267 8.413166398632722 2.505115798651492 -2.9878617573391577 0.9003306501866494
Ni 1.1461804750123696 2.9249080366544646 1.4138558771961012 -0.09203058077569956 -1.5701197358721735 0.3885175989296986
Ni 1.7146265152296716 6.756667435338515 9.30671366495571 1.2370703452131082 0.3899414758604188 1.0532740072873215
Ni 7.08320734291972 4.13395666738181 8.503701363186817 -0.5842644243491422 0.9876553408462473 0.591174264095098
Ni 5.134906326176762 1.0735048128470188 6.2428894372199295 1.1387035378067356 -0.44667312422450817 0.2172661875484581
Ni 5.684024718994222 6.824587661956566 10.529960932384416 0.8720073777619239 -0.3240965523411515 -0.33744957660928976
Ni 8.865920942155068 1.4350198828452991 3.2613110698152536 1.2464489582145308 -0.5837795142929235 -0.8263276163366221
Ni 1.5433474068330915 7.384514705550149 2.1380002537477996 -0.6833169449686297 1.085696389482085 2.6825039190580897
Ni 3.7520571865287327 7.207469747425655 3.13801087624462 0.6404862229563486 1.6053621040142352 -1.3848918077061825
Ni 8.396569650477 3.6412731510009126 12.398948143891028 0.35696502093439814 0.42524760736088046 0.7900575782609942
Ni 6.456027502258584 8.603584049389834 7.847706178668411 2.897132154763068 -0.6738236607662137 -1.475852295346155
Ni 5.469872531833007 9.20409451759565 11.268988987912223 -0.1798386388296193 0.16264875731389408 -0.30089054653833336
Ni 4.973814788280146 5.803401909984706 4.449255948950043 0.42959431436535045 -0.8960045120074699 1.3717706969431924
P 3.7056986423337173 7.041696932820685 7.889602214729957 1.005291822981088 0.9785302386165275 0.8762054750036716
Ni 8.081570712206492 1.88972480383188 0.5417423692989696 0.5818365316339399 -1.4436217174472237 -1.6649114243327778
P 3.1411459411609877 3.6136397136393166 1.3672377770647812 0.0222104746587682 0.8388388614297553 0.18078866144771444
Ni 5.841139489152454 8.11808467053166 3.839714788131793 -1.1439704426326298 1.5865282591371839 1.2048960744734087
P 6.899237803208807 8.931857419831362 5.660116836304089 0.14769650687943595 0.6582558882349437 0.6259497199030704
P 1.5335584400924522 1.6773524288053252 7.303505443858441 0.25139526802168316 0.09271809376102742 1.0995831747665064
P 8.364616460746904 3.191916936273185 2.0350510995544377 -0.41801355150628655 2.974320785429929 1.947722230551265
Ni 0.9192692596107974 0.47216469263051414 1.2629444939155554 0.3795665603839979 -0.20270885855957346 0.8148756657459385
Ni 9.0307482315635 3.798054206383895 4.3782720352981075 0.2787006407048555 -0.48286988586003937 0.6267891850852302
Ni 0.9540534630175911 8.63126383602577 8.084877269437918 0.9556019119551284 0.6412824936053988 0.443055839186895
Ni 3.849789266402367 1.2634348692380741 4.4991435268933175 -0.8927947468209205 0.020956804757325198 -0.4685483270310447
Ni 7.627598109754485 8.263296947039342 10.506598117160522 1.1064439064420817 -0.7004903714241226 0.23979162234448384
Ni 1.5096792939524084 5.568420358935027 12.3487481718387 -0.7876834216018629 -1.0713527191659034 -1.0130809800082037
Ni 2.1433109536016937 3.2465256513007463 3.9707617994156386 0.7811548764547256 0.701259131269347 -0.6453013849568048
Ni 8.330642442655575 6.96409897772041 1.046453522371135 0.4231580718217035 -0.2781128865221855 0.10546228080057321
Ni 1.1886364103079445 3.117072128068715 10.471322611445721 0.35125614347507894 -1.1339863348367245 -0.3526090579585476
Ni 7.7530748652481325 1.0199065120000723 11.898745848226671 -0.8523176126424805 0.2043458799423642 -0.11188386805620086
Ni 2.6574078347277386 5.429335456495114 2.6819840739538585 -1.0596804250342977 -3.12021186366951 -0.034315485452418325
Ni 6.802590296354733 4.016090462734816 3.483530811668116 0.44730304449902325 0.15353419660713558 0.17798178812653861
Ni 6.471693556985553 4.505501720347299 10.811253751369284 0.19205163595604344 -0.35021227559159684 0.744453407268634
Ni 7.007370660244371 1.6557073176884762 4.481370434154845 -0.4025378244681906 -0.24122809768069423 2.6992793387442156
Ni 6.122646441784773 4.3376153788324165 6.172108533389604 -0.8797086030609236 -1.1320850040489534 -0.1582861094698242
Ni 2.185377554992811 4.672423996955905 8.586937244017827 -0.03848452922844339 -1.8048036046764466 -0.4770249970434881
Ni 5.036386308639345 7.787123042178405 6.126168986634624 -0.6876399978240156 -0.44830371784939566 0.17239735206022566
Ni 5.64979114496659 0.9390548378411195 0.3648373859829823 0.25566869858605645 -0.6602742042165533 -2.3113482084456063
Ni 8.06266947813058 3.078592960511525 6.546839635473234 -0.42762664911601833 0.017915189717523986 -2.31243449953125
Ni 1.7781528306402774 6.505704654496354 7.124198641146147 -0.3345552857806303 -0.4080315005929102 -0.5011252325258015
Ni 3.0942590152384946 0.2020096042695846 6.934797893468056 -0.3393406229844156 -0.323727599037507 0.5065134934209083
Ni 1.7857541116320617 3.6818751153228817 6.402577519089525 -0.6145821014960771 0.026935133827947162 -0.5519400011848237
Ni 7.590120086523043 5.9730402540696454 5.3766400395123135 0.5400314226726958 0.055223953470311345 0.08206884157729738
Ni 3.3790289567843597 4.131361108018762 12.70118805392118 -0.04956289852979206 -0.8813168280883079 -0.07505590059457397
Ni 3.9462699158688177 5.176101561210285 6.83992185587926 -0.04855219787709058 0.08471887760563473 -0.625951005454651
P 6.851887384542913 0.6549263702521223 9.470905969305681 0.17223820077454208 2.2018953184284014 1.0759691348919922
Ni 3.2477678118530626 9.293492997942927 0.5111657530167745 0.45754606238327006 -1.4668410929864801 -0.6524865898513345
P 0.529584954639549 5.792556179789112 5.3762738802450265 -3.6594449588106266 -1.2256196801740054 0.47710007325579773
Ni 1.30560343903274 2.358835079283378 12.579881806132661 -0.19920933004674723 -0.7922751547376033 0.8943975725316662
P 5.127833426912456 9.30044538909395 2.2124853915833897 -1.4263099656416531 0.29192819513872303 0.36893247770891946
P 7.62456686721264 6.490001520349912 9.196586862138034 0.44121415799246594 -0.8620296977239219 0.1567323918294591
P 2.566832082812223 4.6711076775646445 10.629789853429198 1.1828151834139695 1.1758456940746718 0.8949110218329749
Ni 6.229917202317609 2.1322334770343985 7.857256910138942 0.7523418088777752 -0.35277720810529567 1.0997700939663317
