# total energy = -381168.70282661717 ev
CRYSTAL
PRIMVEC
9.28746357825792 0.00000000000000 0.00000000000000
0.00000000000000 9.28746357825792 0.00000000000000
0.00000000000000 0.00000000000000 13.59314173798339
PRIMCOORD
 96 1
Ni 0.6658182775863204 5.782607129058205 0.6632150014919217 1.607579680490844 1.927371434809055 1.6446645011582839
Ni 6.081375551037202 3.573472422080421 2.1910380838242487 2.407696442760053 0.6219056317406837 0.6273260314253066
Ni 5.232965735755986 0.9098296706771407 9.313884745744147 0.05155293237662735 0.84557412327106 -0.6092650601585379
Ni 1.924353205434621 3.6113095494745715 5.447682610627211 -0.09149322021499082 0.6317462719801894 0.24485206758652672
Ni 5.835945033482507 6.106813914299986 6.718790906925734 1.001616945232662 1.3757672196970951 0.07765734277316304
Ni 3.687355302813626 4.971913704142145 9.86931408646709 -1.417245798556856 0.2666532226220182 3.542132463539687
Ni 7.665073872895472 4.564426231285403 9.070228133769294 -0.27038260775746337 -0.9130252149351824 -1.355076267006647
Ni 4.3637798640239325 6.58519259810409 2.4373453379587198 0.4171838565161396 -1.2191983500286938 0.3973292836840576
Ni 0.32380185182146054 1.9537480282629194 12.304729489454651 0.16805527304144607 1.829805526037423 -0.1941591692173495
Ni 3.9772263345020993 4.409548485476651 12.518821318014234 0.3106198580109554 0.46060361826267127 -1.690992951911178
Ni 6.112507129590269 8.743924239208516 10.918364696531517 1.8583272876261996 0.08317904392234061 0.7275010956850116
Ni 2.377516425106393 3.959830914863109 8.067991913577957 0.5575956568087043 0.06028028494729618 -1.241827143171803
Ni 6.764682122900201 4.551869580269966 11.137554413953803 -0.5807307001642709 0.3372955675299288 1.4529949311320072
Ni 2.3101451629274115 0.549400847990606 1.8710961019451073 -1.078640253966252 -0.2345522283224154 0.8146879752151646
Ni 0.9162538093660298 0.5984646615884999 7.747629209590088 -1.0746637858170074 0.8161954129986266 1.2637684233295847
Ni 1.3849373097418678 7.655015549633847 7.468969075416951 -0.04177836948836676 -1.4330922786708091 -1.2775428514058578
Ni 5.865358431238342 8.365060729687261 2.299715341115033 -0.41357274212611356 0.5673229113987972 -0.1861761510118729
Ni 5.5844312271592385 5.5205613388211 0.6941654745014962 0.6866483233347078 0.02883260796097615 -1.028731284950951
Ni 7.590124040281138 0.4331097279021474 8.338916519178047 0.5761831900029044 -0.35640734865871526 0.6820198234237609
Ni 8.847962408346778 4.562150802662044 2.4009570549125043 -1.7987214030381085 2.615867609985779 -1.0847774772122414
Ni 2.710862074696687 6.903678305664281 12.110347516505245 0.9547819871569944 0.46747771967468515 -0.4971976153366211
Ni 8.762257692688156 8.592102068979704 6.264277290021976 0.16539186727667002 0.8712023653621254 -0.9704852568248642
Ni 4.033610527042573 1.1189350599392482 11.508225451684586 0.4557547748108021 -0.7233657333603993 0.38398268717382256
Ni 3.840719192028062 0.9010548749083647 0.3951435047616101 2.3596211845193813 -0.858085111253877 -0.47225071558329634
P 6.001744836683386 0.8124366818654662 13.2385783989307 -0.27403434557743767 0.0615727785064746 -1.3892323440630654
Ni 7.907690288928216 6.879614487039282 10.056450908930444 0.6596645956570123 -0.383847704257855 1.3729786012083647
P 2.88885631782602 2.810042900283859 1.565658352233724 -0.7375785345256717 -0.2297013279880173 1.0123549004754566
Ni 6.230699393512205 5.413922679827571 4.064023255899933 0.7815878502270862 -0.8920002759440832 0.08928181438596881
P 7.499626993317809 7.087802274881031 5.4618608528166845 -1.6434378278400341 -0.09145182545409411 -0.15229518199371192
P 1.7482814673054334 6.601891457960418 2.6209612829073157 0.5398596729815218 0.2584853420992451 0.6785164382561928
P 6.885047653344038 2.4331111832265173 8.018254758856823 0.4095512796715463 1.5924736780873412 1.2077037191255329
Ni 3.0319668470396843 2.007123082542297 9.043150533151316 0.0016408780375326579 -1.2235183175602862 0.31096644271709667
Ni 1.8572048423860914 0.18679597254303787 12.778885163483075 -0.32332445006181737 -0.9941707733672621 0.6679934272376817
Ni 2.895691891159867 7.519390716217846 0.7907783163565905 -1.0342190475383994 1.9321344034153372 0.5843785813295033
Ni 4.062280927696904 8.18713149880431 10.331195448378647 -0.2884785460272258 -1.259244567317302 -0.43229757222912646
Ni 4.237191732854989 4.081645289654882 3.5171578855182135 -0.152023416389564 -1.1106142357696873 -1.1079971098618142
Ni 4.731006181442862 0.9335479956499394 2.885742231224336 1.13168211218358 0.28708732210665394 -0.31257980995080364
Ni 0.3848307049927183 7.852764228199447 11.585897439929559 1.1116069387002598 -0.1463577334633544 -0.3570385544848109
Ni 9.070480752783807 5.669810881585952 5.807193831893388 -0.5197022241970405 -1.4468103995878503 0.33009082225137343
Ni 3.0962360963198816 5.266818541193316 1.0268331392366674 -0.28865852324851576 -1.8704441254943915 -0.573073183619013
Ni 4.725331541080116 3.17914528538409 0.6056587310238237 -0.30424866437728887 -1.2050739948121698 -0.5483929072635135
Ni 7.471616002591063 1.5237848930856464 6.185776860008825 0.16613517320059776 0.25044524540358803 -1.4415429805413238
Ni 2.057684035299724 0.016384014834565877 10.358014857503854 1.2772302052614455 -0.3295197802392518 -0.13153892328296699
Ni 5.275205120976556 3.894270708119047 8.66566899823886 0.7157958914329415 -0.09248875135904071 0.13668935713565492
Ni 5.274610723295352 7.435218432081078 4.53005054163789 0.7509439000889842 0.35367092356415863 -0.2908817561520797
Ni 6.1856087569146085 8.906817066249756 6.077167401203552 -0.811541459166383 0.0643714242975343 0.2679416024161385
Ni 0.382129910528747 9.12341929626605 3.2806637656018713 0.05516070433254371 -0.3507812607211894 0.22371682826980824
Ni 8.111735867929074 0.24313558525742116 12.416587703086254 -1.1214236676803655 0.030572987690850574 0.15988302164329884
Ni 3.791244872531586 7.620001811225414 6.29579987079971 -0.6581255333046665 0.14378071676479753 -0.785870279652524
Ni 1.3149191203887745 7.2592209936620415 4.820318148029291 0.42888777521662913 -1.199346348299773 -0.589954532755384
Ni 6.043361961831444 2.6782445019406107 4.355609682146506 0.10998613681285574 -0.43728319836917595 0.5085405511532661
Ni 7.205037930034778 2.803783149703678 13.236865790611729 -0.04031721156180799 -0.612408747993842 -0.3030261048240975
Ni 0.15525017310588213 2.859257170794808 9.70184718351971 -1.948520043862212 1.6518679608852584 -2.2482813618921087
Ni 4.645245741001629 4.324336005397777 6.134761750273102 -1.5715988915208612 -0.4472855609975265 -0.6404193742741551
Ni 4.927501052399673 2.297718536404738 7.038569429442544 0.0957018589796997 -1.9283888203299757 -0.8368693964082103
Ni 7.33163534866749 0.46846338748451716 3.97844113476306 -0.06742255241903226 -0.10370467467951816 -0.5095185987958193
P 1.8011549985412951 5.681996034050636 6.535174961977138 1.6772115818563698 -0.6402532810099361 -0.13171864339394088
Ni 3.925216537396737 6.0663670095867985 8.095137312681448 -1.0303348819926448 1.4051387308806769 -2.050754304643791
P 8.114057733871277 2.7029491555656575 2.5025377611375372 -0.5433951969386062 -2.446605461120425 0.03160425716884234
Ni 7.327353827870065 1.8864046284752445 10.6388761205902 -0.7975394884603362 0.4313390649705991 0.042089472970882356
P 5.075598949657191 6.037956657917994 11.818013449425283 0.7357918749388941 1.8602689847336025 -0.4288893178785259
P 6.8206298046435405 6.528204720418643 2.243099890726716 -0.054545439346048 -1.1630786242169906 -0.551966740657701
P 4.075589863277615 0.358546253780596 5.137201768089363 1.4224687375186924 0.02163300488874339 0.8017036471403548
Ni 1.1597906130582638 2.157570708133325 3.1739991017097897 -1.9106808615272515 -0.9221462033998441 -0.5237889926719044
Ni 9.11081620793177 2.9684777447160675 7.098556229178941 0.4383244951494968 1.2065225543332383 0.8989191145511035
Ni 7.643285482893833 8.089798878507134 0.7347637648741158 -0.26919938608263966 0.14566996336771043 1.4223154997702794
Ni 3.437048866780303 5.659186023034427 4.711478360122554 -1.5048319704079567 2.248668055807566 0.6975914526097728
Ni 5.713824172386364 6.264152838007474 9.636014854087222 -0.24294842280591059 -0.4014070532978571 0.701552751250366
Ni 4.994649415448204 8.119630212132567 13.112189019486408 0.11829825622297689 -0.8040880882121312 -0.45981506092310487
Ni 1.7216357337527044 4.375602805401633 2.8604181037659093 1.7865490293416328 0.9913803551063185 1.1391005161348382
Ni 6.933444627043332 4.080437919364936 6.115975997307921 1.1800301644696645 -0.6025030588443558 0.7551975331590156
Ni 5.9252532850834285 8.116741810900464 8.327145587597453 -1.3186635327055678 -0.24401183107341848 -0.009840383129189504
Ni 9.15884168308031 1.1508282105213576 0.9831021873348268 0.9832101605907002 -0.7462444377307857 0.37510981016422495
Ni 8.57990762905125 6.813914968338687 3.51165227699606 0.027803652475829534 0.04950273471581797 -0.08340787210369506
Ni 6.938552732116179 1.1023940869669893 1.5080092071279378 -0.9989571390123118 0.38444908528727983 1.3228834843241863
Ni 2.6246836983858564 2.4926159635933125 12.891205892810365 -0.8795687350489498 0.7114743812394522 -0.08618209241472254
Ni 1.9133289859410383 0.06216935372206821 5.32497756806001 -0.8829494785957245 -0.33141828281354535 -0.6332441966819545
Ni 1.838035517167258 6.987061155380697 9.59798176120755 0.33594059616393107 -0.3477933817374591 1.3104575998560075
Ni 3.2997801522772225 8.289256450406196 3.5737324710659477 -1.0258614196023235 0.1250080641429847 -0.5868584103285636
Ni 2.6015764885290458 1.599106224250733 6.726661103723427 1.6278592566754868 2.2525234249979142 -0.13436996497385892
Ni 3.1887670978485816 2.019103910804068 3.9848299810896277 -0.004394529523269851 0.6465889934199768 1.2420238325636417
Ni 0.5169040122635236 5.195657993796658 8.428645492887696 -0.09165494260383569 0.6252012717728201 0.12469953176363038
Ni 8.464390154694733 4.834106316740474 13.04642541728581 -0.929865683531289 -1.0705682755913948 -1.6721794187491006
Ni 7.716619296812394 6.987246904656074 12.346623381023019 -1.5605200079988804 -0.7447331432925819 0.19207940387018535
Ni 0.8246645566634876 3.3893205904723644 0.7920098340523353 0.23664819161949563 -0.6725638202171836 -0.5804928731218518
Ni 3.2524140870562683 8.887684890885998 8.104434992660408 0.6616661994680734 0.9318390052075758 1.2154046873142166
Ni 1.8682290618796744 3.434364789751115 10.735795448749666 2.425155775887082 -1.1137710362311142 -0.7582049525267716
Ni 8.007734848645887 6.848343596529683 7.8146568356096235 -0.28294321803129335 -0.03864393762444312 -1.5076324159712293
P 0.41531030358921417 7.898309950521714 0.27373870712204224 0.9869007220684101 1.2871551776846415 -1.4717043346160525
Ni 1.6735173839664756 4.863612589133998 12.2603883511832 -1.3524465426932837 1.0828576344817094 2.1431877772848638
P 4.123355289440628 3.0353567713153016 10.612029777820066 0.5312811872838914 -0.20961818408489705 0.09739235930824518
Ni 0.07807042044065572 0.8366490999107659 10.297579473267424 -1.4743592557403964 -2.111167258514209 0.08544187181458833
P 0.060180907729165 5.0233291035663035 10.804033231298279 -1.057497815560682 0.07720714260962187 -0.548839507882629
P 0.36855906846975506 1.5607025615666845 5.55846719344714 -0.008329602911617912 0.14417666665163556 -0.3823713768226447
P 9.203579396054689 8.28529999084068 9.069616089906932 0.8962099431500566 0.13884728401892218 -0.09146416674926829
Ni 8.968903761544281 3.503974330698381 4.401038382425286 -1.112023714522704 -0.4982106299821677 1.9443098624356063
