# total energy = -340860.05645701435 ev
CRYSTAL
PRIMVEC
9.37278760863829 0.00000000000000 0.00000000000000

0.00000000000000 9.37278760863829 0.00000000000000

0.00000000000000 0.00000000000000 13.71802208113069

PRIMCOORD
 96 1
Ni 1.5220188880474386 0.9249966761738717 8.39994301495877 -2.7222853127210858 0.4004817132701103 -2.568352338013635
Ni 7.995869012174261 5.84917256465109 0.12786263351656446 -0.26493058350395665 0.24518733943875837 0.2421444388473765
Ni 8.679745099222444 2.3099422921605015 12.274845622347392 -1.22168974899198 -0.5270488943700988 0.39850119250497174
Ni 0.2976825514976757 8.519564156186789 3.2689228222406737 0.23866187961541477 -1.5183431175205142 0.6709753926841412
Ni 1.2457278500834243 4.177048480423664 0.6804306502629341 -1.1711364615244606 0.5292412740357272 -1.1433976008482951
Ni 0.660899635102156 1.4710684137149743 3.0365254866950484 1.0123698128737921 1.2641335199784873 1.1336829446636927
Ni 3.5913804636579596 3.9610432134137343 6.087399774191342 -0.2755572099798673 0.7417144110709162 0.007349498386535729
Ni 3.5428106774197645 1.8990673945681105 2.453632752388845 1.129556838310461 0.8526130323957124 -1.928021666798544
Ni 6.263121736632931 1.6228888300573687 0.6611601986022375 0.9947392442762224 0.15077128915001775 0.07943551771950835
Ni 5.30868138494986 1.1270496113053408 10.147646447949018 0.03597950341840255 0.056014824802722886 -0.3722633418543653
Ni 7.170070172671667 8.539462584628257 5.63128899097151 0.7415593735502907 2.6751004275051673 -1.1825495884574084
Ni 6.810220731713922 8.001867596348797 3.0535080408604256 -1.1572923565525164 -1.8549858819577927 1.9142019873066325
Ni 4.333911456587777 5.709733600956448 9.278719662789067 -1.0912787686658691 0.5902088148580351 0.8108860849705712
Ni 5.98148820963847 5.040685264164695 6.499516566163617 0.024094579055358504 1.5375808827042037 0.5459997244409888
Ni 5.63661648354152 1.3478162545038073 6.216445253524822 0.8443271382378362 1.6124640051663393 0.23387705663226172
Ni 3.1317202057086013 7.819801193863858 10.858308087894057 0.19583552847850788 -0.23619002103615452 -0.5872908698802918
Ni 7.784203345903098 0.4519717601394026 2.5229773227252577 0.008376396989153316 2.2996746287624203 -0.4570896915721418
Ni 5.721355857794611 5.669346258443831 2.6615296206966 0.459171513801835 1.419327620786549 -0.83030254182397
Ni 8.245485096137136 0.9590142721161538 7.052380763003605 -2.293483412350044 -0.43256625250948083 2.3505598456480614
Ni 7.286489569596527 3.304479429935235 10.128551267419672 -0.13951242840674682 -0.5058033547277611 -0.18054234976486325
Ni 5.880693249930721 1.8202797405506905 3.904341596503934 -0.4167915061737274 -0.7860152898708205 -0.10571090647626954
Ni 4.3022595522793265 6.645109702309822 4.394554330756002 -2.233967516372598 -0.8518476149845974 -0.5399236934502379
Ni 6.70536735490059 6.043817248327007 8.802209944260703 -0.5866108130941317 -0.7255108047278602 -0.6275862270652288
Ni 1.5107527971446384 3.630343142429125 4.6147014326826925 1.5603621422647773 0.9513683334897551 -0.9492898536941717
P 4.988581936936188 0.37541857872699735 1.8677500987831468 0.9051509543934283 1.8299081130535582 0.016013344709120806
P 0.7010076685391468 6.340494099696671 13.918579532411274 1.7748829058576143 -1.4760813806378255 -0.9118281093032876
P 2.489253095040261 0.44174604867937345 12.39851299605689 3.4691383305701478 -0.1591613129859259 -1.754502285318733
P 8.961772283303358 4.4705854478894675 4.886524462715455 1.0074230103914779 0.1688140055843415 0.6509441850648788
P 5.807276203307065 7.133984939746724 5.58252143891131 1.6764831883307771 -0.48156916477074485 0.4622642937945458
P 6.171708937485667 2.073598075683787 8.271501143157852 1.4538747626337993 -1.0285351097797448 0.1911221821632386
P 7.2309651748309784 5.914922670876667 10.872821849760102 0.4381753711661422 -0.6827381896470242 1.2201632850451243
P 8.295760729749965 1.4275224417229528 4.467630207904732 -0.7270339262406059 -2.3735797035820028 0.5742242665043207
Ni 7.767651002696487 3.202878410479033 3.4082286923489424 0.5377107449593191 -0.5729086330166907 -1.003252423953556
Ni 5.417771261836458 3.520222258887528 2.188943351129894 1.3180307842175754 -1.145543957767337 -1.1592294256742293
Ni 3.952870142475929 4.0180953725862345 13.742303638212318 -0.1388673386235802 0.9074135251753598 0.6724098111378226
Ni 2.2833798116126345 8.420784345850175 5.625281034009201 0.33460490807164306 -1.303736221971774 -0.07676825529999037
Ni 8.362794907900403 7.250076289099539 7.526036467655177 -0.6361276888773366 2.2465456101479244 0.08382439081582338
Ni 1.5958577101208664 4.236368854237159 7.934545673613735 1.7000928573299172 -0.42440659951682397 0.5052418257973363
Ni 4.947491635340618 3.7551136932594718 8.041573537190336 -1.0270235582312248 -0.2606489254094672 1.4809896165727203
Ni 2.0332107331711695 4.8173504771165065 12.247848244446871 -0.7787411248069105 -3.9849106235851632 -0.91754341452051
Ni 2.733301743066145 -0.010920235033987147 3.3192809363859026 -0.5904497272242477 -1.5919280899965165 0.5017443541670392
Ni 9.388346600415042 1.3633094726921007 0.8510894327497031 -1.0716337407414318 1.2522943612517143 0.3571305999779849
Ni 3.2357206588346172 6.437867991867379 12.746580842784336 2.040308169609802 1.325392366788969 1.601753046506738
Ni 4.44263579475124 9.313542381201025 5.044199122300686 0.6090010078638738 -1.9686615518070938 -0.4915177913430244
Ni 0.06468723209215148 4.704980124509458 9.800031306870995 0.07375209418148589 1.3547733910542474 -1.0556365939822272
Ni 1.4811629061461855 8.180128646998012 12.843457039924314 -0.4526828207536978 -0.18172762832221606 2.456336829475576
Ni 7.438694270237603 7.862841035316154 12.31167786645782 0.6866015292571723 -0.3875842884821518 -0.30021074686248944
Ni 0.6976793916010565 0.012394574550634798 10.957325029761323 -0.8089158486180779 0.3756535984828369 -0.6208201119859889
Ni 5.5732751837735295 6.263393547478339 13.41824231280712 -0.13776099293327887 -0.8652044959074777 -0.793946114682123
Ni 6.022831576503904 8.883603233278937 7.600991588752335 -0.5287635630683604 -0.5083834567501115 1.7288442184309967
Ni 7.070568657676553 5.113633671399716 4.363386999575402 -0.3291719099815299 1.8722611240984721 0.5985340468942789
Ni 3.6223106633079105 4.228392611842581 3.3956354146975265 -0.0846430300623768 1.1089247638824062 0.9670206953150313
Ni 6.266214756597925 7.918206092689566 10.209774908979218 -0.7435792321937968 0.5043365403742476 -0.6139413825882846
Ni 3.0900675368466675 1.8188269584459202 4.607540622824341 0.14329889203237256 0.7591860854931184 1.9948785765220935
Ni 2.9134092329065853 0.6136617220064631 9.93486635721168 1.5745767432022624 -0.3343485690864629 2.6419982456345594
Ni 5.29026385697648 4.280299110527862 11.255418109363443 0.6104297698906003 0.6508968767667113 0.2839546900149432
P 8.291758549371016 4.944698544584349 7.846009383033917 -1.3386320054076946 -2.0586133956768933 0.766021620357713
P 8.418928533871178 0.3185051368135335 13.06075106525299 -0.3582901675037249 -1.2559640967938175 -1.1591769751697392
P 5.410179303740562 3.893146738788206 4.787740903263731 -0.7503638592157981 -1.8647889840911434 -1.123958004066445
P 1.9415073776029521 3.354839418638018 2.409817781387747 -0.8431462305558577 -0.6357520507054728 1.1673235155362736
P 6.035166165212793 2.0368567476147548 12.155690308671678 1.5823170492693135 2.6917285229801515 -1.4863089719031046
P 4.150945266476659 6.030170469329938 1.33344402173313 -1.5034536020031914 -2.6435671327835766 -2.1485176741382093
P 2.030876909015764 5.928541331510417 9.893382398529655 1.0388622027373655 -1.3705327107710332 -0.9207943173576401
P 3.0261076330856786 2.7868203612483327 9.49898954823558 0.003491300982710116 0.3346265053381979 0.20700105817702416
Ni 1.0001795560139064 6.623974065882355 11.519324882843373 -0.7718670233948965 -0.9288665528428132 1.3619331420274803
Ni 4.824839334546903 0.5668502707544286 12.806199271249005 -2.3626049497380537 -1.8780270800479721 0.8991973079131546
Ni 4.388826620148098 7.859410594991342 2.1442913901806926 -0.033111952062620395 0.20038766662556456 2.281620085253554
Ni 9.432773614457698 9.027278697046844 5.804520603701889 1.3574540232102041 -0.7835832833905602 -1.1071992965508675
Ni 7.334881272867041 3.133369816356599 6.542892890696953 0.4069827476134217 0.5615250737700975 -0.011203324914987158
Ni 9.110499679680757 7.106400825331631 9.910228109993552 -2.5365465063569475 1.0007718236235474 -1.2794575519300675
Ni 6.2645276547988376 8.176229567284564 0.7430624299965297 0.8227735804367766 1.5916488681932008 -0.8440761985692946
Ni 9.139217901416346 2.7881044331731943 8.385881958742148 -0.908235506856023 0.032372245683118445 -0.09856966744579798
Ni 2.1307720810973323 0.3188556790762329 1.0880531904981938 0.2693515953897877 0.8434676184510185 -1.0409216563695558
Ni 7.528344985283596 0.7408185846037425 10.736958604600751 1.09087690524176 -0.31942588633835955 0.1863209041198533
Ni 0.3136490954684912 5.71976248387325 6.612594564247505 2.4813804027077655 0.06764238173932222 -1.5682659704928863
Ni 8.810279914533007 4.527093985371151 11.95192309065658 -0.5897781550785197 1.1640037071344211 0.6047414612565714
Ni 0.8643847322052954 2.7559089071739273 10.563920071298492 1.3944239155663338 -1.1015395271619286 0.097094111341536
Ni 1.6335081986038518 7.489044886152612 8.449560678869956 0.7009513702209412 0.5683323264999179 -1.0130177308704358
Ni 9.263416712192559 8.180972197897557 0.8775197569899746 -1.6023212603053825 0.9039147679934819 0.44186850374701314
Ni 0.8356018382340733 5.558747362725825 3.373988961336447 -0.3602102673445732 0.8846281518497281 -1.3443869056136009
Ni 4.43614045282475 6.886505851396028 7.142658517551592 -1.3591203551690334 0.3821744303204902 0.5901738478550416
Ni 3.957144133700286 1.2842968717681356 7.906299840381889 0.12147382573748111 0.23075213785003484 -0.29577225147516156
Ni 6.436087162190564 4.053365172974951 13.57086878889797 0.2223898819282686 -1.1877321610996125 -0.42954469207433765
Ni 0.2775647998223259 2.316512616389173 5.88931152828773 -0.25286953857436445 -0.41613870308107687 0.9221513456061666
Ni 1.587600284093107 2.041702478893247 13.000651812775581 -0.3248275169699051 3.5875432875743183 0.2722577132929892
Ni 2.1714218616675858 7.469905653520734 1.650730696136211 -0.8908710474356464 -1.561205206991363 -1.7576176910192634
Ni 8.629666294152841 6.851732808759265 4.94944867342756 -0.044204462431356124 0.35429441608077045 -1.2021287961409168
Ni 3.822588392435228 2.5314681311685576 11.848337852028896 -1.2290557024387476 -0.22575982684176601 -0.8803277247021613
P 4.291124680405345 8.244060432395683 8.955385665715031 0.09451246665728884 0.4915476161396954 0.2451631710690423
P 9.00739901418092 9.081003516560031 8.862967166439756 0.14348941077662386 0.26733662184228796 -0.16790872016125277
P 2.3395509287344995 2.23439762271244 6.630126363776363 -0.1991612504176312 -0.09547303079834525 0.22543998160850207
P 5.099105850352012 7.9652293689452645 12.057743739168057 0.14816316210320934 -0.8653081113648774 0.48238420447287245
P 2.249937704839597 7.234105058734837 3.6929599257022843 -0.18735808713511604 0.1400022235589718 1.8403102822234887
P 2.5005379315186067 5.941382050759034 6.6359702969526495 0.5153912555265123 0.2803057804084462 0.16685765318891907
P 7.85947620450575 3.121588222126299 1.242291786085948 0.21539031068198392 0.09201669681862863 -0.1794077219397878
P 8.137079432757945 6.631406686586115 2.158242784780375 -0.13228634297195282 0.008940497022739441 1.0952125565026365
