# total energy = -340862.6244709574 ev
CRYSTAL
PRIMVEC
9.32130188668388 0.00000000000000 0.00000000000000
0.00000000000000 9.32130188668388 0.00000000000000
0.00000000000000 0.00000000000000 13.64266752279409
PRIMCOORD
 96 1
Ni 7.164613717808736 5.1997764680898815 2.7077562051118633 -0.21359670911667086 1.3297138769824584 -0.12003606484969004
Ni 5.991919355113021 2.6459820724616576 7.257967489523046 0.36635134724530455 -0.6493148769915721 -0.1792927936284783
Ni 3.8924545405301347 3.098270288367812 6.035379925713212 1.1847923617449982 -0.6188241646018826 -0.18730512240999356
Ni 6.545380982985818 -0.4140699455538022 7.179917431441206 -0.21220574230641517 0.6952219239363318 -2.1422274702541233
Ni 1.329590518050654 4.9568167313190585 12.34560496596713 0.2026890610652316 -0.4935132245064985 -0.8154613630460794
Ni 1.0770764467242924 6.135504691204247 5.299863016242694 -0.6336306334870958 -0.7196265780329413 1.509887273443677
Ni 4.275047381341892 7.533951667168811 7.329986665207389 0.3151825376809733 -0.5847909862765736 -0.40243883699648114
Ni 2.0065127909850102 2.3036013285012076 7.011349141715101 0.07959929699088227 -0.7942207084997484 0.37617424687299733
Ni 7.628423062993567 6.234916377091866 12.132738120590549 0.578009958798998 -0.5240419892229748 1.0937647683125162
Ni 4.403280533030219 1.8347491589314529 3.9946281282019567 -0.05804008276286779 -0.31035400594407836 -0.47026093884677717
Ni 3.5730228421069867 7.295969505668872 1.797558096060096 -0.013100799048016146 1.082679199922316 0.17445834835431243
Ni 7.319692219272622 7.418209060167725 8.656026699324185 3.575430049250552 -0.4049775442579348 1.917580931081194
Ni 8.123076596514279 3.7611546804820315 4.173224274625474 1.4030283694058934 1.7183340629282922 3.121206880592928
Ni 4.3903146019407036 9.014472707290947 11.123235520624222 -1.0751749211254709 0.9038389204502242 -0.45396657256212786
Ni 0.44513318448680705 8.256026327017338 9.170969910920055 0.849581187547924 -2.1032392619163844 -1.2922302782147035
Ni 5.749537539066533 7.604411389027651 12.335809209689652 -0.4352653966081988 -0.5545977505226448 0.16108449815056775
Ni 5.4392686805146955 0.762789174877926 8.840230541034153 -1.8009983719977434 0.07081795125382642 -0.31190798069475956
Ni 3.003789571241049 8.706562138146477 9.067585486117732 -0.19176315818134715 0.414529449612428 -0.20609011632698054
Ni 5.690412520446262 0.7003299265303234 12.929701985010883 0.7497629924070055 0.12001935267914168 -0.8490960203813892
Ni 7.577398255815993 4.332401352581136 6.4887661909956025 -0.5248809401845025 -0.30992437460582756 0.009891805192415223
Ni 2.601444891479843 1.188083832306634 14.084826625556614 -0.12138615111968129 -1.8397636656913992 -2.8147221277962684
Ni 8.324742965401168 3.407933262289298 1.9907924151528982 0.24245785632273728 -0.5295863160799718 -1.9110426157420441
Ni 6.198777689216921 6.300062956807627 0.7951685816540937 0.3867630781324371 -1.7247944738416554 -0.4705537874968477
Ni 2.1538452904824066 9.053267966237433 6.696707660392529 -0.27900865886357756 0.42146628594157737 -0.1333240402078478
P 1.80020441369943 3.435226034561117 9.672337578275256 1.1558162862276222 -0.5741291356873531 0.9212136642832458
P 3.1171925314387794 5.834454600335753 3.5626873824433964 -0.7385871782958441 -0.9291190351732513 -0.5993799398343419
P 8.4309032739407 6.3245313745718095 4.123318955818748 0.11255029799560617 0.914869724343089 0.5874070837431818
P 5.807860925714339 3.6471178717479336 2.1235491947044465 -0.04639735631761687 -0.6435998288846658 0.2381782551107769
P 6.838256291995574 6.449054648061985 6.959288737884726 -0.7448367587499817 -1.548717101826681 -0.36868616602606824
P 3.1138741479248564 4.017294738288494 13.286798268447262 0.07333017615271886 -0.3715400905350956 0.4133045760663915
P 8.702069270579871 -0.210347297444521 7.312620147441123 1.2785936612678752 -0.5932774264810298 -1.0286376967958801
P 6.502223354700803 9.586679473496607 10.553108336895967 -1.5979817523897641 -0.0891540305588529 1.5316143807081237
Ni 5.049442509346746 4.877045028756821 7.552390134665698 1.2856544247693986 2.3971456638274007 -0.33361451913391577
Ni 1.3897874864015454 5.589798386599945 9.201678940376855 -0.32672447688230183 0.23463784605768623 0.7635176229889368
Ni 5.435847762678713 2.8003055484631063 10.213828790112716 1.1680459955245948 0.5583795861625802 2.184429043322838
Ni 1.5221406535762594 2.3974481970916033 11.96276417852203 -0.16588037687731433 1.4370831449977572 0.37175966274506944
Ni 3.0355006406634293 7.5450533378572455 4.855125054960916 -1.733428238257253 1.5878786025174911 -0.030841153750572697
Ni 4.370217874817055 5.912520504631001 5.386752465016256 1.466476253447894 -2.5133620978206843 0.2454614190357515
Ni 4.178571905585974 4.911701629612908 1.5344457043535915 -0.5745639092319266 -1.0991517436560425 -0.931291617344538
Ni 4.207617082634809 2.3789826978189 12.295836670299883 0.055262520017730625 0.16852372803743235 0.937015921422825
Ni 2.7367342687862597 2.6276750353230462 2.173331472324701 0.5100068512861474 0.8812564071640178 0.8994940132179671
Ni 5.220301975105778 6.218436315146315 3.022874004966911 0.38937043384829717 0.5252426943992954 1.6543853279904732
Ni 4.253617708031472 2.9773730013577375 8.375765908318341 -4.394402510773683 -0.5485255761866359 2.2293734692440124
Ni 1.7351324043997134 1.5848077669585825 4.663786688696013 3.001633871422585 -0.3743096828604328 0.4092062376273017
Ni 1.588405789532668 -0.21117036841159806 11.168201481498286 0.6427788756452673 0.6306764359547784 0.8784053108684678
Ni 0.1084356383590512 8.640427500418143 5.257474395373125 -0.5526200579709837 0.29166774238848475 0.5909330946185694
Ni 6.681294887526596 2.1102495610031378 0.9113865750574557 0.1829008226947108 -0.39616843060673707 -0.12753083056483844
Ni 1.0187530600764871 1.222097263324349 9.403754514421781 0.4492334287525166 -0.012367263316101282 -0.3436950432983694
Ni 6.832952471154499 2.109858066318911 3.50130847299822 -2.3058362774884418 -1.2362388504507482 -0.6619528774705568
Ni 8.914194140316823 5.795090741966937 7.519634147288512 1.5317501349550395 0.8326005938295273 0.7482360142395178
Ni 6.908371125680213 4.959743620148754 10.029761971542227 -0.5545643261815482 0.2785368614334816 -0.11487483236372475
Ni 0.3658172935926341 5.477830906911047 2.486471291894202 -3.184380427927619 -1.0076199568936324 2.317256346399925
Ni 4.972150273117945 5.063760029227044 12.571527226932478 2.050190975941153 -0.6550461230483945 0.07803246672439464
Ni 2.7340870190167252 5.177806159263147 7.132496239618921 -0.3039560728375346 -1.1708922067241383 -0.44176874494435536
Ni 2.2407664316827876 3.979179934388403 4.884620450896612 -1.0262332011194453 1.1160832293040586 -1.7318629506526624
Ni 4.499075553739743 0.6632022485126038 1.3746897735433945 0.7059238837348681 -0.40973099978252014 1.43488536601549
P 7.0508565481348 0.32129223030342663 4.792682584956923 -0.7611015573482762 -0.8662524775560178 0.40042592033151037
P 7.2635313746900705 3.017463921282975 9.018676614495384 1.3772394333672475 -0.40765997618610433 -0.339287401148977
P 0.44269100336139144 3.540286429464012 6.087767507243977 -1.1952253841528642 0.48326994951193547 0.1342745770465752
P 9.259734805657105 5.93646692948288 0.13726176481075933 -0.6333372706163931 0.3244351666274929 0.5106586259375335
P 5.723959886363708 3.748253998506554 5.3066023175926 1.1015451835888834 0.18925658970940953 -0.7356013561946428
P 3.8960991696142475 1.0723691892115639 7.112877695288149 0.458795618519655 -0.43838851561821274 -0.2696652699754646
P 3.236178951537746 9.250842283543951 3.4757289560349935 1.1622245037468113 0.4332005436593701 -0.10562528874099875
P 8.788039638975702 6.072063909755475 10.338590688934229 0.7141179895098863 2.0695385272298297 -1.0135183246559385
Ni 5.608403705402729 8.52186053890942 3.119846306119718 0.17039909068327427 0.9926723344448646 -0.49690888045160864
Ni 3.022814348634076 6.86823359924495 10.769958174619457 0.2658212136390261 0.21813470619634046 -1.025102429949112
Ni 7.720359064672856 8.74947741257935 13.530811312344696 1.1730755875287022 0.20840462339277013 -0.25118032379739963
Ni 4.811451026544802 8.913933143860671 5.36450158499916 -0.25204781400401755 1.93011660165436 0.6006644629737203
Ni 9.625735728899246 3.0573311299600827 8.292559305967114 -3.2487371969371344 1.583603629291221 -0.9953532237111374
Ni 8.226477799660211 1.617656035225622 11.25619643668969 -0.33207648522283456 1.5072629484469524 0.9312209120076026
Ni 8.148393252760952 0.6497329671147967 9.101719161931316 -1.8036820894774936 1.8518136548773978 -1.2087442445749055
Ni 9.00736987516283 1.5669574736182361 4.1918734035476835 -1.3087053930515913 -0.9695568314733238 -0.19032951105861415
Ni 0.6847316597544826 2.1842234137180143 0.9057164270475692 -1.032250353847803 -0.05524837895034356 0.027825506852700466
Ni 8.284046160845579 7.2925858730409105 1.899181726913599 -0.017627997494408347 1.1733535237804373 -0.09873473226875254
Ni 8.17288963443115 8.504700021917474 10.946644386262067 0.9827720446120171 -2.040096053598996 1.5049911216936402
Ni 1.8181758839658468 5.08033330419265 1.1596948749189795 3.053646517044451 -1.1692297314200508 -2.722181697263686
Ni 5.3873583496466075 7.60427156949757 9.467901850562562 -2.108863807192013 -0.8752017163295057 1.2501354059271823
Ni 7.7187464794259215 1.9351768667376623 6.220088049861672 2.3298151569015424 -1.5058951215651484 -0.7055027370370495
Ni 9.141988118724857 3.992621251880194 10.60642338797627 0.03439878919484398 -0.9054767131639632 0.08371254782830745
Ni 3.416089401544025 4.327759344182446 11.014080277750356 -1.9906915350239394 -0.7251922450461769 -0.78952124614155
Ni 1.4568915395384399 7.570323387593892 0.8981652402929924 -0.9317317902057503 0.366132289255963 -0.2748997789015266
Ni 0.8016189226418323 7.28908106348688 12.157677264106002 -0.7645710039541155 -0.9766376495795049 0.20701905589915315
Ni 8.748955419667048 3.71322454557025 13.220467883376815 -1.1458031249659943 0.24661970100991074 -0.6109979836892445
Ni 2.9804210671135043 1.506415617093145 10.440610475122961 2.319473665766218 1.1885801109222045 -1.216590994312834
Ni 1.3109106288318269 9.759030347576504 2.5111923169427315 2.3752892300739417 -0.47004239507806794 0.08954201002589095
Ni 1.0652104292714146 7.44772030231683 3.44047579185056 0.5454330533042412 1.0454305999835027 -1.3584066169314608
Ni 3.1715730073382993 6.454386432809076 12.989607196609004 0.04938806351482462 -1.492987926585177 1.4094988076215853
Ni 6.371575985793077 7.199055928718699 5.077623601699679 1.4072760889386537 0.45023873008857945 -1.000307225282303
P 4.778183299687519 5.176044433184126 9.705270670390545 0.32272795412839905 1.2597916980700241 -0.3084300494484882
P 6.658793264485554 3.005886864192265 12.542659154621745 -0.4914391155862891 -0.24169680978699667 -0.12213845590467351
P 9.66423270618156 0.8488052176535824 12.75870456398217 -0.6852663553855166 -1.3288145050966405 0.33238656026408564
P 8.658548111516646 0.5710723637516036 2.2927867539145392 -2.621380569384208 -0.3209338383424537 -1.8998722009475215
P 5.793394265001953 8.250293726284015 0.807787760309008 -0.17306712443374067 2.131844584357903 0.7402679084323767
P 3.140626284680362 8.450021264353781 12.893644392463383 -0.6335499008478315 2.216499184384505 -0.04198251507937286
P 2.1071362461333334 7.088645106464703 7.582662927188645 -0.7496231243950315 0.48864021268491337 1.0078251309259032
P 0.842559013179762 3.2583916142166207 3.0794226157128874 0.8536173052905106 0.1537871931582061 0.226367635629094
