# total energy = -340875.4176577711 ev
CRYSTAL
PRIMVEC
9.19482741260852 0.00000000000000 0.00000000000000
0.00000000000000 9.19482741260852 0.00000000000000
0.00000000000000 0.00000000000000 13.45755934574799
PRIMCOORD
 96 1
Ni 1.3404127718624443 3.023627106093788 9.979278793558919 -0.45555474298485416 0.2832270678202993 0.6032743897927417
Ni 2.266782457155727 1.7407187860057944 1.544914012903441 0.42394997159537945 0.195467860726444 -1.1679747759670271
Ni 7.439939578923341 1.0202580698581885 10.698087199187839 -0.9399071269276909 0.2979157801807256 0.6271833351998554
Ni 6.356154445216466 9.068876845865816 13.20280788793106 -0.965106251901138 0.516548251949091 0.020764486240861014
Ni 4.676250248919055 0.8493657626397013 1.8737090943980157 -0.1219052568479449 0.5111239956097262 -1.3463234605146812
Ni 2.5704692229386783 6.213625422677969 11.720417783185773 -2.1742148217939974 -1.5550106481448767 -2.354001524339759
Ni 0.9377712715101547 6.749619507629694 13.322836247863664 -0.9796790075089902 0.06318254619575571 -0.12157204187824222
Ni 0.9841775663783441 5.945265184512134 9.28538009536559 0.8227311572346152 -0.0815546209450402 0.28216803042816563
Ni 8.270489965856926 7.400898340958148 5.306530854470516 1.0859051630587815 0.9181167705254769 0.13740926602081496
Ni 5.72541685673357 2.7277559437659504 0.6313720315868995 0.540439970965024 -0.7140722238736155 0.11875282726189225
Ni 2.367612936554293 0.7566901758344772 10.331880203177773 0.5146019268559976 -1.435908922183998 -0.7181510219286793
Ni 5.157728201064461 8.77815478699076 8.725370040220438 -1.0766005978284041 -0.6495133661556234 0.3145916981745098
Ni 3.0533723733611926 5.353789509856693 4.989753412641629 -1.5690185323881947 0.7187084370940461 -0.6802275074100285
Ni 0.1740599253247069 9.231514956352942 9.798799039607905 0.8697520060688441 -2.269028107521157 0.7695311761728683
Ni 3.4808858823559334 2.5818156401899848 11.09034773918622 1.0108055537104657 0.916719375957318 1.5382087460961895
Ni 6.062352119097336 2.9306490094607125 11.772188340472448 -0.8521291507807582 -1.4250364982458683 -0.972498687710467
Ni 7.902595718983314 3.7658887584673644 3.7343790037846225 -0.712543960154547 0.5502042494406396 -0.4586115275333069
Ni 3.3088414632398866 6.753610062805598 8.986824043380231 -0.5645957422756213 0.11955758255137473 0.3899296487858768
Ni 0.751530038588583 6.933396526756006 3.758211996908924 0.4441120483655513 -0.2649537234324082 0.484472711570785
Ni 5.726961587769405 6.327273491742922 9.495209738997456 1.821547914014321 0.7091768434545271 -1.181674642051623
Ni 7.1902356459462435 1.2889125425070398 1.7831942920774408 -0.0704885929388657 0.7208828190375457 0.5664356236978373
Ni 1.5464136892840636 4.081446046674495 12.146160368385859 -0.7690989737314561 -0.36510693331524213 -1.0539692335821333
Ni 5.285196096003574 2.036102622471136 9.416536955135516 1.5990027374551108 -0.4645129806194065 0.6961004698865432
Ni 8.512277152275374 3.1953405114164415 11.441616818286663 0.05551654501006568 0.4708065269376021 0.057783229557055324
P 5.240729909757772 0.2746826016196429 11.025428578439762 0.16410708702697546 1.0739994127601311 0.026185400146116193
P 8.8796656836313 1.995516653470108 9.197717528564752 -1.272566738347505 -0.39390328872164415 -0.9164200995493443
P 9.05856944413266 7.863830325845948 1.7547041187766514 0.6907541179729652 -0.2076212082595263 -0.04627317203492676
P 2.591534572957109 3.2760527080387845 5.535363448291422 -0.8927039868793271 1.0023332545733963 -0.025326394579930574
P 7.704254092947706 1.676566473880699 12.856572057455708 0.5122002593930404 -0.2556023641244953 0.894229165274602
P 1.4133737288228332 8.080212203621477 11.348773885619224 -0.25472047574017426 0.3770386517558217 0.5239319460076719
P 8.68025745759476 5.048337337175646 12.949308330123054 1.5364426553347024 -1.3642553624027538 1.3768283139717579
P 8.034293234615783 7.126837309683877 9.279243467429186 -0.06386080320970293 0.21816427388269524 -0.255717806656437
Ni 1.7951705550189538 3.7851611171049164 3.3311223694662777 -0.8610904737391042 -0.3380746117877984 0.6692756363842151
Ni 3.530795406537533 6.96707718023375 13.494971695772895 1.3184267341044134 0.18377705465207703 0.7983822960766057
Ni 6.859350580139496 7.802022694757387 11.192463655482461 -0.5641720244746412 -0.6004042673337981 -0.45289210855102646
Ni 6.595063650597913 4.637025114401976 7.612336159936249 0.7844312332131522 -0.6205902553633699 0.579237403448196
Ni 0.9171389978714131 3.329226396016343 7.034562617361762 0.597452898014958 1.5971708264526945 1.3526817986325412
Ni 4.074264886323384 7.637297358406364 11.003223989282404 1.4834180235085548 1.7382331158450643 0.5046121626331375
Ni 1.0248922629656914 1.0699836974879025 7.636639928233375 0.6911729506779387 -0.536384827059044 0.1338796556010017
Ni 8.479083824660124 4.099982819104507 9.017951293235052 -0.14242317429563858 -0.2703394132243538 0.8638173857519639
Ni 7.518141587612454 4.211185064029388 1.392924432253217 -1.124271421541806 -0.12838983613102406 -0.25681489637535776
Ni 5.116369866545515 4.836093131817529 4.047859180438212 0.20000637202674587 0.4113567083114012 -1.9418287478849656
Ni 7.2666446632544766 1.6516760755830593 4.589081444360028 -0.6033582077557995 -0.23416604862759027 -0.2880568851087748
Ni 2.27485551578348 4.810807355933337 0.7157336552814011 -0.28426502216651045 -0.2942470730798868 0.6513180234645298
Ni 5.217402632151155 0.39925596483208625 3.9614746946729746 0.8731592319781801 -0.2924190187322125 1.5610272866526018
Ni 8.096744503635941 2.0751714449191123 6.950977956598974 -1.2806613424301816 1.3379120965225344 1.6515748551248715
Ni 7.4205844668374406 -0.004144108796729321 8.428294355477755 1.4621233757958367 2.576710994390975 0.8656202432886575
Ni 4.886315280137333 2.7832007541592896 5.062976422188454 0.04863858694330978 -0.567602647422745 0.26494061080628567
Ni 1.4183205460685406 7.869190910333397 7.698181828804462 0.10576387120139204 0.22619897126171368 1.0167563719772619
Ni 5.9013231034392035 0.9068472273451669 6.520160746049618 -0.24810631285776624 -1.426801303455775 -0.004856813871669054
Ni 0.22217645812542697 0.8223007876160209 1.0284092845204926 -1.1276822469955674 -1.5266004724333 0.8253932774478108
Ni 0.28243384128159726 5.158031630375071 2.217658171250677 1.7595259637855698 -0.18747507232895455 -1.698486946295378
Ni 3.8463251102618803 3.408669706430679 1.9428817823895728 1.318905987733677 -0.42097366257587493 1.1596210046856932
Ni 6.771346885234911 5.76537757745819 5.383185373675516 -0.4913074751044313 -1.4504819349021665 1.077984365549808
Ni 2.1369514915248904 6.787419443869663 1.9169348984013532 -0.7291031500648089 1.744633877165086 0.274898750460262
Ni 3.5147136530751864 0.6833513114599647 12.973060408764525 1.088741346955996 0.06504813864958474 -0.9521046974351474
P 3.0664106388898413 8.66955467827505 1.2421586831557878 0.08768824464660382 1.2886073367501356 0.5724877434291883
P 6.2327414692464185 7.4601498099755075 4.107731300318183 0.3023038819460923 0.3418109389017791 -0.5839330091516525
P 9.247881749470713 2.4868422659689573 2.6475457847302537 0.6282295170761826 -1.1416165976884727 0.8337282796760674
P 8.200002417519391 3.987447324178458 5.809681934738333 -0.022468099195529046 0.5447105733159199 1.914797454798786
P 6.459669814272554 4.1249651656780895 9.964905439063585 -0.04528252598688331 0.1868592931218266 0.04427028267228505
P 8.024850146676487 0.16493130048913363 6.151086802795664 0.2397875085794257 -0.8459770151364333 -0.4461864143960767
P 3.2390159424891376 9.19184847011134 4.8013743823043935 0.17664918535804416 -1.9424267864802804 -0.3886006455618082
P 5.186002295916785 2.68216798855365 7.306337814496103 0.078013183450685 0.8709961628885903 1.0035391019560393
Ni 3.2165989528143517 2.7206483420355942 8.711711123829177 -0.01372377734399572 -0.7816858092575313 -2.3623313843616924
Ni 4.525243595338656 4.49956244186791 13.367246345661142 -0.2972850885752622 1.033999989549058 -1.835132851787607
Ni 1.1850477700023705 8.975668878542884 5.333285044321511 -0.7287943605751385 -0.3480237525807103 0.6118371917610882
Ni 4.531753533275387 4.65855020580012 6.714877771047572 -0.7335228763990593 -0.05745052880798494 -1.1978299116552467
Ni 8.590276874757413 -0.07709770989504258 3.46927833200095 -0.323307737891269 0.41922325554367157 0.35732291849444914
Ni 0.06610161557507675 3.0976454682275154 0.6203327215772406 1.3063752022565178 0.20485907213335683 -2.0829835969911414
Ni 8.66152759378527 8.64197939031989 12.574272460656987 0.7131530544934557 0.0896512819102456 -0.5812312939497731
Ni 6.705125736901109 5.0618261492564125 12.205723542058665 -0.17870863899023415 1.3955505729716093 0.29423216068155134
Ni 2.257734746802983 5.272461259785535 7.281616601026197 0.08236220444800009 0.12131955954780398 0.3033721753096066
Ni 6.70958522828432 8.138332708844743 2.020194651250321 -0.8163653629175875 0.6025272272140719 1.418204048705067
Ni 0.37985303964269584 2.3036353261534885 5.0743476654742645 0.8658205322249217 -0.43523017249488916 -2.399675629338106
Ni 7.659043125666769 6.73884316968923 0.5546292420369949 0.6484640989555025 -1.1303957892719887 -1.466946251105777
Ni 7.67993377396091 5.9990365362833185 3.0258779998888605 -2.1354374439154835 1.9007882850038877 1.217229399227781
Ni 5.701997630851011 5.514570265169781 1.5842108670757546 -1.1102010594916687 1.3355844768306224 0.6791682129075787
Ni 8.828891845655841 5.690439732565037 7.393906594055479 0.2051784031459886 0.7755724972709417 -2.0344542819321867
Ni 2.9095928542698757 1.805284865372631 3.857300056478379 0.48758708883005064 0.6690097843173382 0.017633911031679307
Ni 4.684212969615677 5.1483954510562935 10.994045712377822 -1.9878502089204022 -1.1975139230767247 0.24002405007026403
Ni 1.230479413145569 1.2584684683424716 12.3862299610097 -0.2674528357051781 0.5833074597525115 -0.4144739137841443
Ni 4.394162133155001 7.452260647899639 5.370306178664247 0.9774262069190714 -0.7095385976693199 0.5346768432290018
Ni 8.837378671525336 6.018584739748698 11.07177694589411 -0.343856251466582 0.40913578940068246 0.5401836319798439
Ni 3.3419152580964107 1.4052822805398915 6.397818048011541 -0.4260433637892985 -0.031726384569003424 1.0957398897610162
Ni 1.7382269877277519 9.156604695942573 2.9428045715403135 0.17032581424317764 -1.0035473294861554 0.1951755262970058
Ni 4.389776200392543 7.646979511863111 2.78132776777834 -0.850639196498793 -1.0613030482393853 -0.02553054017093668
Ni 6.945947466422159 7.406966927170354 7.361406556440836 -1.345691226247321 -2.2633961060463603 -1.2315784688606015
P 3.242316885595474 5.274704797718532 2.7291526380775175 1.3330154305518656 0.7534880066670765 1.059579380680059
P 1.270458523525376 6.722697052433723 5.949344929515703 -0.3326081893565885 -0.3709564501174837 -1.103339556485145
P 5.771639255049875 2.7553772058590833 3.0389594811072027 0.5487652030012679 -0.348713065338251 -0.31850157475187724
P 3.0776467182100173 2.910880130133071 13.261442384016844 -0.4197156217990578 -0.7536831533970181 -0.3119573458754563
P 3.1043209130609424 0.2035753219022554 8.254221557394414 -0.9334184338795538 -0.2200481211689694 0.06887111194010073
P 4.809078728345618 6.619577060964189 7.559649797821185 0.9748245076301664 0.33665639128403313 -1.3917101161795968
P 5.617828179053229 6.849438555992892 13.172743560146134 0.639195529169383 -0.04436772748209778 -0.5646736467014082
P 2.797728581758207 4.612254248863062 9.49066105778658 0.2147076827926625 1.620757355523383 0.9539785174190926
