# total energy = -381161.4688421242 ev
CRYSTAL
PRIMVEC
9.32215688616543 0.00000000000000 0.00000000000000

0.00000000000000 9.32215688616543 0.00000000000000

0.00000000000000 0.00000000000000 13.64391890096740

PRIMCOORD
 96 1
Ni 1.4561861201704132 7.671855238988296 13.859083390154101 1.1067688938816682 0.3324508378431178 0.8933580755235583
Ni 9.259791398762367 0.7540151810167772 6.520415080019563 -0.864349346996034 1.1661261527940627 0.5980774189728344
Ni 0.5115990234518315 0.4762736431310151 11.324425359793961 -1.2953780798150658 -0.973711991292278 -0.7410050437087174
Ni 8.225153201246547 4.852126591202564 4.118443966004052 0.02319315028701167 -0.6688120664842352 -3.0292500904779573
Ni 1.8418344176559918 1.10670779039602 7.723058116475529 2.5433208489663035 2.2235985144334482 -0.997475926481095
Ni 3.3224072995615757 2.392578108998556 5.807492897628476 0.759601318653666 0.1441897792777581 -0.5167495693266196
Ni 6.828321252317659 3.4713473959846723 2.5142192019563336 -2.848409749856701 0.6937011164164311 -2.3160792953726883
Ni 3.420485709429974 2.7190586783751405 9.48485622619823 0.8650024071990005 -0.488043716751495 -0.9218209588499414
Ni 4.39365360615003 8.776018080625256 5.715532619154112 0.24243703038713083 0.9187356350563984 0.9949228210419383
Ni 4.069149333978284 3.957479219748311 11.455761495643397 0.35156750406791065 0.109798703392398 0.9636438084229985
Ni 3.738464471963105 6.302178732312678 9.853514893231843 0.3255736511073103 -0.47784440762098995 -0.39162657687232555
Ni 8.166954977426718 8.133292669848087 3.3068905698566096 -1.6237143812691779 -1.7074330997450722 -0.5229029905225252
Ni 4.591031628404911 6.804391276257192 3.8852558112837716 -0.11845072264044117 0.21315936446893613 0.15458217825567572
Ni 1.8604694087525537 3.6886375447939583 3.982072933360592 1.0163018009383467 1.9832780161686876 -1.4826055549095887
Ni 3.168246795427586 8.21099284533075 7.963259329625995 -0.754560670905965 -0.2988552612758595 0.3842148577892867
Ni 9.20145334259314 7.343780580828563 12.429363804862254 -0.47932741992441963 1.4748274536260666 -2.8967984255727335
Ni 9.05416326789295 3.6913782588421773 11.459390611218131 -1.3021871323170993 1.417015427713605 -0.1827128750536208
Ni 2.9317530039675157 6.718040139425049 1.6389889505396134 0.12898247540970045 0.9727699390939826 2.039713730558913
Ni 3.550278096142046 4.776253558418714 5.595712143385508 0.6314043152597384 0.3133071750351314 -1.152410345869867
Ni 2.6885659040495504 7.3450204276599 5.791856844318691 0.5474423704247863 -0.6815809361141294 -0.8156673084092986
Ni 2.117322790285106 0.47321690797315485 5.582968755276953 0.45146463207588056 -1.5008192497041377 0.32605753272226423
Ni 6.516485791001454 7.843578686206789 5.823593194338268 -1.3144034718776332 -3.0935053009126015 0.48484706419106827
Ni 5.845439668392692 3.3343116935737362 13.401766352523268 -0.26715844439321085 0.4714238488066268 -0.07814508104285897
Ni 0.36439005151429327 6.217132697408258 2.602850538299341 1.629982730776393 0.8217808775062041 0.4384862175383416
P 2.3649192702874506 2.3103473653953674 11.353282095631585 0.49806716242576804 0.13179371960625044 0.7055580157550171
Ni 2.7280172708932975 2.6998643578809824 2.2003953246316756 2.452165985927338 0.4652735129345148 -0.06363146080771623
P 4.898261944347579 6.56417794430311 6.73362864973604 -1.1648843099671617 -1.925206308836936 -1.5660134270132837
Ni 5.85110753962166 5.604797517233787 0.9642894747488884 -0.11029646896442294 0.6982087744787975 -0.31787191158767836
P 0.3100856925173936 4.879272711299207 7.9207997028388455 -0.2492643377216094 -0.23176823781937506 0.19708534172520897
P 9.79805272238192 9.471870462017385 8.7322030122646 -1.8621662017563154 -2.000281749815536 1.195060833550542
P 0.4967152681818111 5.618389221595361 13.470709294070907 -0.8338822887554285 -0.5672115826319135 0.4345372601929226
Ni 8.028912482100111 7.723108456121311 7.732608665939474 -3.2811996883412133 0.8633350467989067 1.1778187586406426
Ni -0.15173581119541246 3.0683598871736284 2.580092357326837 0.7175509264508351 -0.6517638527526969 0.6697829150379369
Ni 1.3732935034467366 4.258510301534294 1.1853756057365237 -0.7908034552880833 0.3831522208527272 -0.23652503577807008
Ni 5.4884290360640104 7.923292447520797 8.139688601509592 0.13348936214111848 0.4203686820020245 0.5985132209586724
Ni 5.189942903037088 6.224553134083028 12.332014387642054 -1.1423683882528326 -0.0013264321209073928 -0.17015535010358437
Ni 3.4662388541532985 4.980250311878476 0.41549970743525905 0.8825237039122157 -1.1779984787516165 -2.9804760063980478
Ni 3.3814351953211705 0.3011904906642973 1.1924007829703254 0.309879380300505 -1.344940978344858 0.21927936132374495
Ni 1.718492963329523 1.348832164458553 3.5919248308713563 -1.511000561112514 -0.5720020620420213 0.09563629584908691
Ni 8.469384382706691 0.19915762195489758 -0.11735383312520743 0.46394450971044615 1.204780631941467 1.2157466440346674
Ni 0.942376813382416 2.856374045484874 5.623354202214685 -1.8445942543108231 -1.5651796182580786 1.739613798242675
Ni 6.375823769662773 0.6462892712555163 7.394444637662779 2.252180954056831 -0.15902067364300357 0.44607251452603175
Ni 7.892268310267491 2.8856829059188867 8.433333738600325 2.528471699768613 0.9594703937715992 -0.12706880332675535
Ni 4.681950621984085 1.0144184397927365 12.025872899593374 -0.5317624977956842 1.9040803254915983 -0.10951202538991463
Ni 4.78909949025016 0.7103772336320267 3.8822811111042252 -0.12851196353118513 -2.6305213553432116 -2.363527204442007
Ni 6.073413008696055 2.9572584244978772 9.876641299391098 -0.9856974457889282 -0.43109018218458656 0.4673460791928274
Ni 8.18173059567987 2.8931219869069085 0.4487257380837664 -1.38379883175232 -0.23924397737112993 0.11350032061370131
Ni 0.6027995461611287 9.063317625700266 1.942593879770199 0.38532274614148476 0.4516286684575706 -0.10871035542422568
Ni 2.098510678212639 4.488674348644906 10.159889435196188 -1.2451106990190814 0.2423580975200794 -0.7336699434998848
Ni 5.988758504369952 4.997533590264182 5.146008511071612 -0.6732500476509308 0.04722550864586706 -1.043863255496383
Ni 5.6716280580898415 1.8637601300417415 5.468400382551772 0.8210699674821085 0.8075513641703833 3.8407329284922636
Ni 2.104868389031976 3.534999081431058 7.48007330735636 -0.7635777868029108 -0.997318060746992 1.0766677036209134
Ni 4.2451236846185045 1.117185894444312 7.751492558617966 -0.7115054915877036 0.4189319495554979 0.3584953415359955
Ni 2.5060007886743283 0.5273432137784866 9.873626513938058 0.671477014910908 -1.300011207711703 1.1524332286880024
Ni 5.733210224765123 0.2548491178578345 9.924627100626491 0.1428245234991153 0.6023279667190724 -0.09477189096626258
Ni 7.476211137865962 2.548901353469915 4.282252902246567 1.5169778617418714 -1.1358935791617664 2.309434022142029
P 7.728552595591243 8.986074235892305 11.672099852261109 -0.7262224860829042 -0.26240550308925775 -1.8689968515249038
Ni 5.916903321092163 8.344476806066954 2.172248004913337 -0.7668564575541825 -0.13178626340708272 0.025873011112019954
P 8.986092880205558 0.7014512686620626 3.917482506741908 2.62345982051074 0.8844276058031478 0.577931797262895
Ni 4.30661262972752 4.708938265418076 2.406691854131219 0.11697182410206952 -1.3169540062136287 3.014002163179951
P 1.5402440064724137 1.5592612059906659 0.9434171660619439 -0.6732834719920276 -1.0762789528229273 0.4358986593168235
P 2.4472432354569045 5.708758207933566 3.536830885208184 0.4095145128963399 0.6166582672988153 0.3924884106519886
P 6.298850722396984 4.716722266201282 11.18361977724323 -0.25046787111140734 -0.8257149224532877 -0.503303728234359
Ni 8.279846294174776 5.568114830908138 10.270296397203259 0.637787850188579 -0.029638391691723148 -1.166850432554597
Ni 8.49043381236954 6.6404145411953985 5.219767278732551 0.16660979884417113 1.639042526985816 1.1190006600611697
Ni 7.547404448023262 0.20919851685740226 5.2824475954584456 -0.8132862097716317 1.7092791518148758 -0.7131648815679975
Ni 7.246270822514388 5.557357062161048 6.959639676069505 -0.28137355955132837 2.5401349950391543 1.867971752694499
Ni 6.391251938879787 7.1031477518262855 10.086922118632847 0.21825092005923058 2.574557952603714 2.8220166045751527
Ni 6.247765304083247 5.349016183713292 8.975515029081361 -0.4543365543070369 -1.8798631048154464 -0.3323415659587631
Ni 4.244023670136566 8.212148792752448 11.175214920828694 -0.8920113316876767 -0.2045906489633186 0.388042459065493
Ni 5.380599650364195 1.4035345795434084 1.5673043627280914 0.2053727785449818 1.2085519260584412 -0.24846832418287532
Ni 3.0325721278841327 8.772876513842093 3.35984228392699 -0.3185997908926384 -1.7723220871089733 0.27692529397198756
Ni 5.933151840092317 8.64065104425048 12.95106711388165 0.9551203443330195 -0.12169931148472588 0.855679587136178
Ni 0.9082502624037796 8.059694243281124 4.390762805380124 0.22243101957884917 0.0638417770463094 -0.3738497125048787
Ni 2.2564373336237726 5.840163327742038 12.090749516420493 0.2335042466738753 -1.0604209027447478 1.293821019740591
Ni 2.6460848363021605 5.63279195358345 7.5474333467088055 -1.2212107524730322 3.2911799394823773 1.583905733912672
Ni 8.036640549943558 3.880683293458427 6.061529123428472 1.4572020272348194 -2.721869822450222 1.3670786907841617
Ni 0.7109067321284174 2.4237327564446334 9.869451119985005 0.5441343890974758 -0.2901754741136745 -1.097808856474903
Ni 2.2639882804913136 0.3454539547586923 12.752861284118328 1.0543178751708036 0.22136066933280588 -0.7480007583002601
Ni 7.56826743455358 1.0579808777088116 2.52884566570346 -1.008436796367973 -0.3171676864318022 -2.5234554775009443
Ni 0.46527722717428455 6.9178792110293506 8.911306810884367 1.621551569289904 -0.6747083773640122 1.3592795064547172
Ni 4.479697111813496 4.4033020382585555 7.835293153397072 0.899921844784005 -1.2429890246903883 -0.2935122517963913
Ni 1.312391854205196 5.502486848256914 5.483053880553116 -1.9955974569659887 -0.31135853594919277 0.05067207243357079
Ni 8.056459454931696 0.9136925374423854 9.672364881232538 -0.7405676990609826 -0.5184251572568297 0.33698754937120673
Ni 7.118203034778236 1.8397928653547677 11.909667556164562 0.3096803769158215 -0.23043126417550636 0.04663724024256484
Ni 3.5299930833225766 2.479190266216243 13.734923450475819 0.1829681855975365 0.3245027866406347 -1.8186461669864937
Ni 7.569870845493355 5.788574512970467 12.494309405648412 -0.15381650373424477 -1.0637612799718905 1.7892018935834477
Ni 0.5687401147102038 7.9144084322556525 6.8458767376768614 3.357237750343399 -0.13491966682974182 -1.5164237890106143
P 4.148229188641683 7.674754429699167 0.14206220926399557 -0.02292292734476052 0.2334039736505851 -0.06436859608405687
Ni 7.710206591350105 7.492664744311901 0.8607482810973058 0.5117192059915638 -0.44461855568832465 0.1551992430143843
P 2.1566250026228273 7.454779499781421 10.880110866225898 -0.4099477437790165 2.100037467149635 -1.7179077740241508
Ni 8.060868835016075 5.09426960957835 1.473734147804314 0.7731644020500814 0.02827236458213195 -0.999025530356402
P 6.117059346021769 2.873228504665757 7.489624789035969 -1.5609367838213246 0.24674799905765893 -0.8037124500402674
P 6.626328762532614 6.219509847348039 2.9772665692655367 0.08200430688794909 0.11289251182637333 0.21209132821573795
P 4.9413209858058185 2.683047187326607 3.7494441080379075 -0.36734944949251574 3.649276502918057 -2.506740735849425
Ni 0.5829480136247961 2.290892024515665 12.873733299154413 1.7569237502760322 -0.8473330149436955 -0.00429811315472163
