# total energy = -340895.4710537769 ev
CRYSTAL
PRIMVEC
9.02661719774795 0.00000000000000 0.00000000000000
0.00000000000000 9.02661719774795 0.00000000000000
0.00000000000000 0.00000000000000 13.21136669335950
PRIMCOORD
 96 1
Ni 6.248413830213105 1.9668456795163023 11.279362695696749 0.36967141275747306 0.4959609147160426 0.8306175019612276
Ni 4.80764841471458 0.46323154065595845 6.168400092008435 -0.7377682819389746 -0.6884817769990207 -1.2278742805361371
Ni 2.68175374406921 1.5106043510470835 4.564738541225381 0.20414944766084195 -0.6936165271224248 1.2533865658746284
Ni 3.4078728669071507 4.130733381016511 4.820709026818136 0.7800547014120114 -0.5702300577432632 -0.27081506730919164
Ni 5.174607474667476 4.585566557237369 2.782710136321471 -0.34047859324360075 0.014903656584709815 0.09744275293020638
Ni 7.438230267143002 5.94941616947762 2.5301083841844125 -1.1084763634910781 1.005064023240998 0.19547840224940527
Ni 5.00101660358898 4.740427198089258 11.469302575443406 0.18757148869750276 -0.635760278235589 -0.30552521709686736
Ni 5.601756016620861 8.075003935145782 12.132314813673995 -0.35875810827907895 -0.7658385578126294 1.1683907804585232
Ni 1.9494062555173601 6.402344729516397 0.48347372922615917 -0.2014852705651175 0.32860292485193726 -0.01594443914439835
Ni 2.880853834723799 1.6016016767889756 0.5386389962174298 -0.6133379446763307 -0.9598555450251598 -1.0713488625111613
Ni 0.388492957412459 8.858640661359118 4.645209026249071 0.13584809218128216 0.5155069551687702 -0.34919154763656635
Ni 8.650396607707153 2.318459490608845 1.4749699752082512 0.047675965919724346 0.6799436576210225 -0.12801008419410212
Ni 6.9554777646132795 0.6748903635102 4.735588028728061 -1.0349628676829596 -0.5514736030713664 0.03404243429668976
Ni 0.5914465108543921 7.394270642466579 2.4484888108195912 1.279404587204945 -0.8612655658643876 0.3764146450185776
Ni 7.433364920592571 3.9031994468853863 3.806987444516067 1.1836831878412197 -0.5031849432683075 0.45277898001192984
Ni 7.389874679998936 3.832205104363813 12.571751289317733 1.0555070103828985 -0.08285559914465085 0.12218473576157667
Ni 8.098292606945613 -0.151564120332007 6.768962583347575 -0.49823659812409676 -0.5934640885705392 0.5701015025851988
Ni 6.960072312654408 0.5478091364040371 0.3012813948305856 -0.5849588793130054 0.7430467567290945 0.3942442170008307
Ni 2.0307902341790904 6.52005181489228 9.208890550626485 -0.8449508878647642 0.3587177419594467 -0.9272501002853126
Ni 0.1354777862178689 4.938660733514086 1.3763469634444614 0.4431990496329787 -1.2579338189256788 -0.21214712115433787
Ni 6.24693346502893 2.022657252283103 7.035461714981926 1.6965709602195878 1.05062757080341 0.19320528994451242
Ni 3.555764959453045 4.484847565011594 0.636290743994529 -0.2745817334404755 0.22575031376006927 -0.6231533881048559
Ni 5.84727097176953 5.636391145960375 5.081368839930275 -0.18725678567056137 -0.776592968115656 -1.2487580659636817
Ni 5.170996827876804 2.982394249094451 9.333486750078967 0.11398317378739078 0.3713207754354379 -0.12489493560388813
P 0.2561004688772186 5.739402898898226 12.494887840437922 -0.259666764001856 -0.5005032826710865 -0.7766199646988495
P 3.8760654362534916 6.282227537407741 12.581342972517149 0.8124760551655105 -0.389298185849465 0.15105025384301726
P 2.4750442153032806 8.33831937897246 1.3764787520523207 -1.543861830616909 1.1189641503962793 0.07848189555698741
P 6.3528788684842015 7.749440940647933 5.720838758423989 0.2704450855642826 0.3207494902457896 0.6340237551604565
P 4.716985073800825 1.1150128620441648 12.637768355238364 0.48516459543148704 -0.4005555039308392 -0.1720245421018392
P 4.073342150278792 6.268786904729468 8.09138092632657 -1.259584467155224 0.346241720979623 0.5342492687732798
P 4.664802201058649 0.8652779634588996 3.637208513786821 0.7866894331197096 0.15058668394303742 1.3198120444877142
P 0.33043375701846533 5.329143157308206 3.620139181083923 -0.4313107828358249 1.5821067330307204 -0.5308440997464728
Ni 1.3960475549960614 0.9492390412674712 2.561472267531578 -0.09556019119551284 0.6593864022949611 -0.16675635172436443
Ni 1.978995505966911 6.376745243770538 4.672939696263124 -0.42008971730902483 -0.13784018291064648 0.29727531838324933
Ni 5.844896971504664 5.552272102354712 9.232169293147638 0.7139210430077317 0.8557811457110488 0.2968477439275275
Ni 8.523951757097846 2.354250026921374 10.253011070920913 0.413469640889346 0.3746776077228128 -0.4310397885626254
Ni 2.595224593730773 5.069772345100336 6.8426685216089425 -0.6411426255934248 0.4037714397649756 1.1802258254202382
Ni 0.4695149687334241 -0.191508705777203 9.099976292847584 0.21208387201657022 0.917489164243807 -0.41207224632118705
Ni 1.552343427947243 1.2469910288601755 11.415123015025989 -0.18139544179377792 -0.3917541035891253 0.1317980904816246
Ni 4.02709879150727 6.753471103292199 1.8295102155246332 0.8892301693981137 -0.11216103297698747 -0.8745967357556551
Ni 5.747933051941187 7.796722360371772 7.841896967693256 -0.3746518966911999 0.19175390220996652 0.5238658686564268
Ni 5.554600969534694 2.6588080837144936 4.690708591781716 -1.3002526342985476 0.4704172619189834 0.7681340387150255
Ni 0.9612624950804064 7.18960112913738 6.920206258776909 -0.3654954270029125 0.48529032237607383 -0.0681108367353085
Ni 5.039343619271954 4.585015933601791 7.186692753147494 0.7009927649818378 -0.6226764484684373 -0.5965591825560952
Ni 8.019147229294099 7.021922692178606 9.001815443873 -0.336324204755595 0.6170148793072857 0.5199441650045173
Ni 4.41823113172371 0.48209987812230876 10.53856178034624 -0.5625753694114827 -0.4739083057913774 -0.8973494560711385
Ni 8.167571892241616 6.8537387646691394 4.761310276464803 0.19277848681973897 0.24351663660455478 -0.25031566180425924
Ni 7.279036850142306 6.038463745952548 6.898050427407653 0.5199040557952014 -0.5191849182409897 0.7864107255370263
Ni 2.461179331627103 4.966146782208071 2.6904156857200294 -0.46853624284618656 0.4911341827513606 -0.1160426274195808
Ni 2.2900798068341692 5.223802537190371 11.45480943922565 0.5122984755338016 0.49693819102764736 0.15981745851268603
Ni 1.0653213355875517 3.373851547522051 3.917738618849721 0.2324812047259996 -1.3294580522179102 -0.4270311816238646
Ni 3.866542355343096 2.5869652391971125 2.662909778468696 -0.6259283797468317 0.6031520052822644 -0.5060812909794961
Ni 1.0488658128390675 3.259737055702886 8.08651919042293 -0.5458097199173697 0.5216943149264047 0.8945659797887303
Ni 3.738608112932637 2.6597197720291383 7.101585294982884 0.312488535788578 -0.15934617530322237 -0.061843001448725746
Ni 4.051353311323604 7.047115980160515 6.040883781963997 0.05796886320530017 0.30383445965800576 -0.5760852309724594
Ni 0.5358606035120083 7.380956382425978 11.06459871660253 0.8133034361628123 0.506831024661327 0.6072783687458122
P 0.18957791240589156 5.534155682082519 8.039618693935507 1.2307821982115512 -0.5336165202852875 -0.18949955895815107
P 8.39506069328786 1.5504478383821407 8.090403343707996 0.4317319295336436 0.584126098999065 -0.3369189009168004
P 1.780870289945803 3.288098686243609 10.441101396849048 0.07397757992873066 -0.3548338335240082 -0.787895537612669
P 4.036468419929062 6.118845770129868 3.9458384774981208 -0.41949116449307755 -0.5082057935216667 -0.2230149171067772
P 6.886956715143316 4.040322785378104 10.428365742956652 -0.18341504332696798 -0.0640603208150187 0.4987518471976185
P 6.224863386520952 7.704371042083379 10.068157689840612 0.06258399337980834 0.0922252132850089 0.3110664586300707
P 2.2606710887241515 8.34460190438823 5.537438662676936 0.6128599765986478 1.4146235304426606 1.3784195697182777
P 6.864679024444873 3.9854860872447837 1.5816781277980518 0.5474310575708765 -0.30718614973905806 -0.6257697426817803
Ni 5.236638386531208 3.0337918061596563 0.270039370812605 0.8772287740618634 -0.7004258367347743 0.46763789940163336
Ni 1.3720187006041442 0.92467761647393 6.92218760120329 -0.03390642293945774 0.3447782490602191 -0.3408318628179614
Ni 6.62722483825638 0.7660953014425557 9.15723392965405 0.36853549938081687 -0.5302979974350157 0.27743360106697385
Ni 2.5900703954370896 1.544066020179629 9.099394978714285 -0.25588775657539803 0.5836486451420142 0.7892073144455569
Ni 6.338192562663146 1.981378532848754 2.4969743812481204 0.6176566266563427 -0.2931700379656241 -0.32047875308290613
Ni 4.0876764180377565 6.865599739376495 10.411772112968425 0.16547517101909567 0.9325843680140325 0.048337510763123204
Ni 8.071122489845811 7.163550312542686 0.42919668134539357 0.12308153654423318 0.446554853479089 0.17797613169958382
Ni 7.701428364948982 3.9907937380270706 8.42937989103319 -0.5897776408578875 -0.838120495206492 -1.2394108204208267
Ni 3.082923682363715 8.338517964545947 12.497213096971114 -0.1380168176978268 0.6548664029374205 -0.6950851412481514
Ni 9.24253365476026 5.002226170263854 10.237540352084583 -0.7386252306226311 -0.8939347739626347 -0.17622161090232233
Ni 8.671094640434676 2.4909761942671174 5.804281708418101 -0.48800412176281116 -0.5405052769853207 1.1265959559099243
Ni 3.6488023006316666 2.7148994816075716 11.518673656997347 -0.31043550991429114 0.52554788434454 -0.3179099639144654
Ni 0.9091879417419503 3.580660369074723 12.548354298114182 0.19638394478281018 -0.8777226829791464 0.5643517445856152
Ni 3.149251263908346 8.54540802565141 7.914877165949699 0.16510596060513502 -1.1897324793590929 -0.16910094069714102
Ni 5.77433590659797 7.559421626671882 3.6119610661030523 -0.47804829610168 0.9749713176206757 -0.7323280847600098
Ni 3.0708912019338035 8.291498316714431 3.4429484951551266 0.5672133824041263 0.1382883261916586 1.035823673021358
Ni 3.3513211115482626 4.54811512340113 9.3274362087195 0.29598333904470314 -0.9749003551734243 -0.23530247622487863
Ni 7.338531282635592 6.321132256577225 11.52151343069821 -0.42019333276642473 -0.8910276276181687 -1.0713694313364517
Ni 0.47469624687803735 0.03773125896251454 0.38960954993247404 0.7510014927997969 0.07709067163641561 -0.4266185195664782
Ni 4.640168563329294 0.2762226034416295 1.5212891575623775 0.19324154249908654 -0.735337818120611 -0.11771333025378437
Ni 5.9654384146112225 5.65018381670074 0.3008336746285424 -0.5621814764071738 0.770164695991809 0.8650137200529103
Ni 7.728282550454599 9.020460823900025 11.29914001349265 1.0046624169272054 -0.6350234000695644 -0.5739581573271276
Ni 0.30375739586728845 4.823986591442368 5.834007260783999 -0.34592418973920425 0.028718450980615054 0.7264927090251553
Ni 7.831709527773377 8.800581460965123 2.4662586089998797 -0.5549386788018315 0.49092515206434806 0.4181891578522024
P 8.542320922645386 1.7015534065717324 3.777261892150168 0.17444574994882217 -0.26326013778006924 -1.8337002331061387
P 1.9913800244589135 3.1670788324372854 1.5410791126220464 -1.7410279049813822 0.592116059183077 0.6191334683121854
P 4.623234629881047 1.129338103186153 8.344417761401903 0.45378556689957333 -0.5668423722179528 -0.6106794240075611
P 8.586614532149945 1.7308357520440762 12.388034359314796 -0.41979738287958673 -0.3097801357184794 0.8553072913984238
P 6.137891931950659 7.648433096678905 1.3302390039275898 0.7384727642051669 -0.14200382737003286 0.2757600700192928
P 1.9389082999734835 3.0126153627323693 6.15048586795652 -1.0748735878349682 0.1499336237400708 -1.9782561374740641
P 6.878516828270121 3.9500566156113224 6.035837000412336 0.2520544988722369 -0.06478922856124325 0.3841487804380416
P 2.3945087386373585 8.529837111366641 10.096786508243847 -0.3747269729035095 -0.059923672938825834 0.9786346254048758
