# total energy = -381173.3195724539 ev
CRYSTAL
PRIMVEC
9.20961586296344 0.00000000000000 0.00000000000000

0.00000000000000 9.20961586296344 0.00000000000000

0.00000000000000 0.00000000000000 13.47920373768597

PRIMCOORD
 96 1
Ni 2.0922589776857055 7.391739091738349 6.2643117178274865 -0.21034323517637968 -0.5912745371183882 -0.36688330848937456
Ni 0.5198201967114904 4.174304491249019 10.757307602389494 0.5428925462705747 0.5476673419513987 0.35157470315676226
Ni 5.905233395555138 4.022041910243138 1.0090626264444698 1.2623440321782327 -0.6144879991203739 -0.5423801254105304
Ni 6.688391509690322 7.060413947223287 7.0311163168660675 -0.7818948399445437 0.6961459784124978 0.08039788163277767
Ni 9.143822483951716 8.061784702400828 0.5504182248451585 -1.6319714790716473 -1.170939515022306 0.939829222501904
Ni 9.03584894619614 1.4233921978687316 10.987209088034326 1.4152051139777433 -1.3246919982878347 -0.8418858757861952
Ni 6.376111851022967 0.5414452959953412 7.354361865281423 -0.4323240545916877 -0.6316596258036541 1.3723232270125525
Ni 7.0100649766578025 8.898625668086444 11.42706218918699 1.0469598921438354 0.6418183115042109 -0.7650001210717341
Ni 6.580629793102299 4.223170713641639 7.658829927674103 1.013211592048797 0.5092545465011553 -0.5006146114379701
Ni 1.3802083085360897 8.825888121072325 2.847158306146272 1.0564950853277806 -0.10653288815693265 -0.23211636518741316
Ni 5.256747495903047 8.197912036208844 9.134924152991342 0.06991189449978928 0.019484333976856765 -0.38173245768706515
Ni 4.146086227884715 2.1679988595094732 2.796207026695663 0.25266076499766804 -0.42736002571819304 -1.0801888294002946
Ni 1.4254367326164064 6.527075876175594 10.44816197604031 -0.45727609655133505 0.009729568582938082 0.2362913225007092
Ni 0.759392700097461 0.6865114830740453 13.19620823692746 0.5042781763324864 1.0508160326651323 -1.7965837878698157
Ni 0.3916969401521425 5.856901330889388 12.738359546148866 0.23631909041485105 0.6825301874012761 -1.512802390207943
Ni 8.223671332106349 9.053411683870985 2.9801037176330185 -1.424512507421598 -0.3522707007825224 0.7627534911294025
Ni 0.9891035466914944 3.872892179438673 0.31214427731244077 1.9787299917866887 -0.07748636441293752 1.8599118585045
Ni 7.42988532112965 9.006286078898682 5.45866003762149 0.4024370372242682 0.13227117346330122 -1.0157073618874572
Ni 4.4422214297382245 6.922030257500046 4.995932092296417 0.6923163202537626 -0.855925641708713 0.7216886027682925
Ni 3.744436455742429 4.5869229160241 1.3460774717122956 -1.7850814436571707 -0.24903499531962273 0.08526832235120155
Ni 1.200952343091316 1.0636553880537756 8.780797841231715 0.17477819358757643 0.11598657737066477 -0.16221192688679162
Ni 3.4717028880954124 1.9819461974710786 4.957799677329089 2.881037820304367 1.42801897791296 -0.3527697519061279
Ni 1.2715624688139362 6.289633556965918 1.5113016662491543 0.008437332134075791 -0.5574429332809238 0.7214122091784544
Ni 7.806309955101301 8.242790494881902 8.947846460694315 -0.1631328960391642 -0.02550945712501413 -0.26618451051571573
P 1.8629855878507464 3.124767444493374 9.421720804240605 1.1146727221097772 -0.7178928831712862 0.11840444278353802
Ni 9.287805620191113 1.4919393696117162 1.9664132591583392 0.08025030031131986 2.1122198681484394 -0.9296895629647408
P 0.36727948530299903 7.909945763730053 11.818781232417486 -0.21924208032790632 1.125455414547578 -0.04744250975267958
Ni 7.184053041761721 7.0044563205256685 12.96993257709416 0.3860143728918707 -0.41643335150336025 0.6512971975289235
P 6.908998650887615 8.688581956418803 1.0255625744351633 -0.49544463720125637 -1.5410058492253524 1.5939428064337002
P 5.820689120853997 0.8098328458611519 4.183270973367649 -0.2718743618116415 2.141124724108248 0.6104950759108969
P 0.5452903106672069 0.7646431021679535 4.5587746457412495 -0.37554072705405644 -1.041912045307283 -0.5667220445900046
Ni 3.071987135309034 0.6395838848453235 12.715485622938058 1.7634093580003758 0.06614908502324737 -0.3303286492937924
Ni 2.3157487286848997 1.5705342323894442 1.0866573249267137 0.07668006646155827 1.9270819285930938 1.351193387012473
Ni 5.1551009643260866 8.180579538933511 13.288783296763611 -0.34913112671227614 1.1518953539066612 0.28766093522193686
Ni 4.526498625575931 2.1012015148027867 7.073980632524186 -0.07757198214820835 -0.8930042917285652 -0.5622298131466059
Ni 7.639348826990517 1.0233356892910743 -0.08714230736924541 -0.8368619402090426 -0.16003265984728565 0.11890272257619523
Ni 7.967496653992301 2.18398675285165 4.06800986648669 0.34511866311877337 -2.867166975859546 -1.1156093749914335
Ni 1.870095411387705 2.472330619585642 11.774341151465103 0.31151254502855386 0.06153704017253273 0.26032316663893235
Ni 3.8672190559946746 2.4336318132355115 10.410973546710986 -0.8678661019000409 0.48064999539058506 0.4056041220983401
Ni 5.021045794113688 1.5849933294788552 0.2933898153297169 0.46321560196422157 -1.074543715299375 0.08800500455607424
Ni 3.6907996522719 0.6966208785358584 8.850728297294973 0.3556753555886971 1.2123864693131832 -0.6309988522912036
Ni 6.167182502888969 6.063988755827283 9.046351592260322 0.24069433666441128 -1.2977311534282747 0.0712306133112128
Ni 8.272777004514463 4.2321961373025445 4.695723477294726 -1.63410780868836 1.6161329693774942 3.6573819056340104
Ni 2.1097296192007455 2.8929061525678903 6.979490893525684 0.23476151611974408 0.1424843665508772 1.5366815108183858
Ni 8.082064276789927 5.331842704608179 0.8946460413489247 0.07837776587895534 -2.2345953797645834 0.25909597910005056
Ni 2.2949810446488352 0.5760237201557886 6.073809890308905 -1.5256231961216953 -0.5473084159500832 2.024565304953249
Ni 6.741217866954564 2.5274685904609946 6.080833143455647 -0.4620879161176816 -0.3115341422951087 -0.6445115420656579
Ni 5.813293799221642 2.3789266943112435 9.17925740239835 1.6230376669171271 -1.0622895805223704 -0.048156247990252546
Ni 4.058226491430588 6.37240037578282 7.418967321384747 0.663982763416392 0.1739029900714747 0.8666363432579978
Ni 1.9037105097165907 5.221437828233747 8.377959107666344 2.0677451827748325 -0.7618176095786945 -0.5709525377315845
Ni 4.375000442696434 3.9308943408839663 8.30978124152418 -1.584921062551064 1.7517098101752606 2.7671975998527443
Ni 7.052935739047108 6.609566406513081 4.748494576863086 -0.19762990137476932 -0.24883830592778436 -0.3627584876877236
Ni 8.091273892770444 6.663912350414108 10.747521464448598 0.6547694723482401 -0.8471975178070957 -0.11608839305585168
Ni 6.120287138316179 3.676220830174743 3.5607607955886054 -0.11681472969891495 -0.767878985281426 0.3446748907131354
Ni 9.338458508083951 8.880160388045509 7.066971193801415 -0.16942567102641146 -0.2362645830278318 -0.40894115689137317
Ni 3.97714503233812 6.888562513026848 1.628530868065149 0.003119005244955919 0.24107460282196547 0.6866853472202302
P -0.1902485630791182 4.121155797425457 6.88462448123358 -0.32961311128400655 1.9280054688486277 -2.60493270824083
Ni 7.67988034692077 6.909965660565569 2.387395857166926 0.18777357740597983 -0.04546456009070235 -0.43479617028126405
P 0.7811918611233435 7.102446634558364 8.192943448387355 -0.5667166452733658 1.1929234754925648 -0.36202649461770553
Ni 5.81132294140181 8.161386699230116 3.301111329365108 -0.2511605263030578 0.23098225158296992 -1.1743696237497776
P 5.69450817230494 4.948124054779958 5.301896717285931 0.8595575820343454 0.45201304838018286 -0.2082336450325446
P 7.204829935413767 4.30735581331954 12.498659029100766 -0.6130636079690216 0.5835398874782918 -0.08483766257168614
P 7.5914680335078115 1.1239323246462563 9.661947190361195 -2.0750507152973103 -0.35989325032478664 -1.602010671043499
Ni 3.9082478951878765 9.267268176554559 1.6449212216256741 1.2162330967527828 -0.5627414626757018 1.5480833248974242
Ni 4.125392220776495 3.301656538631155 12.801240041179037 -0.7708115855471886 0.35391877790890663 -0.15260217171116947
Ni 0.3461231554725565 4.710930395201754 3.1464910866682163 2.084781055211197 0.4436140256832102 -2.6444870734946844
Ni 2.137588707541808 0.008923196923522461 10.782028974565996 -1.3003125410022056 0.2755512964425964 0.29576222417283254
Ni 3.721974202365949 4.321953054648659 3.710150897370162 0.03779598780185103 -0.21164009961093225 0.9696563331656654
Ni 0.13793886527138238 7.201007944781852 4.075774493719864 0.7473171019696743 -0.7224609621579429 0.7993603437191588
Ni 3.0707990948475477 4.733171617794702 11.35222577069091 -2.2406176746992634 0.27872043819919734 0.03529661841876502
Ni 1.4450716338868674 4.962702876877116 5.648339446433012 0.5804404226173617 0.6262479678697795 -0.14179248269017516
Ni 8.974826030709238 3.1025814795963096 8.578259966588195 -0.35795643831338997 -3.12356638196404 1.975427409776017
Ni 1.500016202826629 2.840089004919628 4.648869555993848 -0.49285270810436405 0.678187079941232 -2.4196906390074524
Ni 5.7892106534325904 6.814360637071827 11.13368803020444 -0.7631772089303824 1.5845042867286194 0.1986146338855418
Ni 2.658714827799335 7.926274412863509 8.953561027410226 0.09157266730267455 -1.232189362971723 -1.116554255403206
Ni 3.4826162830323244 8.936118014743126 4.26120734860277 0.5059679053300834 -0.36589420510322795 -0.9006204135129264
Ni 7.467129008154858 3.9282419714815773 10.30799162081685 -0.30432194081738556 0.2913332418672015 0.09905791993612617
Ni 8.837372512200028 5.35378921948975 8.719131173587776 -2.1041885132035314 1.6209866979253695 0.48543224727057693
Ni 6.103378283375951 2.400210116842217 11.821585560483554 0.7143437323674472 -0.33103004623619114 -0.4215418763745192
Ni 4.811398095933209 5.84661418983915 13.064367979358376 0.36190333877627995 -1.059715134926975 0.2385991446982794
Ni 5.285573593922064 4.603196307461673 10.933629384182876 0.7340011015870584 -1.2027000952633546 -0.43580275716890754
Ni 2.6218211061813865 6.259131308838446 3.606819006068766 -1.3152439655010575 1.4259708371346795 0.11012240528040389
Ni -0.023781070384889774 2.0887501139971287 6.180902067815145 -1.23641805634109 -1.0706986305216721 1.2734470840699292
Ni 2.269184910287408 8.165954668756452 0.6086358913043958 0.04922042758870878 -0.4645230079217355 -1.0154998738623415
Ni 3.5213611374623572 7.391619366730603 11.654173161189725 -0.8311995997169427 -0.16624007420957823 -0.22474552664463873
Ni 6.460904785355583 1.784878834719986 2.0550125277757023 0.5060103285322447 -1.3556902464415619 0.6955646519877312
Ni 5.704795313355176 5.786963507133344 2.908165565286008 -1.1602979761480599 0.1375254798837051 -0.3794999688121206
Ni 8.7377428865228 2.7364624059068556 12.637886319647823 -0.8041490233570537 2.391712151516655 0.35151299668089137
P 2.1421474674521637 3.3584982884629033 2.3816407681407017 -0.3580762517207059 0.12221944565425404 0.26980590931838694
Ni 3.9336664352941018 4.274284082333505 6.1864158649026795 -0.8331461819203523 0.217116035123839 -1.5135719213841157
P 7.934747259565585 3.380463222576435 2.0942233887743495 0.547735990405805 0.5946766208214016 0.19669556248595801
Ni 4.795916731469961 0.2533887692799414 11.210640818452843 -0.1977646271804207 0.39963607744036334 -0.8644257087599242
P 2.5694736489481302 5.95537054495307 13.158425787367392 0.26925569324187176 -0.005523758031706616 1.116400246323845
P 4.045517221377475 8.568009664001881 6.847004120914768 0.20596953158871625 -0.09381698325216102 0.28592826880154626
P 3.8398296580686186 6.036074409790337 9.795095213399511 0.7304234115381291 0.5443300500480496 -1.2031091577763153
Ni 8.819275616798313 6.374518587458338 6.358747120091703 0.5454633923215444 -0.02538938660738208 0.28044539131010415
