# total energy = -340891.24087898195 ev
CRYSTAL
PRIMVEC
9.10754068547235 0.00000000000000 0.00000000000000

0.00000000000000 9.10754068547235 0.00000000000000

0.00000000000000 0.00000000000000 13.32980639751402

PRIMCOORD
 96 1
Ni 6.164174920587727 1.909805783172572 11.458595170710497 2.4246922059871014 1.0646804493520503 0.25127956837942533
Ni 4.748972359555659 0.4760165527287455 6.096320098074321 -0.32036202499938377 -0.8321370239295476 0.04723887838230574
Ni 2.74947551387476 1.5626445402103075 5.047611357013698 0.019708534172520897 0.5675082879367258 -0.6996038550541113
Ni 3.4526505295269594 4.420864092097802 4.7215641260551955 -1.380507562595558 0.591472254951491 0.7690766051339529
Ni 5.198812018309848 4.2278479783956335 2.729998126965712 0.5996812731248446 0.293787616944965 -0.5616472011702586
Ni 7.507054499554542 5.984719935244097 2.790862001105704 -0.0596454795767747 1.2372235829615208 -0.9974784975842562
Ni 5.279131421260796 4.279961327265724 11.613314075045535 0.1603090534371239 2.356025496748323 0.0073523266000131435
Ni 5.653542426512349 7.835499746024665 12.517475213417066 -0.5809525863670898 0.31418469254407827 -0.10440067230527826
Ni 1.8586760487166682 6.357409615270827 0.5796011688374426 0.7657501118638812 0.48016637088594727 -0.24145641164141646
Ni 2.904959451643053 1.522498500046142 0.5351281360049479 0.5504618739774004 -0.39124399672192617 -0.8325008350268694
Ni 0.6026896957022739 9.207177369229024 4.668498128409885 0.4019621544703787 -0.09714501918412947 0.34831043058319366
Ni 8.513455981002052 2.2762294750793037 1.426969503838807 1.5792823762080481 0.26598704979292903 -0.6235246554013455
Ni 6.888415678277067 0.5417802838579212 4.693757893018622 -0.6768467638632536 0.6587161157008139 -0.5383856595391566
Ni 0.7763887152147434 7.420068376685227 2.748539258673109 0.1733147216681725 0.08167957655867868 -0.09539769747571958
Ni 7.580825580618458 3.8436372591657135 3.6977818136073926 0.8934292950811259 -1.1744480423961967 1.4164127611325992
Ni 7.824898568449554 3.9039382872798107 12.676312547734463 0.46701646376755057 -0.74849620987944 -0.7072186912868916
Ni 7.839734752530187 9.049935676072417 6.916183659641977 0.3525573787850057 0.07317102486703528 0.3497008831728171
Ni 7.076923559247552 0.4995012576215126 0.14134265905620114 -0.9508865087573302 0.40096173823032233 0.6693939071296342
Ni 1.5858232317297722 6.868697852288996 9.249526523530147 0.9161089960668286 -0.7047128941459025 -0.11902407864540794
Ni 0.11091800801890273 4.5936432499821915 1.3041078667202475 0.3388533989353519 1.1125363924930647 -0.03341894178007793
Ni 6.2491573844651835 2.245983331843098 7.061478080682577 0.2447289117451011 -0.45931421002728634 0.18261131647875
Ni 3.2569659063492686 4.266327338580207 0.30081752123464306 -0.07499830788376116 -1.4048163145442516 0.7435805177453775
Ni 5.78333399148048 5.672504326608036 4.673216745335715 0.31274821720786783 0.7904995508944191 0.4364607024678806
Ni 5.345753082740122 3.077265017402093 9.51406962022535 0.6831166560323655 -1.1260902199180993 -0.8891052137844752
P 0.42003432049619266 5.455289476808729 12.444760607094313 -0.5460256925829177 0.5592956702189464 0.4424773409756057
P 4.183093522550191 5.876130725426188 12.799813534222242 0.3526885050462313 1.6134662211786084 -2.166755794412791
P 2.4622874275551974 8.415595454331463 1.435980504777651 -0.2362864374047027 0.14469911481400885 0.4443460187532282
P 6.230140839124264 7.822230058974033 5.805304112326218 -0.22615474828733956 -0.5702382852733792 -0.023295994413463108
P 4.9080173458049385 1.1569400245222587 12.881258629224982 -1.3299568462312 -0.7458387176519349 0.9095881642291755
P 4.10380327171779 6.389140287669182 8.190219337156677 0.039318337983648415 0.268526271275015 -0.19937593753159857
P 4.88094062679222 1.0923038069530473 3.6621913653874456 -0.3748442152076641 -0.9928721091604963 0.2564423435272874
P 0.2047593769026397 5.540891253465487 3.993449931232957 0.17995125314808363 0.30750650919295425 -0.7983465577426638
Ni 1.5995118656605212 1.0987246232678696 2.6206001675183606 -0.8755734978466275 -0.46171716304182414 -0.21278809717244643
Ni 1.8583117470817845 6.692503366577574 4.933814455325128 -0.5591552879863402 -0.7148870064654268 -0.5038734846948999
Ni 5.9706761072193375 5.762760056650432 9.23558287845498 0.0012241022150882145 0.4806145141669594 -0.29550408541543943
Ni 8.820735302485442 2.4371688298299774 10.354366860493625 0.06914827686088736 0.16574205152723714 0.12335613036185852
Ni 2.403225024999704 5.388084932713588 7.140910409152584 -0.789439485061021 -0.20052727752722238 -0.005405487286287465
Ni 0.5690865129006166 -0.07698604299176305 9.21630858970738 0.15210954834546708 1.632088464265486 0.34290211508342877
Ni 1.5996666938553465 1.040827985944004 11.604783041510649 -0.05090655704188007 -0.08924093384570438 -1.0977594912942061
Ni 4.2481395794586465 6.793205446000255 1.4136925307554764 -0.2829208494337902 0.5537775686141946 -0.33862637052621036
Ni 5.770036981807231 8.202624718578548 8.186886887951578 -0.9291375471160128 -0.4261534070046016 -0.5363218350315924
Ni 4.953773631146309 2.8362977010083785 4.938120500649451 1.157455621603258 -1.1375521978111118 0.22362555410758259
Ni 0.6573941399504728 7.426780634307955 6.897414839412778 -0.2630832458825727 0.5792425456545185 0.4708191253430924
Ni 4.946624211561721 4.537713841486696 7.024087982386306 -0.12791598181839905 0.6427359382224737 0.3609281193472042
Ni 8.140210740982127 7.39187143014524 9.019933614931583 -0.8904622420330018 -1.0712503892600842 0.04998635922045585
Ni 4.665465317299481 0.32440878435561354 10.588051787206016 -0.6521145512238963 -0.4726757189358569 -0.24538402883059673
Ni 8.236832642094111 7.4872729207803665 4.871964234508689 -0.6439649255335684 -1.295748575780607 -0.5220360145365397
Ni 7.3094208626302235 6.069146839128357 6.8119979458357225 -0.7497830470116637 0.15037842458697329 0.3439989476920334
Ni 2.0864829685502144 4.901550991785756 2.615241290469224 1.2814614697339737 2.676159722007617 0.7593102697758084
Ni 2.3508020197399637 5.510617787606665 11.346877520603025 -0.3174397091462662 -1.082981047433451 0.5357716189550773
Ni 1.0463653707942338 3.283059010947802 3.9073527043527565 -0.5409948150272296 -0.4530702860001036 0.8784952994791129
Ni 3.4732882171431116 2.6226712223126736 2.730691210826078 0.782111326830724 0.13630780542652007 0.6379935384414819
Ni 1.17439007283318 3.341529423346609 8.187834072202277 -1.8652235005254008 0.6046172769738812 0.24205187913357024
Ni 3.400546288197742 2.783045909529278 7.610346763601245 1.4597908710079182 0.5221414297661524 -2.5216857871950316
Ni 3.974485298875007 6.834990843521397 5.945427271659646 1.029448879843266 1.1450248520390731 0.537094708641875
Ni 0.7624869648275877 7.551936460972194 11.758368967761198 1.093022233719537 -1.2216874349991347 -0.6952527771742671
P 0.08200065499593491 5.576729426797154 7.933301073679587 0.3450944947490573 0.5119405779737506 1.284279141688427
P 8.599722608142473 1.7335293295933016 8.098523704902403 -0.7292116506182151 -0.12186077676325464 0.5104390537275596
P 1.8354609270337146 3.5036345433289102 10.278440935259372 0.4778066124045191 0.25051209408578146 1.036171286168764
P 4.01309216463179 5.933380727348135 3.3570714418448278 -0.6657200578224729 1.3465016379637584 0.7806653384128168
P 7.100685133382831 4.025396452349981 10.54150405656286 0.12666231191695607 -0.09733450948711624 -0.8433274933287281
P 6.375551836688027 7.984253211088485 10.349928755826655 0.08316156042084388 -1.2570753275801252 0.05223247494215521
P 2.3351370494399717 8.729741861632407 5.945760607655566 1.140385810605165 -1.6704017580233876 -0.9635165388165148
P 7.165193845379833 4.15364884291073 1.5220376584780142 -1.6532620130193074 -0.7154297663427743 0.20314054678035337
Ni 5.513268082000443 3.223422833317367 0.3509681950467977 -0.271569686087029 -0.7770220852332748 0.24068328092081775
Ni 1.312815586548051 1.0655185292482354 7.12576821169865 -0.12174276312815165 0.8829433079481375 -0.11365021592800428
Ni 7.049837732693962 0.8483993086280847 9.385010301543334 -0.5139964320615148 0.35017807991955174 -0.5170709572217805
Ni 2.7942846149654352 1.725842565097259 9.402392043297715 -0.8391947021072773 -1.5519806030693015 1.7370869180557633
Ni 6.443694457492992 2.068878092044468 2.3498047440144703 -0.9981744952100164 -0.6501440577610867 0.9879618163430726
Ni 4.1053424461251735 6.907341148209267 10.632560339447913 0.5969636170833654 0.4084644743652707 -0.48297812930312944
Ni 8.633274788715248 6.913916792718914 0.6620225922216681 -1.0004478646252253 0.7311093818615602 -0.6796528658534812
Ni 7.417600233108891 3.9537838584727503 8.3573354261268 1.4146746953955702 -0.04605128583210779 -0.35697993333273365
Ni 3.119451146721606 8.350239741033356 12.555611219310764 0.229198934430302 -0.034517059940263134 0.1641626228552592
Ni 0.06086205263181779 5.072198985106074 10.204687158523114 0.07740048956735057 -0.6237318863161452 -0.4742219803770543
Ni 8.54191704622733 2.2906011745754595 5.903638231122157 -0.36312821232231657 -0.12019881567979944 -0.2506406492438457
Ni 3.622324015973966 2.8155871530652496 11.478083486668591 -1.245543672791442 -0.9340411550652172 0.5200274687469432
Ni 1.2102100310831034 3.2010911430990063 12.675339862369324 -0.31736874669901466 0.4612139981531605 -0.38968899352998043
Ni 3.0887223038191802 8.763348687450412 8.024317283384802 1.0791735007619025 -1.0646485676728503 0.08308057067126337
Ni 5.599971871102724 7.65588993248621 3.327000163393367 0.8024960611346631 0.207870605266171 1.1392028460406574
Ni 3.258332037480082 8.24227895153562 3.739117298609453 -0.1670941946797574 0.7660799843994741 -0.544920889554513
Ni 3.73176022709298 4.58160308094929 9.33984873862091 -1.7276854222362052 0.8034964773747195 0.4642507280969553
Ni 7.2029719249172555 6.065940984741382 11.34753144203764 0.7077537378547554 0.9859283308528116 -0.02324508657086964
Ni 0.6384012742158197 9.135136720930806 13.544150080845846 -0.10435284978647835 -0.12545620742399685 1.250628286403201
Ni 5.028774230227957 0.057954014831359965 1.6480568800169269 -1.27247674973686 1.5637284876338489 -1.1442812890048293
Ni 6.351425960917864 5.716247845416676 0.16611881324463038 -0.5203465426492587 0.0828730826461476 1.3527051956713092
Ni 8.069718374632162 8.822219831647592 11.439013957835508 -0.3652144054273839 0.7690902319807078 -0.522042442294443
Ni -0.00033151448774401687 4.561047361200987 6.015021634479623 0.21568701598679627 0.6784174507844831 -0.40282013159529984
Ni 8.078698409932041 9.181949481013339 2.2905802272314535 0.2440223725963797 -1.1495600209052654 1.0347324968397085
P 8.58876623647335 1.6841118128213501 3.7568997721622055 -0.3319147628339897 0.10489123878845161 -1.062314777333351
P 1.7104326059416854 3.1550798466132157 1.5694378549467982 -0.28494250784950925 -2.051252841546764 -0.5771830920223285
P 4.78818032301 1.2169860414919371 8.49697861805627 0.6399128669513817 -0.40018655062719466 -1.188687068813714
P 8.599859221255555 1.6446033005182306 12.520407841577878 0.709378675052688 0.3819705418398002 -0.7166600392054497
P 6.579205558128795 7.683649717064336 1.2762934368968897 0.8683420130951949 -0.7636747173920913 0.442459857474109
P 1.9243596334861695 3.421366126631336 6.094027730036815 0.32950769605439384 -0.7176956795588155 -0.8373795032754096
P 6.599624664764017 4.06822010953054 5.750758139289194 1.765620763829398 -0.9088350881132349 1.0093742205805778
P 2.531905469981441 8.653120120275528 10.175694212910908 -0.5457243592924149 -0.10219209468973367 1.6229471640858502
