# total energy = -340859.2949535118 ev
CRYSTAL
PRIMVEC
9.37574851228651 0.00000000000000 0.00000000000000
0.00000000000000 9.37574851228651 0.00000000000000
0.00000000000000 0.00000000000000 13.72235566291565
PRIMCOORD
 96 1
Ni 8.513667194350313 2.298192852773127 6.413499526051064 -0.08965770966814882 -2.266612298990813 0.6411763070448376
Ni 3.5262846483081516 9.245931905196331 4.535046746009137 -3.031491835324282 0.4574416755949219 -0.4336039497453758
Ni 0.7865774844428515 1.1181517683989668 4.639473833015909 -0.38448533784185396 1.672838135379022 0.24469034519768182
Ni 3.8134075709599204 7.473343514409169 6.2711991029010115 1.5058159315877808 2.7909988160373995 0.5817385726034949
Ni 1.4042058557195474 4.752895075577144 10.660061053148594 -0.7991253448902172 0.5852530135146566 -0.22064641687460065
Ni 4.3562634102211995 6.030256429580528 4.176014644939713 0.9222811863158116 -0.2584714581421742 0.7938792659999296
Ni 0.837242154290867 9.351371573043178 8.925966673056681 -1.6073721924657283 1.3458964002795917 -0.36049154603041783
Ni 5.548202319466216 0.4831332587688713 11.890311145992737 -0.9345988273409 -1.3248982007613699 1.552544188882255
Ni 8.33908138117442 5.866030818518342 9.381549294801903 -0.07593701764794664 -3.3397424217721134 -1.1640391883580468
Ni 8.058305840270146 8.859172903031098 5.514918412223081 0.008727095460352711 0.4311074085757672 -0.18374491586256095
Ni 7.277446624849149 6.504106759740546 13.232357664179737 -0.37361779899973074 -0.01806534214214308 2.5946246414466025
Ni 1.0713011530485588 5.684666339163071 3.547311639512146 -0.01163681290797996 -0.6631242720708387 0.5073365035428359
Ni 6.409814856883021 7.1168963072064875 5.265405367181203 -2.3039460024442646 2.6947732233437462 -0.6533417387627781
Ni 4.229250145031691 7.8952146947787805 13.146483308342743 -1.5469085878630326 3.1267437512507565 -1.6329091603945682
Ni 5.373157094612881 4.075178469615791 9.42677790565849 0.26618785294982544 -0.6524390244428506 -0.721835412758802
Ni 5.400318638072984 5.010803165843107 1.1294364193166675 -0.7518185893844537 0.2793213050079899 0.1920855745177724
Ni 2.8041832488569387 7.195446328300287 3.0180947016217363 -0.058010515076512996 0.8394795803375479 -0.8891975163879654
Ni 6.0965710988567805 1.8033595974271543 8.193522885413946 0.603287245308548 1.7808738333337264 1.4872859911043934
Ni 0.07365400521707699 8.849065846127408 13.088341479050671 0.5974824657013129 -0.978012932660477 -1.000789050014728
Ni 7.3347605755469765 7.886504624404451 2.8631557694678116 0.503665482449152 0.3749596577396059 0.24725964858675478
Ni 1.327221584628453 2.283332291370206 7.8803644466992315 -1.1471223579980503 -2.3575105659342817 1.1186905850199187
Ni 3.5678942202363304 3.93959577027974 4.58259397947452 -1.1683468145944653 -0.7688832581762243 0.6971037143400769
Ni 8.308085156569968 6.232153798192832 4.8727396434488774 2.5825641107376427 -0.6402337406259103 -1.7668073279383314
Ni 9.35144657903133 4.152828418851748 7.6382882453827765 1.4318010706632116 1.6018615470601443 1.118309547531416
P 4.864241464991081 2.7683678895136214 0.14153536207088682 0.0009939884821531268 -0.7320262372488748 0.9148679245708761
P 1.9759296246714222 7.13220690453833 4.999081605044412 -0.5782572989231138 0.9552658687719484 -0.1307449666267619
P 5.547611647309506 7.3477084842519815 8.475256627816883 -0.20975393833181294 -0.3657332540453314 -0.07423469024485924
P 8.55646748634043 2.2930924455786856 2.6765596224388304 0.5208008565778579 -1.521524600572289 -0.007978390219786259
P 7.661702302159759 3.222332257064431 9.376417010062498 0.31205607623684967 1.1807919823363535 -1.2853057831807284
P 2.91130117568872 3.57626676366397 9.4548948378927 -0.08212977672221985 -0.3108126907480518 0.3480669471138199
P 7.437406270335102 8.753564471710908 12.71694651598384 -1.786166192080917 0.314302191958549 0.05198847725214918
P 7.992675600635793 0.6481501830060772 8.165584092401604 0.9099792290200072 -0.6611260106938872 -0.454326784115024
Ni 8.070681828315479 0.5646085134006591 10.80557267016647 -0.2069064415806888 -2.0993828642847716 -0.4778048126323061
Ni 6.54948538257344 2.157772267201172 10.857045529536839 -0.5080610404136863 1.9325231542133234 -0.735955397099952
Ni 8.535990851574514 6.756398776643512 11.325526368519917 -1.287742160536363 2.1999903880962046 0.6713296906997664
Ni 1.100581615673999 3.300413490732271 3.0517011346139324 0.5619709030582644 -0.5608360181228728 0.6180155526576582
Ni 3.5025265015605163 6.014261402606785 8.277462086756579 0.06850138730550782 0.1673399921419763 1.0164552957970752
Ni 2.3551036462846286 3.0335421848819593 0.847757993829994 1.042957970073294 0.7821123552719886 0.024112319667171377
Ni 6.70020054001947 2.630206859334792 1.7326673911672905 0.43112592051852844 1.6300066420357928 -3.664091713554018
Ni 9.07944673874102 6.9517424970409 6.88881434812978 0.3384960155959332 -0.12551354302449352 1.309698867313112
Ni 6.049195441589298 9.159018716423413 7.367972289526514 0.3277341490937388 -2.1302363593305187 -2.2290153145736453
Ni 6.164723414842795 7.309183533586618 11.570251218793041 -1.6677339813832377 1.5791152545025644 -2.2511663967493876
Ni 3.3782884579326886 1.1019410992092817 13.186717457963157 1.7613151944755085 0.2623293984356837 -0.6734994446575756
Ni 9.26731798756861 3.1069261685416834 0.7444091179029287 -0.9349878352492027 -0.7520638726260402 1.732649965330332
Ni 0.849815970629957 7.408069553218548 10.089334863839161 1.184336505154502 0.403958101854485 0.1794509164728974
Ni 3.889679285163556 1.4980102196540743 9.725211731323814 0.20750756549979746 0.7237804523003148 -0.07030784438662731
Ni 4.373271018035016 5.566981943750159 12.786271738109605 0.0870665519022049 -0.14838016321002187 0.5975459719493967
Ni 0.4493102459858823 8.236735710338909 3.672775093471432 -0.27609945563658256 -0.48594878189567925 0.623543681564739
Ni 4.009716993454785 1.028135206866194 6.776016592845072 -0.6919625364587696 0.46955722791153326 1.61516494903727
Ni 6.586969625153174 4.074915948657254 13.105316271744671 1.1310334228559875 0.05181724178160753 -1.2049541814048539
Ni 2.8312510348318494 3.561949995675162 7.085058140385011 1.6462796681642033 0.5190242242934093 -0.5223075230303714
Ni 2.7721650676638947 6.4235784557091975 0.6322592268408969 1.3304980634466503 -1.3016160903049776 0.5659679400327995
Ni 5.629546313618735 5.7777018917190235 6.872484606933902 -2.009279582438772 -0.6600386911669793 1.6381439264309468
Ni 7.165725205494445 4.087113797480724 7.247503296803402 -1.3817766591159688 -0.6655380237186538 0.2575623160643435
Ni 0.052343866407803044 2.591447514956448 10.536861842456691 0.38094672856097617 0.16252174481772655 0.1611248644701999
Ni 7.762707240957026 4.993664297550022 1.2899229818693994 0.29150139201394953 -0.5008449822812213 -0.1323501063303527
P 0.9617267801047493 6.009695413077937 8.597879229974854 0.771044270383285 -1.00791100577149 -1.6174601728293498
P 2.527261140594052 9.32901978857342 7.572846458293662 -0.8810808008181019 0.24782477706160544 0.24510943501297144
P 8.658184982025157 3.363587284254594 12.492503284907432 -0.37238855457831993 0.19684314380741583 -1.2154648511281907
P 4.870354453025595 7.087343947873991 1.095525274497598 1.490392397943859 -0.5069261554782947 3.1144464219406425
P 2.057836163735093 9.286828920237053 0.5308933217256409 0.6122313418757134 0.7237971644708632 0.033745986102193495
P 8.88959720697588 6.466172481231891 2.2780893727982727 -0.8591348926746301 0.986270544683579 0.9096388149614527
P 3.211690782495147 1.9656913072884636 3.950570083921456 0.05667122743979918 -0.8774694293177598 -1.0147444837535557
P 3.755887353794671 7.754147182559001 11.14717712988842 0.39626021898959496 -0.18579048553768004 0.2284684840221807
Ni 1.1141201965357137 7.698708381565013 1.374362848182956 -2.040610017120937 0.03704239746527814 0.4387662106726056
Ni 0.8209799184843266 5.153708324772648 1.036615571401804 1.6708385884504904 0.07956021622283072 2.9152072670972244
Ni 4.7201268345025635 3.434674209527116 11.802707902128805 0.989218057347677 -0.6625925679370847 -0.6872445621578099
Ni 9.305889816976572 5.515884114320557 12.86782387387925 -0.1216283490374744 -1.7206681103781076 -1.2105679280472055
Ni 7.836494381803075 7.934949117003121 8.981130764619058 -0.7125030796142826 1.7304149053522262 -0.6021557028072663
Ni 1.1187893192982719 8.80162455862029 6.158016941927016 -0.6490153434732822 -0.6152310479339856 -0.5544378279060128
Ni 4.958861519046778 8.143943927244454 3.070061662939068 1.1552015354617589 0.19863520271083213 -0.9869320895269776
Ni 1.6989137589233436 7.172775768380878 12.306044023806832 0.8287645079128888 -0.30777801768678603 0.16137246170463174
Ni 6.521995687915167 1.1042381575964841 3.133307649724989 -0.07540917016893464 -2.5957690394636908 2.27145728578794
Ni 8.541700682422702 0.35039422395869146 1.4189604711642017 -0.28466894247314845 0.5504888705605939 0.8669991259140551
Ni 3.711455681562215 5.620930000729596 10.624108807876896 -0.35798163512437053 -0.2527841779494098 -0.9216528087031932
Ni 5.3833860362473205 1.883559750260332 5.414800419235728 1.912575507446803 3.00894891702676 -1.9265615373132499
Ni 1.9435364135376103 0.6306869138142281 2.649045550834407 -0.7163617912387406 -0.11443697349535775 -0.5436348237532379
Ni 0.9758747846202116 1.5944679204195327 13.223973869853875 0.37601509558731366 -0.3484204737984967 -1.4211459049422106
Ni 8.1201764047483 3.4925507051360944 4.403174967936982 0.300519793462476 0.3279192685213514 0.09257848285936959
Ni 7.32727872822866 1.7100240209185873 13.231946068819743 0.4350663932235153 -0.8105731817158426 -0.25786364935484624
Ni 5.923232260233939 9.152268177489594 0.5941055558168925 0.957864225626744 -0.3986050650726877 0.7670246077009306
Ni 5.028654591023651 3.511424086905231 2.8093774135365717 -1.6189773808048247 -0.5591540024347595 1.2816550738020185
Ni 2.792397932968313 5.60822586148609 6.169090638503035 -1.5774913457458961 -1.599347008168407 -1.0786232846853874
Ni 2.6758386273777046 2.8220909285285978 11.719221549439649 -2.5947845640632345 0.2519539687386306 -0.5782488142826816
Ni 4.17604277218527 0.8864601461423711 1.8041471603027666 0.33667001813078795 1.2184033649312243 0.658350247720963
Ni 3.108398161059197 8.512485850036896 9.363284399111663 0.4715806860994653 -0.5983155031255696 -0.11836073402979616
Ni 5.7571877539590295 9.151752511321037 9.716237264841244 -0.3969922120596131 -0.2326069316705865 -0.02006283218814609
Ni 6.507538283698571 5.528100714641066 3.1759429285411676 0.11634473204103189 0.2822320508968817 0.2396486690087163
P 0.7645388499736362 0.47804785277206097 11.152570060436657 1.2715578374670167 0.07444629203503307 0.03994902958911185
P 3.0621569693625363 4.758623657922371 2.4272650323374503 -0.2144462016011597 0.2886127576122449 0.41524781583569126
P 0.8392663783961608 3.441996669120606 5.724335131147776 0.4197084227102062 -0.3670707419098323 -0.4064014211886549
P 2.0419161427495034 4.776681349570337 12.868070456065306 1.0775354509378474 0.11883484545273726 -0.35870745754680156
P 5.439115485445405 9.21084785423751 5.169513024051452 2.937624972670793 -1.442408670975729 0.05873633749894401
P 4.974031480150832 3.401184035816558 7.385742145694941 -0.5320579175489158 0.37871989611298645 -1.7519568931890601
P 5.8773004682384125 5.2599355554951055 11.099835225315605 0.6336871977566442 -0.36624078980936925 1.3074139279336774
P 6.655693861798859 4.8860869590408 5.213808747930379 -0.26382166671049406 -0.157218073216626 0.0654469167499002
