# total energy = -340876.4678201779 ev
CRYSTAL
PRIMVEC
9.15812940040378 0.00000000000000 0.00000000000000

0.00000000000000 9.15812940040378 0.00000000000000

0.00000000000000 0.00000000000000 13.40384809539573

PRIMCOORD
 96 1
Ni 3.400395038938446 3.2214543533817817 2.5459406729777867 0.17113519751835043 -0.4418129679187295 0.21836893369433358
Ni 3.810340374297111 4.318845495620299 0.3921071313908433 0.9324164749776007 0.22562252993295334 -1.1793053704884982
Ni 6.613826871180576 8.410935713366449 3.8369584766856897 -1.1347463529312005 0.019768697986494988 0.11878779426488574
Ni 7.491276383636156 7.67676513153854 11.329052681255373 0.07503867420339334 1.0661801738260284 -1.3285447963750217
Ni 4.473269869429423 1.8684873008187937 0.44430663594767195 -1.5001114250038359 0.37242275025036503 0.410222594706958
Ni 3.7040511273258923 8.317275526499772 3.4739018467869545 0.28282906105093225 -0.43391273923504625 -1.8007916553035759
Ni 7.702627688271843 7.125381649512331 5.88692967552745 -0.15704015287786502 2.157646375912355 -0.09997168999964717
Ni 7.229445471098921 3.3710432349971433 10.955822285678511 -0.07794119256216898 0.49150467871690195 -0.8136284236023987
Ni 3.804433380992231 0.7452317702211412 11.956031024577397 2.064354926146361 -1.3314133761720683 -2.4557323631223578
Ni 6.352920929687982 1.333222126105126 11.864577031024123 -0.907779907375843 -0.4227608363832848 0.36598753614798263
Ni 1.908590748387893 4.252879491317896 4.361048902204606 0.2146472618683723 -0.2583200201659745 0.22031731566995605
Ni 3.702888044923226 8.490611437013667 0.6509433356944412 0.574400901291501 0.5673969591698422 0.7071199609254983
Ni 1.1100476767305238 5.941482819277075 2.957961240402941 -0.9862782579930627 1.3382118871511406 1.2180140999126055
Ni 5.625774632921844 3.5166300141718345 1.9226210022531272 0.7254997489842667 0.12127379391153308 0.4921196865930815
Ni 0.2291464653964814 2.0591046010478946 10.177300715979483 1.5404808299598178 0.7809090789925067 0.794002164731039
Ni 6.738139316328546 3.4047451502870008 3.9695764291641944 -1.1557630643921837 0.010136574213369639 1.7905856613048516
Ni 3.215290932460566 5.3120812349806785 6.057882640835252 -0.038205564535443874 0.6158527406783846 0.8895497575210616
Ni 5.798130623616169 8.11546699244344 12.942983371524633 -0.5479054261041337 0.9669201651814252 -1.120269499471264
Ni 2.807140590416252 2.8745077884793475 11.698100559247212 -2.3367771900416723 0.45752060846197334 -0.2979522898456159
Ni 6.232711326401387 1.2592244425339174 5.117320797121923 0.47776753163646746 -0.688754056823801 0.6397408601498918
Ni 0.3133261569620551 5.520849947194698 0.8654954064697495 -0.8199407389736718 0.2286515465672643 -0.7804851040812107
Ni 2.889911761717809 1.5046256713673465 9.010535829580041 -1.333234488541207 0.44414161605190605 -1.6529442246685724
Ni 5.585936771098235 6.392612261445113 7.398039302336432 -0.1311044068487097 -0.28691505819484775 0.9549514228553231
Ni 1.1132255475472577 2.8475737306349256 2.7104994325096703 -0.622739954716521 0.46899441342952775 -0.8607606012035113
P 5.638696753159341 8.369440230165813 1.847841214452094 0.29963610530594204 0.369947292126679 -0.317181313278557
P 0.2090388770240871 7.790170244863078 7.46398607456761 1.3775968167066661 0.2628263926767603 -2.947295920101653
P 5.726999434470429 8.854784442856378 10.664155104167683 -2.3491519095569418 -1.0139638968337892 2.2130824453934723
P 9.07605400136677 2.157527015075095 4.5112925900545395 -0.4016981021757146 0.2856225646356694 -0.008158110330760143
P 2.2876915047530146 0.5207330553707475 6.761517272622138 0.711084087779569 -0.25501846659656724 -0.15563478788990615
P 3.7795507440784966 6.571397258806145 12.807765426179065 -0.34097790147752244 -0.29536884538915587 -0.08550974893804628
P 2.9946716011201677 6.3159587204189975 3.9479559178554187 0.39527034427249985 -0.5060681783533736 0.3278696462303386
P 3.2467399479783294 6.449447610980128 8.400070508937132 2.024037457474237 0.8910479393331429 -0.37037460947208467
Ni 4.306042431061815 4.223472738601665 9.765761866147873 -0.672400555166442 -0.04844035488957464 0.7696509895801842
Ni 5.312374295113634 6.352893455300517 0.9329358695660838 0.9847965312412137 -0.9831289137308037 1.1397147526800693
Ni 5.050470117543161 1.830014000239258 9.625007831728198 1.2495854469609833 1.035299682197088 1.5103511004539731
Ni 6.524736590762171 4.252568114926631 8.868200186255322 -0.5532240101035698 0.2916011508166074 -1.234486386536016
Ni 6.3972004841516945 3.494476499746246 13.180378563850889 -0.00728033571149714 0.26989538370839966 0.028063333895119412
Ni 4.005216204583219 8.423995205541269 7.267767662547401 -1.0650548019723336 -0.8751469518321702 -0.6259355788356832
Ni 7.939502698862104 8.365254965142045 0.5485994107631329 0.9304261840204493 -0.7953221690940432 0.41579726058125804
Ni 7.5727287843394135 1.3821173776628837 3.1347845664990035 1.0273644865104112 -0.1450456995201502 -0.46450809552340006
Ni 8.549754635095704 4.393108764936999 3.5258147019012362 2.4212507844057205 -0.46200924036094626 -0.4046908662554514
Ni 3.3041431015209453 6.246182934388176 10.606223526572833 -0.9890535067453547 -0.9688114686668671 0.6832020166573202
Ni 5.030047489527839 6.790413917544443 5.168831610366306 -0.36357429872079966 1.2713619194061268 0.054748813606105715
Ni 1.795790071587574 5.180433128379673 12.345305546620644 2.072673730424701 1.861555050534878 0.0025875582215181244
Ni 5.439827978561717 5.399229992018255 11.917146523998808 -1.7245851860443264 -0.6085520932519132 -0.9645310961239583
Ni 0.3376135154807241 8.665907187166699 9.4907817117701 1.3403492452091175 0.7479670768488472 -0.3868877766357595
Ni 0.6016432948280389 5.995094507349583 5.443155126883674 0.4182110122290733 0.04634336315122987 0.06797893914313453
Ni 1.224212914774916 5.911856271461128 8.011305178874895 -0.783998773661424 1.794371096489213 -1.4193150223810589
Ni 6.048834409230257 1.7745706863357804 7.317428533702505 -0.6083734015822039 0.0216304337855821 1.9382806255223908
Ni 2.1819334292727772 7.997162280021056 12.160412992926242 0.31320998733563477 0.035857633128557595 -0.5231228198428152
Ni 5.434104147839935 6.769112109130257 9.857296451237707 0.9562788834174949 -0.4207944566855334 -0.45639215128448496
Ni 1.7126342588615127 0.9549181269764764 3.9701121797197527 0.5056593729507292 -0.7163880164909855 0.8220441584699199
Ni 1.4690646558590539 8.247975963185002 1.348105001794677 -1.3242438550068225 -1.8962734278526696 -0.18544518638311933
Ni 7.834871073267913 2.8016273966650305 6.262572322323699 1.508861917502956 0.4543440105062046 -0.14420674855862262
Ni 7.897677523011892 0.21689014114854221 7.544073914026796 0.17951699382414243 -0.08246222036097411 -1.1667151925283132
Ni 5.252324442245266 1.1073551867589972 2.9881061383290537 -1.15145646659703 0.21694762786677474 -1.4068955656707836
P 6.646530550392555 5.337778945389195 5.507131985533644 -0.005393403101429421 -0.14575840931645864 -2.128232184416296
P 1.1074834005671652 4.057820498448692 6.445333779363769 -0.8667926663302039 0.15774643491627027 -0.33424186830526953
P 0.25588179183824245 7.271636972115326 12.486997373465776 -0.8843728413058124 -1.9132527360194855 1.2778554975502703
P 2.4867159675462704 0.8829224104385185 1.942163534056667 0.8355936150195803 0.7001988083256329 -0.10996711064946223
P 6.128949723076908 8.482286697611906 6.477020906239558 -0.9408599777592636 1.1291881421171328 -0.7057261659017653
P 4.318763072457906 3.0754188258785025 7.913846200034785 0.0319302730496934 -0.1546369427530111 0.18950830070889943
P 8.679644380898978 8.280523954201348 2.839618979651021 0.38542713292983305 -0.1133941340531402 -0.5925606029196633
P 1.7330202543602147 4.111276498325566 10.30649993884448 -0.9481022611439736 1.157051444186304 1.193101910051958
Ni 3.456891537694731 8.427685931590675 9.848557764398146 0.3509008170181892 0.40278182215819663 -0.7146985446037045
Ni 5.459289003015779 3.773634592644462 6.1818141078103785 -1.142813189099735 -0.14176754298951066 -0.15894611165132627
Ni 0.21220667389875061 0.930035490062742 1.6492764897424117 -0.8996387663259474 0.5234709472108533 -0.5503009229195039
Ni 8.139241495729438 6.881308349406355 8.857745266012142 -2.323538065643579 0.7339849036371423 -1.159616376700003
Ni 3.8895307170991207 0.7946719304636127 5.099252724112314 0.7011210630295861 -0.43658565808151906 0.26591917266947107
Ni 7.4676758848041 5.865543612325038 12.6385415156557 1.8608371985322467 -0.8223097534264805 1.9752106657795208
Ni 2.288982800963849 7.906588382679564 5.439294975444905 -0.6094164981347375 -0.2194930199964478 0.2883816154380453
Ni 1.9941459909525254 1.1983320417833025 13.15335658796658 -1.6683394761777204 -0.04739545856482806 1.711719128714936
Ni 2.871980144832608 2.557068715713848 6.118588215751108 -0.06476506019152717 1.7815952848807834 0.7300346607401427
Ni 5.646288842228714 9.009813253189723 8.644100765836079 -0.20552987294813635 -1.5871964888488022 -1.9972385921138376
Ni 8.021797647447608 5.238697146062845 7.0663749075547 0.973986070889271 -1.8458672074859757 0.932713180282413
Ni 2.2383017142208947 3.975223331601076 8.283363890052268 1.6214207001389946 -2.0865106363077937 -0.441380251256685
Ni 8.93418542262895 4.541543722278849 9.256254845495143 -0.001902616339351562 -1.6933773929829545 0.8034846503001775
Ni 8.747707596777841 -0.10945887547171328 4.891600387842272 0.516304254259085 0.4977989963660459 0.2824608790782361
Ni -0.07038571743253483 0.16219229895826978 11.79104274878815 0.5745991333452363 1.4931632758207767 0.950282556624744
Ni 7.543441087302195 6.357912110077376 3.326406513496392 0.2506136526606523 0.038720556498649444 -0.32523066594559474
Ni 8.30041541072569 3.069621730123481 1.3165021297071116 -0.5851249725772245 0.7128139259864821 -0.3465798210453322
Ni 9.185603542317116 3.933526369559033 12.192555278821027 -0.7521836860333562 -0.8933668172743067 -0.027183502393327376
Ni 5.075270331294501 5.523423381487212 3.2609414588587597 -0.5859333274111328 -0.4291621119239383 -0.6015188405542157
Ni 7.434523457263534 0.5220692264144405 9.78974151152694 1.4150516191190146 1.8684620620673562 0.7765019510637466
Ni 0.6929983805864396 1.7788017420053224 7.407569251534972 -0.2200460642864404 0.7872553329255088 0.3742716305336457
Ni 2.8482880647090045 6.331142898557743 1.5414697407702338 1.1847203708564822 -0.7435820604072743 -0.2908455035975056
Ni 6.590785018226968 1.2208152488584656 0.8886242616503297 1.049661607345715 -0.5816714668109854 0.4297676067184211
Ni 0.7526663394690505 6.3967517358231065 10.327584699597697 0.6951681878802609 0.3256996351622133 1.8424993194550074
P 7.443241996218953 5.760325866464938 10.378960888343505 -1.480987045469559 -2.776451000130212 1.5501672040096464
P 1.803620272014973 3.8605360801948576 0.7880350342650911 -0.9243573521185501 -0.1649905180731933 0.20677094444408906
P 4.723048683998872 2.830457187244506 4.231554787580822 -1.6629337317811168 -0.2814828314356829 0.6992040485125313
P 7.952186707741575 2.5718224617823155 8.714605538947628 -1.0544058068989197 -0.7413896807416457 -1.5926765381267667
P 7.218986887604078 5.13652905721131 1.4254454025074068 0.018282857469587868 -0.5757908396604922 0.3632284853456067
P 1.8679836037152768 0.5989965955022866 10.654785422229352 0.5443182229735077 -0.10202523009456622 1.3321080882462477
P 4.79798965487303 3.06997889716052 11.736757938222762 2.5079558392034484 0.1597318407774152 -0.09655649367051114
P 8.18918077401085 2.076541678958734 12.650082590016645 0.6198060688991777 -0.22529574272115396 0.8628434518744689
