# total energy = -381168.33920565655 ev
CRYSTAL
PRIMVEC
9.25577776949376 0.00000000000000 0.00000000000000

0.00000000000000 9.25577776949376 0.00000000000000

0.00000000000000 0.00000000000000 13.54676635400474

PRIMCOORD
 96 1
Ni 6.60346055094171 -0.040654152373845766 7.815738811399822 -0.031452562082326475 0.03607746244884754 0.5365210955265921
Ni 7.832516759629239 6.401508737394152 0.7860061954052334 0.2603841017838548 -0.9105435861639093 -0.8861001084095642
Ni 2.001737786521697 8.4918798511321 0.3176295976135573 -1.4735439589279526 -0.8722151228973559 -1.9143382557741804
Ni 3.3271466410238864 0.8314529894700332 6.811760902410908 0.794935989399218 -1.14054753299401 1.2009892832198348
Ni 8.787870366070338 2.508010314933831 11.476779302604557 -1.707170333001989 1.3675252914032772 0.7147548517629368
Ni 3.1917994037762605 0.4346291067345355 1.7612014124931035 0.7011138639407345 0.7045614561697027 0.5508981901838707
Ni 1.6221028085453162 2.381928111159834 10.19209957227555 0.9319567617323626 -0.14317959284568887 0.08006106711864922
Ni 9.467735005169692 1.3182171152324496 13.40365821027709 -0.681911837090987 -0.7215045117819445 1.3269609968276694
Ni 0.27450322701712787 5.020611495604845 10.016884923758235 -1.5350406327808532 -0.947461285125865 -0.3700408802817498
Ni 1.4543140704734459 6.891176400619782 11.887111067309501 1.030680952478154 2.390380320079109 -1.8589826618220116
Ni 1.4317762517838495 6.8443329097006655 9.056298100607856 1.6060858695541373 -0.3525977451046379 0.23577041700023266
Ni 4.830507077508081 0.6215032584154193 12.793389614828993 -0.03814720049368269 -0.9298800817089921 -0.5460226072591241
Ni 0.11979382840738025 1.423455307635206 4.213464178364331 0.29492173054940823 -0.401532780242444 0.5289733650863213
Ni 7.245774499928665 1.71005120821207 13.443594114301732 -1.7875103648136375 0.9741681049930899 0.46974106178756525
Ni 5.308151485506694 7.798594334373645 6.225118605109452 0.352549922585838 0.680160658727835 -0.5767346916310002
Ni 3.4194915350962085 5.82277272540056 12.820686754409838 -0.48802649036031426 0.5316856218111619 0.4306973176215421
Ni 4.900952801551825 5.02239786070016 1.0079699259091683 -0.2962275938450253 0.39706394583781296 -2.4038053352357633
Ni 9.08200046969169 5.483529961289229 12.248227085271859 -1.7877641326956566 -1.3339127455551543 0.23528910648843993
Ni 1.1507060504914572 5.949687949167191 0.430888846967609 1.306057928126415 -0.2712110171960297 0.43055822094051655
Ni 3.1518792345737023 7.4093796264819725 6.268278296505586 -1.3039020581256768 -1.0470863904193708 1.078972183384374
Ni 8.775569437512443 0.2918559590414628 1.8249931579512422 1.1721368777645167 -1.0643711456417475 0.1247902917052238
Ni 0.49973332146995736 5.060540920585099 2.440490342219771 0.14861439070801502 -0.8927767490987915 1.2138172882224385
Ni 4.725074513773709 2.3007086618780237 0.8448266626628865 0.22507385651833495 1.0298278604492395 -1.5551006367555218
Ni 8.490593298032366 0.08662574903400495 6.367440996428732 -0.5089316159440977 0.4765305739055729 -0.9040114414723464
P 2.824530144801646 5.402782556669911 2.758907606515252 -0.9452164549557464 -4.553878012565918 0.36106670180759753
Ni 6.426591894950129 3.872626643755992 12.21137983426435 0.4484559271565438 0.09689767906001377 0.14050667399921607
P 9.149965645312925 7.959867004947578 12.963117438328162 -0.5734477933496124 0.1296897858893702 0.30318165656535523
Ni 8.910564955207622 8.19212223467162 4.057174818501887 0.4130580072732241 0.6030157368147163 1.5101096738671285
P 5.327727455333592 0.6792463531492658 5.8960405360637935 -1.926776224427217 -0.6915655581306671 1.3218822967531814
P 6.682708519574287 3.6902508000353316 0.8186513233387885 0.06860037477721734 -0.2485295164381139 0.8663059565017726
P 1.2411442543584168 1.4789807180331067 7.9401392403664675 -0.9920154175871562 -1.8790357238181445 2.048422056966188
Ni 3.8977745917558413 7.658804323831972 11.178331378688052 -0.009100676749687552 1.1626111976622688 -0.10429705684787845
Ni 1.3965024829846495 6.329767204472977 4.422382815783618 1.3325341200400729 0.5831621924238989 0.20417721557498386
Ni 8.663944758499492 7.413294820447353 10.251461502528416 -0.19272526498430034 0.6271285707025199 1.1653843895320317
Ni 2.5511422389968783 5.012688549897127 6.574082712534819 1.6846659812518856 0.6255781954962646 -0.673010420836299
Ni 4.217247014708659 8.432976081875186 8.708701071548177 -0.9673788499853985 0.016842011258003255 -0.22375899436165334
Ni 4.1431730258081085 3.465372425134947 9.943759652071517 -0.20228154121416775 -1.2421359326614736 -0.25530385904747
Ni 1.1689306767747487 2.1886489613133646 2.239930597637681 0.21889446718050043 0.12295452404806566 -0.7098620424470098
Ni 7.277133074762485 5.514805234123786 10.810522507873763 0.1025772459432943 0.36030359838932785 -1.1937945652436086
Ni 2.3773187338672592 1.4164579396970807 13.079267267056652 2.9627443934462394 0.5466540701955359 -0.4038056354370207
Ni 3.1098024691679917 8.667674836910953 4.32893648416548 0.7541714058873463 0.5543928336006904 -0.21563585103388666
Ni 6.676812589181978 3.2509253116978796 4.036787116971056 -0.24573369886053165 0.6642136484802754 0.2505995115932652
Ni 0.7363878223328767 0.563236286663983 11.261711126484094 -0.6609167228965586 -2.2020634685751492 1.1550254148952108
Ni 0.4212063779198937 4.54677121223926 6.348976645503115 -1.2534971233105638 1.575397439331345 -1.6746867585519867
Ni 7.175791564769717 4.563116915650276 6.6448921886420145 1.4879830171714181 1.1083460085608008 0.6420350555007073
Ni 5.933601407531659 2.6862951049128894 6.26551452128558 -0.8181049713165136 -0.9488414533028434 -0.3653915544351965
Ni 4.952609296872826 5.532113538415181 7.036000628650273 -1.2835546048175765 -0.8482946075260165 -0.27679236793854917
Ni 6.954041642730557 0.7769253519077538 4.72771333599482 0.9282451172087305 -0.17245751587419975 -2.2653673708401176
Ni 6.701062726745322 7.440006994877814 3.966547796769931 -0.41421731768864795 0.2973151704822492 0.22032091521438182
Ni 9.001410413293204 3.7827252749953963 0.60334157142046 -0.654051620345609 -0.27955527539566694 -0.2778370071529796
Ni 4.126595927954693 3.6660006624719874 12.36337451327588 -0.2719399249422542 -1.089299533452311 -0.2878977338230913
Ni 4.1150076942793845 6.471121441445262 3.985065831206184 0.46958216761219773 0.25250135660166834 0.8815104321563527
Ni 6.212857476395649 1.8347543011093728 10.755861587112664 -0.10766160244473717 0.09300322910161402 1.1454639964590208
Ni 4.841364104745409 1.677665242054001 2.9207772747505736 2.1948834058869426 -3.6628023053186336 1.3860233502074646
Ni 3.6647048535945568 2.015251221957759 4.841207682102349 -0.5568824327917635 -0.08696370777575345 -0.07421206453703993
Ni 1.4557024371278358 9.011943488311175 6.08564051427613 -0.24686395581023293 0.7096203587498489 -0.4525956603565302
P 1.5309611655734656 8.981084725472936 3.0054583848906624 -1.5260865089113589 0.7632486855982662 -0.5562802804313903
Ni 6.593066312589178 5.370294776957187 2.4894348946758633 1.0601434807136452 -0.9431873403408595 0.8734561943933087
P 1.1769461802594268 3.1611257564919395 12.581951554720872 1.2082367088108676 1.399080954722371 -0.16177072558431493
Ni 1.9518861678514028 3.818295228680866 4.214629480776249 -0.09015213280606409 0.09125333629004283 -0.14027733159722938
P 3.447879005289634 1.049336773165601 11.047510216733738 -0.01904236134343172 0.32641825849579265 -0.38066005055849284
P 3.5839759605306303 6.180888020233897 8.841120706310578 0.27482573113048153 -0.18949056009708656 -0.17447891717960276
P 4.317190902269342 7.668356286414173 13.402235597245225 0.11803728925210638 1.0499048337047725 -0.0666519928015949
Ni 5.161364107026896 7.243488322837769 1.8225005770177274 0.15658969560400773 0.5693836505825677 0.17896266398256921
Ni 7.419190750839662 7.098043032123881 6.513407387426901 0.9982703973579324 0.07380685867882127 -0.7665888057150927
Ni 6.878292358067044 8.622284503090098 0.6890695100179594 -0.4816041317737383 0.24720565542036782 -0.02691173678917946
Ni 6.49545488100787 6.727599041399561 12.46305183443892 -1.5055205118345492 1.0305328569360641 0.6894716517161157
Ni 2.6942828410644792 7.19387735438757 2.0442208805682593 0.07785891726100784 2.408715113832555 -0.4998191121198683
Ni 8.198999277499698 2.6457825659377914 5.976033594800893 1.2808899135012197 -1.1136360533151466 -0.602381188554511
Ni 4.883607474149647 1.389671719045051 8.839400057236904 -0.8707848182087325 -0.7063026072305255 0.7195219341342769
Ni 2.162325529546132 4.757386433710211 11.093352232506152 1.228074312362085 -1.1902801243324468 0.7794348084398254
Ni 9.05098435863262 3.3657524897936226 8.076053856786853 -0.048880013530154524 -0.3737337557523048 1.3557516958071167
Ni 0.03482208684763849 8.713611261615869 8.374380530015543 0.4843624112451658 0.12154195997125518 0.14745173785848154
Ni 0.7682536137844342 6.920091450141876 6.784247177631978 -0.4022868847996491 -0.11622337597181918 -0.7504919001532301
Ni 4.4659682729537655 3.745480025546963 2.701103423648612 -1.402982346659306 2.1742148217939974 2.351407024139705
Ni 5.828030007131849 6.891935374390848 8.659255781518734 1.254543305186891 1.9002671223930951 1.057121663168186
Ni 8.407328321879755 5.778289457793907 4.554680274280434 -0.39488570723957156 -0.6070341139454901 -0.03663796293800787
Ni 1.8251560596386907 2.6841847875982165 6.419623219922862 0.12111412840521721 0.0072253141038456205 -0.962235358111246
Ni 4.704369339067908 5.493766851420931 10.772429429188382 0.6168025061861635 0.22208443487270785 -0.4543051868484692
Ni 7.643384198190547 2.0086333409051673 2.3513803424521775 -0.956732426015146 1.8934272166531263 -0.08131679390262124
Ni 2.5558719413994995 3.81168660340597 0.619619707654297 -0.3841122707731514 0.27367927623086413 1.0460895737237403
Ni 8.407207996769708 6.029917030235537 8.290025223250352 0.35414734897994493 0.11214252103422621 -0.11727264317193996
Ni 0.158056287824597 7.333833968927769 2.0090535532125626 1.033828239857884 0.5332928183972815 0.5771105869131802
Ni 6.038996948155246 5.4519029689022265 4.924086692325039 -0.541611622675622 0.2989190246342594 -0.3550724318973756
Ni 3.9942475626805494 3.012237316475164 7.557768254503168 -0.33267092427372386 1.3879146536929066 -0.5870098483047632
Ni 6.808744444459804 2.5255222463345364 8.387832877318813 -0.8842851666880126 -0.703818150245775 -1.8379124714152735
Ni 2.1323275540336133 9.12078217823765 9.712503120760864 0.6430462703740409 0.08495696175836981 -1.0989599393602105
Ni 6.479794105146351 4.859736823471836 8.807118681366799 -1.3942907324225795 -1.9238901611286738 -0.5020755122542128
P 8.858399392113345 3.618213082227886 3.924633933051669 0.5258065373225653 -0.4716279943976329 -0.019902395350881855
Ni 2.0513302434165053 3.9798548283633735 8.677204585626686 0.710288588461467 1.4339104036967305 -0.6753169574822886
P 4.572196833569987 3.8845295738729613 5.113782005047644 -0.8108349200176617 1.3819584361094714 0.16657483184117763
Ni 7.547225923707501 9.203556598172376 11.967985276083253 0.291368208870195 -0.6575650328155063 -1.0213149378822217
P 6.258173763994936 8.998513354874376 10.092530543711554 -0.02073620410608687 -0.9458193786470679 -0.8884480398164506
P 6.1242426607347875 9.046856281780233 2.74464260193028 0.07363305210511835 1.4097260931410431 -0.7102168546832672
P 7.521485605935111 3.4884841020416917 10.017468037753078 1.1656425282894247 0.6693309151021828 1.6835125843737329
Ni 8.54861776840817 1.4739178076334316 9.477398962662015 0.461076958354664 -1.7048990204693089 -0.44298256274679837
