# total energy = -340892.787476352 ev
CRYSTAL
PRIMVEC
9.07115887934276 0.00000000000000 0.00000000000000

0.00000000000000 9.07115887934276 0.00000000000000

0.00000000000000 0.00000000000000 13.27655794671270

PRIMCOORD
 96 1
Ni 6.522816358633699 1.8952190826184603 11.363963228553875 0.356050993760561 0.8909448380963753 0.6244139999848343
Ni 4.544079116201005 0.3711546296451823 6.1090617526531625 0.2466289569812914 -0.7903098034811163 -0.5353044495106716
Ni 2.637584583093885 1.5784542145058251 4.829440539384684 -0.08121240711427304 -0.14828194706926073 -0.3617930384506608
Ni 3.452918485605336 4.242689862391089 4.940247466459607 -0.26120865456767917 0.35955077938370333 -0.5051664924747107
Ni 5.171404179751904 4.239251893175318 3.0725938214476947 0.4199009983369865 0.4563286450364012 -0.6027997641491684
Ni 7.286689576815168 5.8726501170212995 2.7925517258316344 -0.5033492367603138 1.0558019159154979 -1.3926228578018534
Ni 4.8358166569619 4.600764788046248 11.465103928725567 1.25561725497736 0.9058330680621174 0.23234210804497404
Ni 5.632971957076509 8.123685406733633 12.415878397368258 -0.2332587063219725 -0.36762018665539914 0.6288712644252396
Ni 1.831258341350929 6.52146475596048 0.4628604174650992 0.751351419940048 0.2083498588954347 -1.2892251728397925
Ni 2.7446514713623107 1.6368634065383927 0.21517968115579186 1.5317743033247553 0.31161256094152784 0.6832074159739588
Ni 0.21556883387177214 0.06540396264544417 4.943738955512772 1.6557405564667869 0.1450086756346277 -0.04420343399009161
Ni 8.900258247348027 2.521219756972783 1.3690519544411253 -1.2249321671886775 0.0023844410717765384 0.4672838584963243
Ni 6.894661303469699 0.5865511114982219 4.949567175093596 -1.1295740647016417 0.6533605078158553 -1.3234853795742434
Ni 1.1135573218720178 7.542695822745144 2.548076737070752 -0.18083288442208856 -0.25953460929936595 0.6453191255686177
Ni 7.741281632960546 3.744284108852124 3.674605816142113 -0.159177510935842 -0.22604856172677842 -0.4775926966215
Ni 7.687335451097263 4.000480849118595 12.566407929181588 0.1251183644686039 -0.15006989220761896 0.487065926219258
Ni 7.803963340825904 -0.090126499058794 6.979406791080486 1.6552777578977558 -0.5171545180745223 1.0646269704062954
Ni 7.038157965802855 0.7058812994574116 0.6396074126753123 -0.057271837138275564 -0.9269251128457262 -1.2838307412970988
Ni 1.9270225656540532 6.471582453275732 9.063587184341968 0.17834019990722189 0.2617066772500203 -0.14918800382329792
Ni 0.10172851126715769 5.035599860149548 1.3632899543201302 -0.18377165533543835 -0.5859621237665392 0.1672561741789184
Ni 6.454800809346513 1.9768322990677551 6.908416808796332 -0.25806959471806523 0.1792897083046848 0.9431436315871176
Ni 3.288712367547635 4.288789491822601 0.1905832338508832 0.22350368381773764 0.308397653548656 -0.11073021406773188
Ni 6.359852989342649 5.54716786522435 4.919535289387396 -1.9007726012746038 1.227850626387053 0.17728373361824953
Ni 5.260546458072146 3.0431198120126552 9.40676001018798 1.3963170188239888 0.37357614712851794 0.6328649589656649
P 0.07364238914085927 5.857900412681346 12.491581753806802 0.6987474205910869 -0.5827379604022868 -0.09008914077861259
P 3.8373451278088115 6.3678991072697935 12.532911767898865 0.6960439056169948 -1.1492746284543627 1.4641522333004073
P 2.6141447085462604 8.698942018309546 1.352190484313755 -0.711900155922961 -0.5104452243751468 0.5368954481468753
P 6.270656284069123 7.848584371359869 5.97333544501718 -0.3052598792506227 -1.5148965537328103 -0.6973361420658571
P 4.931508311993979 1.2458329606697969 12.60429906694199 -0.8034748801081646 -1.3482777560275747 0.3506197954426607
P 4.027957389368113 6.174021228513455 8.161060395553728 -0.3477339892544334 0.23119719580725343 0.4661250623015327
P 4.930102282367477 0.8299566106270745 3.7852530908207354 -0.31955084195199807 -0.4260814161160855 0.6777173393936651
P 0.18103221066543665 5.751758782618748 3.6929413495875907 1.9178359845147939 -1.5873132169323243 -1.8049810107945752
Ni 1.5887318375176125 1.1885939481328345 2.6451281588190416 -0.7476323192172479 -0.8680337378261567 -0.16256751045399745
Ni 2.1818767744061858 6.380045389010997 4.702676536722794 -1.9045531513629583 0.2529029629154612 -0.09442864869423093
Ni 5.885658158856164 5.74505519620594 9.354118260971735 -0.44238863791654137 0.6685827240822485 -0.2634928226161656
Ni 8.6914129564386 2.404455799860932 10.3343794386719 0.5816493553237982 0.748204389670634 0.19150321965174114
Ni 2.376199139947677 5.03630741054224 6.967404740765485 -0.9156369415264167 0.9557546354829088 0.0887169430214343
Ni 0.6140004382710981 0.0924850003677655 9.245529232243134 -0.04648323116320382 -0.3772140009914213 -0.21069907585390166
Ni 1.50151264488007 1.0203239508965978 11.429682867528365 -0.4556365040653831 0.7658524417697005 -0.6201171723816933
Ni 3.949618861274736 6.853886444301135 1.7538468856951557 0.641376853091418 0.07197546189703734 -0.9447559703795599
Ni 5.63449591176846 8.184589167458382 8.024803425123228 -1.109597878690031 -0.2575911124197499 0.9657958217689949
Ni 5.003460744235372 2.5906413358864713 4.965300193056212 1.5671506259415204 0.0623515656540281 -0.07629440098736538
Ni 0.7361825985823672 7.387080092147428 6.910010611411664 0.1622332670430303 0.26622204862187054 -0.3556812691259681
Ni 4.960037106673653 4.451517010982754 7.07203783710623 0.38887755337227864 0.0217985839323302 -0.04473693789605843
Ni 8.35080001162871 7.2077432810767865 9.27067539177621 -0.10591839450138534 0.21981697899476982 -0.17425960207994504
Ni 4.733312561610446 0.2697644726042733 10.465273539972154 -0.14180585242661384 0.6874001138990679 -0.7411492825960655
Ni 8.217717039690552 7.037486700045686 4.855078355729093 -0.8828548619993892 2.1706353319728557 1.1588033938804043
Ni 7.273164478924104 6.225164422282613 7.276336663184671 -0.18602702702851834 0.5349416668546142 -0.9800587594459123
Ni 2.4305444528017093 5.1293775006578075 2.391851424596255 0.040955873587071395 -0.16034144933695613 1.1361476041541014
Ni 2.3150776714097927 5.091695906667548 11.2496258064426 0.15224993057807326 1.0908709917044892 0.7735079014324292
Ni 1.2344214427979272 3.369100977548041 3.706522688663714 -0.5501728819820718 0.639251579218299 0.4818663842961895
Ni 3.7594873711361094 2.366393217197684 2.743893122479888 -0.6969764447335932 0.44541688321990386 -0.14425817062184834
Ni 0.7890565694659561 3.3126874404692184 8.160117902146027 0.3135573433727245 1.1113022629756475 -0.34464532302678064
Ni 3.5701813564556235 2.3924093008674157 6.916356794164573 -0.26486887702808576 1.2652046415554792 0.24033901020752158
Ni 4.081214163156465 6.738147528142798 6.02539301160151 1.129420569842913 0.9632105775403217 0.15404661746717985
Ni 1.0257666462249937 7.534840199154493 11.226644025418448 -0.8158210603783432 -0.8334907097439646 0.4719244425921292
P 0.19835630989572045 5.545562270102473 7.996231995996813 0.038079837590856994 0.20094739578377652 -0.6822224263528702
P 8.556642748948638 1.646741898559431 8.189193687706206 0.4064194189107839 0.24111136959717186 -1.4973248633976342
P 1.814603693646038 3.219109365456333 10.445132845909425 -1.3134660476650282 -0.5458426300378341 -0.7515172560939509
P 4.158681859997299 6.051896216503134 3.806124013173357 -0.004180356629934736 -0.19885631758270267 -0.15032777385469595
P 7.100885029462616 4.226107783957242 10.47347840317971 -1.3387461623880557 -0.843383029157012 -0.2419032693708479
P 6.452251813701047 7.886665096340878 10.130903366703935 -0.570077848436115 -0.146151016769187 0.40450857504131627
P 2.3679806700017996 8.615006585186803 5.618771964964725 -0.6640526974223789 -1.040050566618512 0.857361088603659
P 6.727897118607652 3.9817398348711515 1.4159580098971283 1.6734148338180987 0.29019527160801634 1.2466479615992143
Ni 5.12046055147812 2.7632382759087823 0.8096617068633745 -0.5680587611235572 0.03070385684176002 -0.8594773636157134
Ni 1.3533715492000171 1.0618426450933771 6.931120105242846 -0.9689215118821699 0.6737868939910073 -0.04733555186117009
Ni 6.974895703769134 0.892602940972798 9.20324402512094 -1.498516312602574 -0.7723213373234956 0.8929752382628428
Ni 2.496899980013734 1.6914536406822023 8.979732484533262 0.651659980184981 -0.5874279096787883 1.4250673514838037
Ni 6.458891902001691 1.7897850029485531 2.5558833764034476 0.3841264118405385 1.032138767970603 1.1150810132917892
Ni 3.86909418389112 6.8996322985363 10.466388385398588 0.9243635227661371 0.20785003644088076 -0.6223638023240249
Ni 8.564951930483323 7.371332560330603 0.6805373886607365 -1.1890115420326683 0.23432237169979647 -0.34954430299029476
Ni 7.245179953777269 4.034425125650023 8.207766885514356 1.2774258662120193 -0.8824869371370091 0.2659204582210517
Ni 2.9600007831891713 8.435551849050713 12.434080584778188 1.2848936353439742 -0.2293480584136566 0.17210501763078745
Ni 0.1525923133427925 5.048580688507772 10.10719135738989 -0.317541267721137 -0.9126500909839507 0.8331214993300039
Ni 8.656969766168734 2.430934512633577 5.440481058513024 0.4157288692371679 -0.036387794600414754 1.6105673023642588
Ni 3.6623806153186482 2.592283215643871 11.308918529350144 0.3208741887491119 -0.545064614221229 0.15027455201925732
Ni 1.0803115245744002 3.328852245594554 12.598284888604116 -0.22417988394915586 0.21724896115727746 -0.011334451176212738
Ni 2.907496915587913 8.46026168584163 7.803270304287421 0.6373954998461667 -0.5572228468503178 0.6146036987626319
Ni 5.67753856065719 7.7331992303978785 3.571288037839064 0.10451945727132968 -0.1469442020944437 0.8452370516466152
Ni 3.2366439155726487 8.371609250100942 3.6471900526570953 0.3166822621549514 0.3792670268657081 -0.11963085899147138
Ni 3.2948535421098417 4.133282615131452 9.011171306981852 -0.477260767203378 0.48290973795903924 0.47234044708362527
Ni 7.267368008399362 6.272579369751822 11.407948370850306 -0.062224810268176715 -0.3653943826486739 0.6039793862795663
Ni 0.7819892295820342 0.29575062144969894 0.37954908007334476 -0.9182558672065024 -0.6733837450153176 0.08634484324483194
Ni 4.660788646359572 0.16996086125159154 1.700965657884462 1.0257650032337753 0.4320702867096688 -1.196652603517694
Ni 6.217345083327485 5.8958904260735485 0.5185210483568268 -0.7303593910694132 -0.03464432954674679 -1.2261256732761463
Ni 7.920300953470363 8.76376451967074 11.510045171168017 0.591430345969962 0.7169408036706619 0.2725302502280855
Ni -0.18405925638391277 4.9347648580321355 5.72778552392894 0.7550468665137642 -0.9287606233925683 0.9645454943016615
Ni 8.017262570745736 8.64455134966111 2.973510460110137 -0.2059214519596002 -0.8397724289876183 -1.233722768897114
P 8.468416657675343 1.5585158072861351 3.463243278643303 0.806844567911346 0.8791679000661051 -0.12610978184759572
P 1.9039818220971774 3.178815277708443 1.5744139203403793 0.3298545378708513 0.4779020003318027 -0.4662052807201648
P 4.650420311758978 1.341216196299933 8.394037690433374 0.8183389417041906 -1.8135844361928704 -0.6151914529453018
P 8.502814492150804 1.713106496930337 12.5798305229773 -0.034549198729779206 -0.2322770591349935 -0.9792907709316361
P 6.562629674960914 7.725742737797976 1.544223289353768 -0.6125164772162999 0.5599052787784874 -0.46757336471228506
P 1.711401119060773 3.256455326568009 6.001534956629488 -0.8720256325943692 -0.7633517868350337 -0.5958436445463093
P 6.845005779756968 3.8977409036362434 5.98682516538861 0.4811145937318295 -1.5112129342336362 0.1433927372977595
P 2.6010096704870653 8.619959437935643 10.152106293471588 -0.8321087417947733 0.624767269559195 -0.8232536053969887
