# total energy = -340895.16676995996 ev
CRYSTAL
PRIMVEC
9.09053147069127 0.00000000000000 0.00000000000000

0.00000000000000 9.09053147069127 0.00000000000000

0.00000000000000 0.00000000000000 13.30491169236509

PRIMCOORD
 96 1
Ni 6.635869843471899 1.9016482905683014 11.489789152178355 -1.2663163865624192 -0.5384021145993889 0.8178149508799206
Ni 4.692841453383224 0.38746754347029416 6.08711718055951 0.1335991482461054 0.1324274965355074 -1.2405156234492312
Ni 2.606209936729668 1.6666035073524021 4.8955157628772215 0.5032055120935979 -0.6046337320341135 0.18999321076511796
Ni 3.544825498170264 4.52188491744734 5.009938283233755 -0.010612485408523659 -0.49254109040121635 -0.23872358609128566
Ni 5.040636099154306 4.42483440284288 2.657535986796008 -0.21682678601819433 0.07313477231246114 0.2153237191101066
Ni 7.481407452586242 5.992896548420052 2.421520334812803 -0.5307399700684409 0.6266030372163531 0.2980209383000222
Ni 5.179384881882658 4.740139488929029 11.685184673077018 0.30667784264407183 -0.9752366554669204 -1.4164734391672056
Ni 5.531152089931949 7.779285989731144 12.575456787845964 -0.21550832431708689 0.46923352602352736 -0.7322092997939583
Ni 1.596160978533559 6.743019938605167 0.4925704509032144 0.7992485007316428 -0.508294239470415 -0.43598684815525557
Ni 2.797901975083384 1.4048961951617103 0.469545043593207 0.29216653640177426 0.8037070507236287 -0.32504837473145953
Ni 0.4285440192375962 9.173073555364319 4.90911337993842 -0.029485411053626637 0.06085029851815326 -0.11129457121163412
Ni 8.42732271084469 2.1673554366317886 1.3647378630788451 0.775537273157632 0.8057104543069027 -0.4918828879919271
Ni 7.031862487410165 0.9022270727828406 4.943905571259669 -0.42788890163846954 -1.0343622579844831 -0.2742112374749342
Ni 0.7247480804748418 7.559867830213734 2.690705518239316 0.11635784466715444 -0.29184669116851025 0.03307441395646562
Ni 7.878418236055765 4.027996339472409 3.9355529062468864 -0.703456396030982 -0.5915113357195426 -0.653563624965597
Ni 7.667417908734282 3.976562112080873 12.78768342787072 0.2473367816815934 -0.2833710495973314 -0.2942293324680739
Ni 8.157897537385809 8.991735632422225 7.097026144570071 -1.3784848757385744 -0.2450472143164683 -0.5066230224155791
Ni 6.776445823037596 0.6103946481579297 0.4569064776083267 0.3279814892178545 0.11666072061955392 -1.3631127641578782
Ni 1.8170336230956226 6.561718377789191 9.342070172702533 0.2795452480933379 0.4322677474324556 -1.0438583704003763
Ni 0.17623268043536175 4.780165099251569 1.3874360112538058 0.41454333356949896 -0.7021245645934359 -0.1729856204635279
Ni 6.476703726929232 2.009852887358944 7.060291306661057 0.2946728477633957 0.3229236150789729 -0.23110566453471165
Ni 3.5537705811948785 4.127274034301495 0.40083971534957125 -0.7977868285844518 0.5876359119245363 0.3501492835641453
Ni 6.048339700215911 5.697545179040233 4.7858303185004925 0.029114143757136956 -1.1508445440446438 -0.340431284945433
Ni 5.318542738529819 3.022410832257079 9.040540878095552 -0.3743762744323101 -0.0738006880312342 1.1186589604510346
P 0.15970154884972929 5.606439872055791 12.477306318926486 -0.27638870474222726 -1.0909864342364306 1.105517023752438
P 3.8596124239592555 6.08265645673819 12.729128587132456 -0.7097111186914422 1.0288428708281507 0.23915090343669135
P 2.36976521165829 8.573116655508079 1.5574334961133713 0.6103696060766262 -0.6993760553140214 -1.219750622987738
P 6.325637273978977 7.8596462884482134 5.72399953484301 1.2625507488724 0.408732897535309 1.410849665222525
P 4.752993500511148 1.0475019480959196 12.577532156194055 0.3509938909526278 -1.0189209837287483 0.4136645305089715
P 4.020923905942785 6.319946601241773 8.054221843402955 -0.12997080746489875 -0.8378428160650732 0.7823702369190655
P 4.661460938544838 1.0970998881185814 3.7631482486384202 0.43026845761423965 -0.2309136031285636 0.6462701766279774
P 0.4464905465823065 5.604112695984346 3.637389835465124 -1.5248984021405285 -0.4304764598599876 -0.3297105560938193
Ni 1.2843375660230476 1.0044764623687825 2.621852923384909 -0.37531421286554717 1.139440158862444 0.13215444537977883
Ni 1.9451464839349506 6.584171990666019 4.785271250811453 0.25606799090700416 0.5713831975110999 0.7658822665663714
Ni 5.967715776084499 5.668355482300357 9.151943523878124 0.33502168389408754 -0.136605539172597 0.7964709379865058
Ni 8.665749171789408 2.456388886598896 10.30152759577985 0.10880342935866423 -0.8726470682284521 -0.5550811179169666
Ni 2.2117445020882878 5.416420491503426 7.069351839436092 -0.11050884208554516 -0.37360597192518885 0.03353027054696161
Ni 0.5536624589912454 0.07092705414934299 9.225385928101563 0.09304385253156233 -0.24896814663742928 -0.2352358846530013
Ni 1.3229177818324642 1.169187803144188 11.278201576520093 0.7947896936293408 -0.5905440867102669 0.7233780746555735
Ni 4.17723559558532 6.897731694698585 1.5125826316551954 -0.7677648283010649 0.47159714115969753 0.38041039644153196
Ni 5.685409319448912 7.899290096446533 8.063547819698638 -0.051082677608428155 0.4538246476676248 -0.12587118347422838
Ni 5.341841770838852 2.7901841138151946 4.974533390087446 -0.49539578624119196 0.42111224503626826 -0.029169936695736857
Ni 0.907857748011953 7.616629109081312 7.156911839124193 0.022949666817637895 -0.7468494183046364 -0.5029514871012628
Ni 5.105478860551235 4.520030449015408 7.182962575327078 -0.2899232488935523 1.0213689310486087 -0.6873052401924163
Ni 8.331190339924666 7.141394301804053 9.244013336257801 -0.7287041148541772 0.8186145639630805 0.22538213178737312
Ni 4.618426362286173 0.023236307641482077 10.476606687764171 -0.25786853445085267 0.08921162326966571 0.21914309285619676
Ni 8.079346254443026 7.241226519056413 4.506786453630691 0.5177625839721663 -0.08018653695291997 0.5949491577564979
Ni 7.163602470329596 6.1596259871949135 6.995829438535196 0.3558077674015033 0.4513489324336227 0.11329848901554036
Ni 2.414963334420877 5.365240798994704 2.586940737047476 -0.2728362115042785 -0.589608719380191 -0.7588179035204221
Ni 2.268869402217028 5.116214778287079 11.473065301324306 -0.046050000280527144 0.5258669582468556 0.653143763819359
Ni 1.2717744514498588 3.4903459427164862 3.777650373586762 -0.5295672899165783 -0.2418258791656932 -0.08455561255489309
Ni 3.3125896891968503 2.5057141106756857 2.7580018140959446 1.4964434892339453 0.8501637995242715 -0.12136044008806841
Ni 1.2412938992328526 3.3028991825868506 8.345957908393657 -0.7618008974081462 0.8305817636272856 0.5168313304071486
Ni 3.6414123956667415 2.744222386404165 7.223050001264016 0.19289290091041617 -0.6712607851350441 -0.11997667236666433
Ni 4.289303668275822 6.904576864939982 5.8418537308517715 -0.5692612660720905 0.6575236380546096 0.6310006520634166
Ni 0.7950960677657826 7.23491769017523 11.314483705958958 -0.23721537697687536 0.7988088420910631 0.5370049771415462
P 0.013053094222606358 5.577359261694264 8.14665073177803 1.7916169307828436 -0.35743707547481024 -1.0339830202681937
P 8.644740953425702 1.6816937896906754 8.10438066922096 -0.6184919780734445 0.9561590700101791 0.2426666298994337
P 2.0304793033984274 3.1907765667071746 10.53034536489833 -1.117171834382547 -0.3979180663079921 -0.7446341558208724
P 3.977362078855432 6.293593150338969 3.727051566042748 0.7269256827975158 -0.6407646734287158 -0.1982423381477876
P 6.824434738979611 3.774061431739081 10.477033033692885 0.33464373172937856 1.3821450981989811 -0.7285750454754807
P 6.4199515385931845 7.760432227339832 10.247229850956654 -0.8953743346226385 -0.2415044912705325 0.016256571068178457
P 2.3857009134287677 8.622305521611933 5.669036363111885 -0.3821381777659161 0.16149484621510896 1.0226102596548776
P 6.942911636398114 3.9384182417848526 1.673159598691175 0.30607723294559547 0.2714539864447712 -0.16285547400806147
Ni 5.485372173151499 2.8522633536272837 0.3573351586108518 0.24932835819032548 -0.23200477931021332 0.25477524023750964
Ni 1.6106785573855005 1.2774014904663595 7.210929595576294 -0.3930463400379876 -1.3879586195569644 -0.9590351060063934
Ni 6.5857446526205505 0.9777775712678738 9.284167123074901 1.2584732363689164 -1.2481983368054694 -0.09121605529420419
Ni 2.907088349279167 1.4731115437559286 9.350651634465983 -0.22036282419591083 0.010578803957110812 0.10080601297548446
Ni 6.35496332869179 1.8995029251274387 2.696293467970242 0.39309930476311006 0.8993754853622318 -0.13290623594413886
Ni 4.09223912578842 6.579844897658178 10.44142905790609 -0.1052041420431801 1.088187531335055 0.34089639750730966
Ni 8.106817840723906 7.342895023677646 0.15942883290385684 0.028982246164962987 -0.20800096019644823 0.33134192104965515
Ni 7.701498311436804 3.9019288482271244 8.213281600726729 0.04535605953729608 -0.5067644330894499 0.026901709486850445
Ni 3.0133293912595276 8.464757519681443 12.555738515906237 0.6716955586796174 -0.7512382914009514 -0.41374217782444234
Ni -0.07938670279030509 4.7437211583514864 10.354148137535931 0.6111486503344958 0.7333925214687822 -0.2735584343822837
Ni 8.959718780376804 2.4524617769783337 5.720659673559226 -0.21411041552829577 -0.2816466107070569 0.5776446050397793
Ni 3.9038833125058767 2.760712610597916 11.534240942302405 -0.11644886171906396 -0.5288023867260958 -0.28366415535771794
Ni 1.2174767066266623 3.0943896609043366 12.650336405104152 -1.1399687776724046 0.7755079625815935 0.1851122285237328
Ni 3.191703800923141 8.358280123881325 7.670375058640693 -0.3653290766283772 -0.13754913403278893 1.3348208591917206
Ni 5.791404917077988 7.737224100346091 3.6367116818130545 -1.1832653835775107 1.1071918403516996 -1.3910711970440173
Ni 3.1065255204956586 8.592215862250676 3.597940564841527 0.8920671246262766 -0.5307947345657762 0.18053129402126972
Ni 3.295126778129487 4.49243159529312 9.249880365306671 0.6975647131368954 -0.08403085039967463 -0.1716116229341367
Ni 7.251580634468035 6.0565029975290265 11.427056303149325 -0.12553976827673863 0.4377609093365429 -0.02287896148070253
Ni 0.6869387417390913 9.133802459158693 0.2228398355849563 -0.4378483268440266 -0.445263131250859 0.1869909336036844
Ni 4.722676577861665 0.2951850126528358 1.6006471558431603 -0.9670353506030508 -0.16521111872443162 0.4767074658030694
Ni 5.874028758145798 5.6301388877521035 0.3861057818472379 1.0860146920534521 -0.44036852216271904 1.077146443029545
Ni 8.047983920667699 8.758508955512141 11.250579996468984 -0.06156789341046816 0.48544561700701555 0.2608517854488927
Ni -0.05745579547639894 4.904487208443271 5.909695458600145 0.6586333261790205 0.48489488670986813 0.24206293487716377
Ni 7.922280050683577 8.957209793674778 2.460556895304979 0.07087014464800052 -0.13803121587553 0.5527907792208933
P 8.559153599079412 1.7975798856233907 3.6017858596783277 -0.30935976035160917 -0.4487132945829885 0.45857964585410704
P 1.802379686270745 3.1466693077280774 1.4267789226585121 -0.6239797406608931 0.6481362833024386 0.5232315775065375
P 4.654497591393564 0.8856495794864098 8.227957354827277 0.9904280184953781 1.1590620468584298 0.08314433402966326
P 8.564007942915941 1.4451945214301232 12.453597303645491 -0.6018939645054473 1.051719261205692 0.27585237262278295
P 6.291775044033153 7.72823356466383 1.4158957383118975 0.7264225179088522 -0.4530376329899553 -0.0021856947974091393
P 1.9200929790408054 3.3515698883935467 6.095472288087887 -0.7808540573848552 0.7496809742161605 -0.299965977841535
P 6.862714967248568 4.096775301021431 6.0488651329382925 1.0192408289620125 -0.7305488813723999 -0.47375455382233245
P 2.350102391960889 8.561771672159786 10.412343902278797 0.8383956032447497 -0.6633425587292318 -0.6692378411677442
