# total energy = -340860.753445455 ev
CRYSTAL
PRIMVEC
9.34279646867244 0.00000000000000 0.00000000000000
0.00000000000000 9.34279646867244 0.00000000000000
0.00000000000000 0.00000000000000 13.67412701624425
PRIMCOORD
 96 1
Ni 4.398327066598804 3.668579905514671 13.559633356057768 1.4289754282889582 -3.2198140861448805 -1.6298086670923737
Ni 2.8453206927163595 1.9940984895313418 2.0199285194418417 0.27121564518172 -0.606776232298413 -1.8680249745299375
Ni 5.102559050019692 -0.028582417804894344 1.003042648819487 -1.946765780175267 -0.17837850934432503 1.7505134758743142
Ni 1.4745455675785506 6.1538385579659955 2.3529618489856143 -1.4103447005616485 -0.5721162190223824 0.6197240507083327
Ni 7.235426098259266 3.994260454091408 4.01155116785976 -0.17419995248660322 -0.1381487152900008 0.03569179697465466
Ni 2.720556986193116 6.385624000165722 0.16675770892557062 2.178571041880164 -2.3963414227585504 1.5317128539592009
Ni 5.53945624997075 1.7913224309436169 9.353184910028963 0.11160567469414973 0.24386630663448966 0.5795929870154017
Ni 1.2472913817562221 4.4185355357623335 7.1602520878183995 -0.6220532130621417 0.6234567782778876 -0.3834900638081202
Ni 7.2357530961421705 3.661516751243923 1.8281218384060816 0.8864868023250216 -1.5979503849311962 -2.50139155572237
Ni 4.265650011309259 3.781823943763004 10.107559683094172 1.2743909360404375 -0.04035192145448535 0.25817423861672956
Ni 8.76703746780307 7.997676848904156 6.6711417344844 0.11002238936742988 -0.5986849706498464 0.17109560252966663
Ni 7.027352673968479 1.43627747248201 0.5739550925918654 -0.09527248475176495 -0.9407113679965411 1.4109106003674474
Ni 9.33264103446554 3.2219848826363147 11.673178832460094 1.7808576353838101 0.005802979835022264 -0.2944383631550864
Ni 3.5350152845429554 6.45599394456688 10.164375098109083 -0.8850392712452178 0.5472330826274575 -0.7851192604191123
Ni 3.7234408074694776 0.7907967315428331 5.918913936090379 0.7525372127180331 -1.2747861145963273 -1.480543273063921
Ni 0.6558970249291995 8.430257676800869 2.5765471185617486 -0.8750685331857511 0.9421401300232678 0.6603112281020758
Ni 6.266867711891275 6.277415729314126 3.308933619700758 0.27932541877304795 0.06519546286072644 -0.7785511202832914
Ni 0.3736847720668583 5.283239394519692 0.3183389789656869 0.7749605747185556 -0.9673935052734177 -0.935270656596944
Ni 9.222069036060374 0.4407735262829814 12.928736720696154 -0.39390097472879904 1.2400638806237934 0.8424582033498975
Ni 1.1803689293205477 2.0466797491024677 7.6364534990149755 -0.6319051661555569 0.03810092063677954 0.5644692440000859
Ni 2.5292445391003753 0.36895918551904816 3.906124247572188 -0.10623772551401704 2.654016096031042 -1.5769820102096455
Ni 0.1654898914195646 6.466429848429877 8.602721965922965 0.6405319885926194 -0.5103266965194114 0.43768737578613004
Ni 6.331753434656284 5.288004220813451 5.688464513812237 0.46104661933736085 0.1692703763954698 1.3915144552290226
Ni 6.141926492231598 3.968203394222206 7.972576491412368 0.10899317677196711 0.8383670639996593 0.26234585349591594
P -0.035127046861321794 8.88996064338539 4.724533614627185 -0.6120287389466039 0.27745854076763826 0.269292202906762
P 2.3752285362521146 4.219814250922631 13.376810708284907 -0.6050659344755257 -0.24258795414269835 -0.07885007752968357
P 0.06677857336719603 4.990613660506324 10.30051459383876 -1.4904885572020912 1.2093196574624012 0.8902053888271894
P 4.718401937182883 2.5797610406108724 7.207700414907583 -0.310642997939407 -1.1279061900809157 1.0546073813867645
P 8.06225425937957 5.8072394876799915 7.344209885384774 -2.0232270457577997 -1.2207893486648975 -2.5172187525626133
P 4.746037929686684 5.067878588838451 4.191298166973983 -0.5452510192004223 -0.5668421151076367 -0.3451124924711863
P 1.9652012194791935 0.2440347828933484 1.2970520510173758 -0.13598641753135934 -1.4217457433097385 0.5343199741102153
P 5.321152463343364 2.7200057611905044 1.8317038666433898 -1.0804091729412169 -0.39049374881946297 -0.34876371607052836
Ni 0.9998193839737092 7.598197549554086 0.41154645550893143 -0.07000625398580847 2.0784039480402594 1.6162761798235776
Ni 6.70204583725792 4.721615859232007 10.406653435231398 -1.138128382029556 -0.9528374618361138 -0.35171585672031686
Ni 7.777308304216143 3.3698439824893067 6.166415830822187 0.5679381763852929 -0.7983085054158767 1.2556568499660439
Ni 5.521994563023623 5.1974351500454175 1.1562187342485144 1.7186572505956659 0.14849380596975073 -0.6133780538856468
Ni 6.34819675676808 8.985303883243837 11.098209112151558 -1.5189928352893711 0.5332462814300624 -0.38225130630501264
Ni 3.781842629356313 5.385627103055579 6.126419318344577 1.6075308295307797 0.27009901507877354 -1.948420285059554
Ni 1.8679427063065885 7.860141539354308 4.535735314114151 -0.23059170101277063 -4.5949886665632995 1.6129149766608286
Ni 7.490391018958631 8.419429375478385 3.25539939487088 0.01227264671976596 0.24367733055213517 0.4347437197767739
Ni 8.139986327544417 2.091226203550785 10.214327294701652 -1.6967301115052713 -1.7596645462459628 -0.6601970711217146
Ni 3.404814070366834 4.207780728831727 7.929722017438168 1.3832126202315467 -0.9610930169766869 0.7712155058538266
Ni 7.870708242370467 6.591286982919665 0.854052136291644 -1.7533630295079672 -0.07635353636007496 1.8720461798741885
Ni 3.887192004431653 3.0335967308964107 3.647737994737971 2.4300061620008475 1.391812960306048 -0.2054015749003882
Ni 6.288178631060028 6.990140314893889 8.031156760715303 0.11977638343040016 -0.09424532903883125 -0.4225985997738077
Ni 0.27695786402389044 9.169048665046489 8.767002899455447 -2.5302622160101325 -0.39503894498798414 0.32011545620621645
Ni 8.269524203158074 5.271308643191986 12.063999227870841 -0.4175813490648743 0.124580746797579 1.4175394185378747
Ni 8.825551403249756 7.41073433468297 12.682780124530991 -2.3428915304695264 0.3406421154046585 -2.8895342878111525
Ni 5.394474731487322 2.5442023565441154 5.219345876759383 2.1825912187831507 0.5886620391962055 0.4036318288633177
Ni 3.0429114991608763 8.510540328452377 13.329635190858033 1.0349533546012628 1.3467494923085064 -0.8294103690270037
Ni 7.626524909010315 0.7536749975957906 6.158663178158342 -0.17354663517332045 -0.22780899606131086 -0.0814026687482082
Ni 2.993815102741852 2.8696119640178748 5.807018997678947 -1.7317426230247144 1.8255140977509206 0.7572742131823861
Ni 3.3077517559239724 0.6324923850301898 10.921361182839203 0.6657514252810405 -1.0345103535265734 -0.4787386373004852
Ni 7.708862975925796 6.887098610592194 10.422091472423176 0.27862736426475887 1.4042743259978525 -0.6700533950905041
Ni 2.682111377960141 7.009788216258153 7.309956390010641 -0.9984933120020159 0.856593357199699 0.40495517566043165
Ni 3.4149042907536176 4.363898860927233 1.7697601905448608 -1.5707290873213982 1.337721320667967 1.0700885077414992
P 9.141403329746034 2.91917550026962 0.02511250312743945 -0.019392802704314985 -0.17625246414025775 1.7401771269453128
P 4.425514604863192 7.796124696678162 11.732442060198467 0.41646189074845047 1.022341322264207 -0.622242189144496
P 4.968489918028637 5.588776873509481 8.997398133512995 1.3930108372688912 -0.9114437293806754 -0.30805441127662425
P 7.9590630703314025 1.9181135243408716 7.996889251146189 0.17893978116443376 -0.6512866560059621 0.08727224015510776
P 1.9126012743147587 2.488304404160668 3.8703796418520082 -1.7444821820785699 0.6663728609151234 0.11258809321207708
P 6.0487227528070155 0.6063129345248145 4.616330949453582 -0.037834811459586455 -1.3652007570351585 -0.6194947083063459
P 4.635839643147696 7.027446101935024 1.3187123907810039 0.057249468540772376 2.8134905693820125 -0.9693781398036145
P 1.7861932355803354 7.5204935097792 9.366531095049815 0.6736660521424269 0.6545565850064856 1.1040404392069114
Ni 2.012158115464353 5.7418866250822616 11.676911279723539 -3.254410593172827 -0.30485261650987494 0.12592440530966698
Ni 7.372643752722863 1.4982669282841456 3.0439289297165435 -0.843249074682309 0.4766820118817726 0.845510617022976
Ni 3.5373976976898347 6.818503797555375 2.9713055027623367 0.2991313977553816 -0.8709419126118871 2.029139554587492
Ni 6.536837164017654 7.575700095210221 5.532168868580295 -0.1767944526866568 1.6084003766199266 -0.1457787210314328
Ni 1.860132128303486 4.300526671220242 9.60312060328925 -0.004223036942412082 -0.6931185044400836 -0.10073247942507169
Ni 1.15554511860973 8.35914965146401 11.470705480483973 1.7283631650295204 -0.6720799386022296 -0.8943178683336662
Ni 0.07938667745234784 4.574653667857841 4.917339040625303 -0.104578078423407 -0.17818053440090603 -1.2000066075915914
Ni 7.1272365130009785 3.2200415809321936 12.964302879000234 0.1440609670093777 2.063030808018299 -0.2704142323263472
Ni 4.18089216006028 5.44710270504172 12.122003980899862 2.1955287527804255 0.1118617565690138 0.2724639157665243
Ni 2.427566883110225 -0.014064646083577272 8.457106071546702 2.865512985195891 0.739128909731927 -0.1286824276707784
Ni 4.6946058341040535 8.487117937239724 9.287029501198617 -0.407713198021543 -0.6878361729952218 1.2685848708816216
Ni 1.1179310192789993 1.2383316397646247 10.656001466582122 -1.6492513491980176 0.2579556948480202 0.4897018211802083
Ni 0.9348215476488472 3.7977160408721877 2.0031638051251344 0.5725790175914138 0.482805094060375 1.2532904066163963
Ni 0.03982180218017232 1.7977876462284819 4.593221541928853 -0.22505688723747047 -0.12174070624562258 0.17622392489516744
Ni 9.434169205709217 1.7396847938345885 1.8552094087462674 0.11940820145770405 -2.2174008702631682 -0.6905767118548365
Ni 6.566874255261642 8.632678709115726 13.35632662662007 1.9365836974359423 -2.187602041734181 -1.1404084363129843
Ni 1.6527687565584364 0.11339352299480361 6.255803972093101 -1.9824961436973407 -0.19636209040593924 -0.20641330399435417
Ni 2.145115454653531 1.50825437790773 13.352019597362379 -0.5094877455578838 1.0886966097609896 -1.007997137727393
Ni 5.188746349156799 0.3246752636567206 7.462121584841659 1.4059224031242368 0.5566944851506734 -0.16342471624797017
Ni 2.7136806878554562 2.925584658774558 11.508077601381354 -0.5306646367458151 0.8958574449066443 1.1857760658145062
Ni 4.584379519175101 0.9994737004974953 12.775846524844754 1.0980631385775539 1.4143800469732866 -0.8876419989753874
Ni 8.647748640119321 3.897450395158216 8.593381972107533 -0.03710821770620706 0.7295062990404985 -0.32433977870020914
Ni 4.613117961684124 9.08036683920265 3.132181921193945 0.6739378177465749 -0.34268897063135817 1.5485898322201976
Ni 7.007499231077818 9.153240653107195 8.856130376699703 1.7887198117407064 0.6193322145865527 -0.24021585436609597
P 4.534629126990267 7.928484096881457 6.406095936194906 -0.22554616816906317 -0.7668299751916213 0.3725088822062681
P 1.8401292006663537 5.614703134225521 5.441085943996268 -0.3830023255384243 1.5938317347771325 -0.2702728216524765
P 8.44570131967064 9.126538940268837 10.994559191787658 0.6320357781961503 -0.24403805632566355 -1.0721955267821728
P 8.453390441317236 5.1659966393032635 2.5292351963037207 1.4724972628309931 1.6110408995665673 1.1781915685990292
P 5.915812127601109 2.396885138897081 11.552463359727215 -1.5446863834007334 -0.43858931877510915 -1.9011762644709256
P 2.5550680290532166 2.051566031752734 9.344214890961046 0.8119739187181113 1.2260552250495271 0.016514195604939302
P 8.254631785290915 8.882542462841773 1.2238176051619694 -0.494917818163509 -0.007542074013316044 -0.44994999520356693
P 6.2644946415410505 6.0985665729583936 12.860694066941615 0.7673591082222139 -0.0358000404177448 -0.3372006938232773
