# total energy = -340888.6236644078 ev
CRYSTAL
PRIMVEC
9.07850223277538 0.00000000000000 0.00000000000000
0.00000000000000 9.07850223277538 0.00000000000000
0.00000000000000 0.00000000000000 13.28730568673686
PRIMCOORD
 96 1
Ni 5.153666013207192 2.7592110387614723 9.6448827940719 -0.01612904435137867 0.044454887879265374 -1.3895467899796907
Ni 4.714221110693277 0.7330291404119829 6.0355589867868575 -0.1615897199217604 -1.3709029496262584 0.39412774602762446
Ni 2.6326657955811927 1.7749652148580315 5.106298019748735 0.9336518900465987 0.7410515806759367 -1.6049214169323909
Ni 3.8194439266880824 3.413780131131182 3.3090841193708016 -1.7552926424305126 -1.663703777177922 -0.5769324094641032
Ni 5.237923592800863 2.864821255700722 1.1217651606310577 -0.035386607029410024 0.30339634367932267 -0.7697234946893323
Ni 5.000212089290391 5.152785398486732 2.548226645942066 0.8298250879669193 -0.527295463163266 0.7662543051938093
Ni 5.217587747709835 4.902182421748914 11.90886698095459 0.12019624457663815 -0.1610065937247808 -1.155323919972236
Ni 5.634309159034982 8.244641839025135 12.555653981176071 -0.7030167373904022 -0.5211916642583734 0.5200917463259753
Ni 2.2591035840608424 5.392212738926758 11.52963433691466 -0.6749076378590119 -0.16206974488197248 0.6949509296631322
Ni 8.123126086103976 7.421530351961266 9.114467667383822 0.5563322167152485 0.5820471049828493 1.0523126718153166
Ni 7.848129173759197 9.111548021052897 7.145660995548074 0.33725700098250955 0.4633449284532342 0.3885255693494986
Ni 8.715153376316504 2.600509740531006 1.472167205003319 0.18738405527704502 0.2197892110806279 -0.7611421807782246
Ni 1.5326509106952613 1.6022376306161197 2.619777953754754 -0.3653252199736353 -0.4546610275259912 0.6598756832265539
Ni 1.7690369528739063 6.695558839216143 0.1997052615957048 0.23841299682940228 1.0457198490891473 1.7053646472518178
Ni 7.528320774195977 4.327731111936488 3.7756810064821464 1.8398657384869024 -0.4404749658335963 1.366333327977705
Ni 7.442710497763662 3.9045911995044853 12.819619605409194 0.760467009088071 0.5047168065318017 0.12962268009686065
Ni 4.517453652433043 0.27886435431298257 10.384228756365284 0.11970336410061967 0.3650231153521843 -0.026163288658929137
Ni 0.4914120652237619 0.26373866167630383 0.3882339790433902 -0.024232904405435685 -0.6283336467542147 0.13034156054075616
Ni 1.7219558400872694 6.838300130451063 9.319503825514103 0.6468733574296149 -0.5757972674183954 -0.20128575295980175
Ni 9.090304325734591 5.076498743888561 1.756143663946104 0.14930730300998155 -0.831229938734246 -1.166768928584384
Ni 6.31989949367078 2.3100339818111375 7.356224145862024 0.2067012675484182 -0.08759388516058463 -0.5294436198545205
Ni 3.5889952249958355 4.5432002848786475 0.351285382643403 -0.2176420828306381 -0.10970280124448203 0.13927691535717301
Ni 6.201670158572366 5.935297823386729 5.135304742360494 -1.3489495852836189 -0.7618944855632168 -0.7868213307118836
Ni 7.028040827952164 0.7569101406405305 0.4494049273573817 -0.06202632110412544 0.6455734076712688 0.5222460736648167
P -0.031181023906090108 5.730822716696906 12.882746970962971 0.13136537381958022 -0.5674427248061131 -1.6037783044668832
P 3.9265974890137043 6.580906434013205 13.15399446186909 0.7616769702357721 0.17352323813455278 -1.6969697383199032
P 2.2704880259109084 8.813836696021623 1.5019301668544012 0.3484896364735353 -0.5199315665990271 0.14306363609311493
P 6.579544658672288 7.936118017786981 5.906327414784061 -1.5257463519631207 0.8273480871813363 0.03969346193488003
P 4.711397696486443 1.244617269086771 12.845237323122525 -0.7349647510519084 0.17423440526896442 0.43893770325346343
P 4.088557969560099 6.250458029786286 8.401868788486503 0.3745541947710711 0.881614561834385 -0.14091573651217668
P 4.680276590695353 1.3623018940488176 3.9484421811824673 0.48247059353909166 1.1166966945183412 -0.23610028953582562
P 0.27259746419408254 5.718022028492286 3.7074905602108417 0.6470867589920017 -0.6693841369376213 1.1509705280995468
Ni 0.13351753292577512 -0.0630520139849115 4.846664656800182 0.1445826438408026 1.0068080025152983 0.4246215437411074
Ni 2.0194038885526324 6.782095122880282 4.866409491393251 -0.7548463204671838 -0.586957397800273 3.1855993879363846
Ni 6.860469833001191 0.8129789706772197 9.320593245786837 -0.10181337119407625 0.7371607302619627 -0.3702576242782462
Ni 8.473519959824191 2.7289796261931154 10.58739201947669 0.6620672915612339 -0.6856733610159482 -0.7079915648971742
Ni 3.7118727532579125 4.693676460049976 5.414457793045751 -0.17528392957940134 -0.2860732790198428 -0.8570535846655692
Ni 1.2764555765574104 1.2105910425683915 7.227205010812411 0.22828362170488428 0.9027641993288066 -0.06860320299069476
Ni 1.3215121833372172 1.3175539563462852 11.58744714723795 1.3069871248089038 0.18872514268597174 -1.1504894746980703
Ni 4.0981539464624275 7.256583044167127 2.0211324353853697 -0.07693409145389331 1.2282943987926909 -1.7862726357517944
Ni 5.56144509979365 7.992386574873672 8.290614466684266 -0.06331572933951031 0.8258375640740808 -0.8816772967515203
Ni 6.854605120532975 1.0759931678721557 4.909673093974184 -0.8516010461914301 -1.466269022533094 1.2321695654773812
Ni 0.8018895801510189 7.705569452569734 6.8884452377547625 -0.5049955141144852 -0.7077653078189811 1.229142091504967
Ni 5.215617712716642 4.676654268288513 7.436253866947261 0.26080936224673146 -0.28836670303970985 0.08172868462905926
Ni 0.4686213931181751 0.214489602546927 9.390989768110428 -0.11360933538773983 0.4035220427583308 -0.29554830838981355
Ni 6.260680423345437 2.027011673457222 11.641446986606674 0.5270905462413116 0.10325036075091895 -0.16719369637209916
Ni 8.353574787796223 6.8743508629762715 5.151701425315362 0.6113743931920568 1.2316041798922144 -1.278584662406811
Ni 7.593486263509992 6.226645118324784 7.188698543422414 -1.5178060140701213 -0.02265013329934809 0.8089593002615035
Ni 2.3752630206410617 5.67449968859658 2.5953032194775667 -0.5695597711491158 -1.8111948529147712 -0.7992148192802301
Ni 3.471265207522425 4.587004058344811 9.777397152496535 0.7521998839832723 -0.8053512711952711 -2.133584449867145
Ni 1.2905000195734009 3.660833413480343 3.8154366757848774 -0.7934447495656721 0.47263792371938607 0.5734238820902123
Ni 0.8361727282837179 7.53313238040055 11.336782436684677 -0.49759099412029784 0.45800577562850797 0.9037980399099597
Ni 2.4463023009255656 5.359521052242478 7.2801018121549905 0.05833730228831244 1.10922404029038 -0.09919007463861627
Ni 5.623732703887193 3.415368869028918 4.711133512070305 -0.10299582153795164 -1.1764488748763093 1.0600030984810391
Ni 4.3118618899636685 6.9462253654698705 6.172618043449243 0.04104894752150995 0.8711483721957384 0.20901628883484002
Ni 1.0097291797831345 7.61363146005329 3.148732349427143 -2.2803841559639246 1.425495697270474 -3.5424335397198736
P 0.4446759355234906 5.7266556841537 8.096685856084731 -1.0183121465001561 0.23063875220062213 0.29809678584328014
P 8.64581177595701 1.977424894043298 8.287969898972205 -1.2407519078297535 -1.066429056612041 0.11749401515412668
P 1.766331559196618 3.3915196435583255 10.458159539623669 -0.5162546319680722 0.2724896267981372 1.7785048188809178
P 3.790783095012916 6.469649388660286 3.97517655467535 2.9443993152801484 -0.35496598822649833 0.8688852871931746
P 6.773997098852962 4.017464218261959 10.44003521768629 -0.7848305255341 1.1744860947229836 0.5594604779315848
P 6.354243467768708 8.147256745145025 10.52689469603134 -0.013907354109711534 -1.6443819369208583 -1.2487081865623528
P 2.1221089847645924 8.981607418022596 5.783977347504033 0.9061606266048651 -2.375176358645161 0.26584538200874214
P 6.986533915561013 4.247050462238292 1.804243384687747 -1.1341246601868016 -0.6744929189190964 -1.8254233378093272
Ni 2.6083263309878695 1.6465588787118317 0.42868687732067046 1.0508432863586419 0.8578537119693612 -0.10653494503946168
Ni 1.3168367546667357 3.5742608158071136 8.339498570022277 -0.9989458261584022 -0.3481173407357811 -0.06541580640164862
Ni 7.984569984416808 9.225392439553557 11.347186400289285 1.0252998906718989 -0.3396735808438021 0.9064015389710777
Ni 2.6320484574266434 1.7094728994621968 9.377077871227618 0.33818825454752727 -0.6869059478714686 -0.10920837810656676
Ni 6.814641553528198 2.0734845265915824 2.8013888524705814 -1.5860898860481847 0.7030573608203504 -0.6649741807953837
Ni 3.931145818652367 6.696684573497968 10.539464790278231 0.9838148840542347 2.288663879474213 0.7791319324874258
Ni 7.434548924220433 6.456004399744297 11.588536567510685 -0.13279336451535842 -0.19182589309848253 0.2377974747325904
Ni 7.928873372973303 4.032924907632504 8.397058997982384 -1.000019004617923 -0.07600643743330136 -0.4291893656174479
Ni 3.1061096891066686 8.702162039564156 12.48432691236952 -0.1551647902320231 -0.791181150342476 -0.2943224064025125
Ni 9.13733096750759 5.058323582338456 10.218363611991368 0.2944419626995123 0.5966818241768885 0.6908387072669715
Ni 8.518431310567635 2.508526355503199 5.8269885677217825 0.49060376416918733 0.6145810730548126 0.9812391529072585
Ni 3.707496915162433 2.8940903470281647 11.467715320013394 -0.3198418908298556 -0.3971297660787419 1.4772514896865268
Ni 1.1538957958748806 3.7270520090580006 12.867759271560839 -0.6865225963901209 -0.3726711188157453 0.12150930696110687
Ni 3.021725010481178 8.290642610041312 7.896539379278569 0.6363886558482071 0.967601764629482 -0.2922650096528515
Ni 5.495562408800086 8.240955967102387 3.836390766880681 -0.6376065874157083 -0.31694837133214443 1.506700133964947
Ni 2.8373224723164716 8.913055647360833 3.667987273271294 1.8091701091752586 -0.20541494463682688 0.2952469750993109
Ni 3.5188365594317914 2.8927285716872477 7.386426507223108 0.5442287485834949 0.6467196054605702 -0.23232693853632247
Ni 6.266581449822744 5.996151024121174 9.392530389946119 -0.543925101300147 -1.1638705239906666 0.9021165384424786
Ni 7.590662849303158 -0.2278758541481411 2.785830115275491 2.874103040857747 1.7028606498830414 1.1503380367218705
Ni 4.772750214845889 0.5550360248518585 1.9353097219998716 -0.21107265714323648 0.2541607465819623 -1.1140345743051459
Ni 6.0727281907920725 5.986337163164299 0.6125410739481015 0.26418522069749983 0.17560403192298144 -0.6003806131847144
Ni 8.323824535848322 7.297672345453729 0.8600491892611293 0.053030288253102215 0.6410955744055733 -0.18006720990065764
Ni 0.18239800486287708 4.914747068894441 6.07730829518869 0.9357483675643111 -1.2789299615613716 -0.883706411366407
Ni 7.161313241316574 6.533153512058382 2.9273657814085854 0.40026214106013647 -0.9708446970468118 0.009178838285790643
P 8.616923981725025 1.7155918099940506 3.8310489761433772 1.470097909360881 0.8054559150939353 -1.6285858504288662
P 2.23065155793795 3.508096691243093 1.5966162220088143 -1.0766419925893007 -0.3383304365523464 1.2289356319211158
P 4.457998541048608 1.1474682162657523 8.151270350999821 1.247364785160581 -0.7247155625200745 0.9534025903109644
P 8.647718261434294 1.897252640472378 12.563533213298617 -1.4899655948190855 0.49089147061293525 1.8053761893504647
P 6.309767885134357 7.967057553532615 1.5535913840376554 -1.8975877757887192 -0.3242189368516287 -1.4879943300253275
P 1.8598128970994334 3.3927633983696963 6.10137177331292 -0.7778808336891442 1.4630762266274093 -0.023848010262191185
P 7.037446156306764 4.219370108808586 6.25344485703403 -0.012126093839572664 -0.2028297004081539 -0.3263439536144315
P 2.4276913712663664 8.729951335021134 10.13009605794381 -0.2689785283210851 -0.20450271723520264 1.4130587570587019
