# total energy = -340859.92996979447 ev
CRYSTAL
PRIMVEC
9.39834097287518 0.00000000000000 0.00000000000000
0.00000000000000 9.39834097287518 0.00000000000000
0.00000000000000 0.00000000000000 13.75542201266657
PRIMCOORD
 96 1
Ni 5.121860713036334 1.3213127164471365 1.8515069483310698 0.8576207700229488 0.037405180121335584 0.15395585752558646
Ni 6.136402191290491 9.377955680810604 11.595573110731081 1.0224529081414069 -1.7259954361282919 -0.025419468514369124
Ni 2.336671850340606 7.9275943484623665 4.1334494413796445 -0.3246539675065183 1.9409661427743536 -0.3763040875826422
Ni 8.460912588788913 0.8603494815271733 12.1699583405006 -2.335616336964352 -2.5120708898130863 2.591146453090015
Ni 3.690878759173865 6.364546911339956 4.694230573012331 1.4459274827622646 -0.6382745600170104 -0.1933374446470025
Ni 6.26254671992093 6.836512783696043 10.795434098781536 -0.4121426945478064 1.34707267997588 -0.06191782055071917
Ni 8.86013530426826 6.098884015288948 1.117259702901268 0.2843799504778199 -0.011381502364064268 -0.20481227805582145
Ni 1.4874001929750107 1.867271724990636 3.5358033184227966 -0.5590084779958309 1.1665933222384683 -0.37931484938450805
Ni 3.23810429848991 8.256808824203363 13.448717250008912 0.6180875435461742 -0.8989232283161616 -0.006455525817356624
Ni 2.7617869943981725 2.3022739234454033 1.141694448839748 -2.9059386973111048 2.0112115093541623 2.6366992020191495
Ni 3.34840322473092 2.536302004761643 7.727878669141126 -1.2459933587343508 -0.010412710692891744 0.6611059560892292
Ni 7.269372160475371 3.2984322473260588 5.439581018123552 0.7065504615752735 -0.24804074972715345 -0.16081016144325855
Ni 9.35929057621665 1.5305573733856033 0.9509024939958279 -0.13018420902728547 -0.9877206468665441 -1.1041512537531628
Ni 3.5495653086830825 2.951229347520194 3.587909598830551 1.8839485877387294 0.63988509903724 0.29570617412391653
Ni 8.723737185954032 4.266010217193514 3.451469187983256 0.15654495840900137 -0.6891582342407551 0.3055678974093447
Ni 1.5382828094260013 5.509241519256677 2.5977934681741925 -0.3159767514474945 0.10772845112693061 -0.320418589268932
Ni 1.0265243626233875 7.520984537207164 13.228822393409887 -2.0423087449795987 -0.674184129429426 2.0659243275160097
Ni 3.9496808665271956 8.494671428517757 2.040492542095958 -0.5084569903005244 -1.1707705935446096 0.1605903321229686
Ni 2.482750259557035 1.6020317542703069 5.661167576045291 -0.04829148801653618 -0.20315443073742434 -0.20508841453534354
Ni 5.454928508456848 2.9588138084503655 8.805092982231528 3.485939461287887 0.4611893155628122 -1.7085268470298833
Ni 7.641067136097876 1.7017105555409402 9.746239058765633 -0.12986513512496992 -0.899029929097355 -0.239582077436839
Ni 7.0190379580762965 7.579865141578324 6.863983193674729 1.2960329397902455 -0.2271230257378798 0.7489371540716004
Ni 8.852907980283996 6.602099370411851 9.660322247755285 1.6090313253357063 -1.8624320538231927 0.9381073547147909
Ni 6.968070756559171 1.698223771148011 3.5837686899261727 -1.0341396004507157 1.430232440624511 0.274524654950295
P 7.039244390542057 9.199387207857367 2.70943259779642 -1.0604589550715349 -1.3309971145702562 -1.6688017605261196
P 4.505028817411763 5.3034554516890955 9.69594947761166 1.085090123356654 0.9478636627706063 -0.17555260985975574
P 1.1948298475521542 0.8901403418201823 12.88938064333901 0.06780076169405742 -1.0488026017795293 0.7803210676995206
P 5.145864075137522 7.92997212865485 5.924872797732291 -0.3585861014775889 0.42589963912258266 -1.8769184203648257
P 8.768595466028023 3.944662152603142 9.852499518015694 -0.8452599344647508 -0.043057236200790355 0.40963509763460415
P 2.4060879946160063 4.632705275573327 4.3962326858457645 -0.6354270632658863 -0.8687243361352781 1.2862599195638815
P 6.676224083368809 6.966426046939865 12.992752052663503 2.1130269374307673 0.9782235060093861 -0.5453898587711318
P 1.4701542378240007 4.335567336579142 12.239505121711476 -0.2514896275077024 -1.5679921480062091 -0.4768360209611336
Ni 5.951066913046395 5.111879675232316 4.980356476229712 -0.5114109307225256 1.891842902885142 -0.6143802698979162
Ni 0.41198284262295853 3.495628231510523 5.6225009228124385 0.6020384605031115 -0.16407726223030453 -0.8877762105604065
Ni 9.098392638891287 0.6163046487123252 3.4337241809420447 -1.4665420736888226 -1.0765214078510363 0.13417867489865923
Ni 7.2816839867684635 1.02890214281587 7.47414602675153 -0.0015547460816295806 -1.3406518640512006 -0.7107680992010469
Ni 3.629103465872727 7.462376484715776 9.667448069660187 -1.4232596088511036 -1.0033385559094592 1.5635461964197137
Ni 2.831503885575389 5.326406199633927 8.257256185219815 1.4325351206157586 -0.44854900109098234 1.3467500065291387
Ni 9.369854311142936 9.343557753915402 9.535368488889223 1.0326910409296473 0.7738305748791705 0.6251195106922912
Ni 1.9039816436935488 8.388084846846038 11.433905673825835 -0.08518836104288555 1.879486438202318 -2.173719627325134
Ni 7.0690089354811585 4.558561765935007 13.2371587215946 -1.0951907021257654 1.6675894853855733 1.0967963560499885
Ni 5.286594828506036 8.444644061068805 8.66726349663147 2.9533531820393266 1.547689174782799 -1.1053326756557738
Ni 9.02689006298454 5.612914615317054 12.117453570447939 -0.2346638141996152 0.08800526166639037 -0.5297120430245587
Ni 2.8247652753065746 9.196088390278073 8.057279232027621 -1.170137587946301 1.4631759854300672 -0.36801433677002426
Ni 8.387389369635589 7.818714571664302 11.563797320886087 -0.20347736129448185 0.9749065258210112 0.8316616269550257
Ni 8.081774127346465 3.227174028277035 7.946176747658321 -1.3979483837798248 0.4413465698052722 -0.4665346390351256
Ni 5.195412127211704 6.445175276048683 7.622663305374874 0.40873983951384446 -3.538348313906906 0.4126481734293152
Ni 4.463356574828887 0.3508644933354746 4.420250145457975 0.10219646556510785 -0.12969775630917016 0.2370983917830368
Ni 9.29895322903982 3.716038117178908 13.469735699109576 -0.0869541946940567 -1.0101995446953504 0.9954306139162922
Ni 0.7999773604898202 8.905416509672929 1.5715294395876893 1.9498390197839515 1.0744802090512915 -4.191405945770362
Ni 2.2531487967019 6.1165622941113185 11.759908736555877 1.3868437892262309 0.8000905370169641 -0.9811437649799748
Ni 6.221607547911231 4.544539441637838 10.92993375227805 -1.8631151959331462 0.5083533748431245 -0.5006863452161701
Ni 7.993382733234612 8.386280365435143 0.2772350729324459 1.9716831122422367 -0.10941046681504384 0.048365278677265096
Ni 7.234541909908809 8.901967318642727 4.990040526468186 -0.4678443589854846 0.9175179605992133 -0.41736357662711354
Ni 5.661447646597608 7.6825232168450714 3.6516247096484022 -0.2627837123642829 -0.732636360029048 0.10402349147151761
Ni 4.940848671505843 5.95926226612088 1.8102275563886905 -0.30600627049834395 0.8125840414982844 0.7188840434399619
P 3.978627755826984 9.262779015755765 11.501623537940041 -0.20591399576043246 -1.5570791006381313 2.171262681144209
P 1.4064522846831036 8.158624359101129 6.112552022142416 0.5899897568686936 0.4446959458934793 0.49056082674639384
P 6.16261416345189 4.330031713917591 7.006750567468978 -0.19239050735270094 0.38384153361026796 1.1871716606104523
P 2.940609222549817 6.565060509785078 1.2002141569287286 -0.33448869420875293 0.5659399150083414 -0.9201008908350413
P 6.930984904228988 5.180844699154994 1.6774600170798224 0.785090464063706 -0.6265580429110306 -0.23604346815596125
P 1.6569180638517231 1.4069879901019633 9.189887365096254 0.6960271934464464 0.6786246816992829 -0.232917778042786
P 5.815129313425572 3.6914238629334064 3.3410819173398374 -0.19951272021977895 -1.3348612255113526 -0.13236399028742363
P 0.49669102702163337 7.946137274627458 3.1440767194712125 -2.306190318393751 -3.650488263837971 3.640488986533414
Ni 3.3569745114326754 7.2966649418151714 6.981302680405005 -2.4066993689541065 0.364600683102785 -1.7379896323756905
Ni 7.5036633953307 2.938757749435512 11.569657186301159 1.8800489955740074 -0.3504346760150481 1.3111011469772775
Ni 2.907846606933239 4.379203832364503 0.19452403592864284 -0.5869013477513569 1.7119556702057743 -1.1698766209754303
Ni 6.996726297297824 5.616702146611799 8.845658100282094 -0.20552241674896862 -1.6573346404267844 -1.0159639579829536
Ni 0.4178718428941427 0.9653599614665629 6.843652703111968 0.0736011704259184 -0.8913433590863746 0.09985007682011834
Ni 1.5295235559106108 4.429860888639133 9.916971195258428 -1.1644243396116074 -0.27038055087493434 1.4511241964718558
Ni 8.836150738848437 7.209100601683313 5.068996926369631 1.7819678377288537 0.27061529259355976 0.9199610228230672
Ni 5.825439293153451 8.748746170508168 0.5157621399330391 -1.398692718145017 0.2025743898642382 -0.25145646027692176
Ni 4.7633986010937335 2.420138513935221 5.840483217082728 0.9492464020507457 -0.13396912999101443 -0.1894666488376866
Ni 9.280306921127227 7.688237407979575 7.593336723111544 1.0426851760278817 -0.001682787019061618 -0.6039662736534437
Ni 2.766382782991548 1.8074512865513017 11.62793911637089 -0.7768369658056621 0.2241174061423366 -1.2799800000924408
Ni 3.815350383162953 4.632225960198559 6.307686010381305 -0.25013876990676276 -0.3983818933182881 -0.5622051305562576
Ni 0.393605327253866 1.975822559864841 11.092247795022201 2.45957616234848 3.014422281436505 -2.757529994855993
Ni 0.9186934406454049 3.087345515613969 7.845858859221329 1.6909299598837266 0.4393922742923787 1.0123291894438438
Ni 1.128214408799915 5.702913125685486 6.882387964231798 1.0860288331208392 0.4397442583151588 -1.0374236705186264
Ni 4.759930613382169 6.260855018598217 12.94672649867684 -1.2659268644334842 -1.0414587598199485 0.21585336636133146
Ni 5.293934932578483 2.0264890144801515 11.574967248786345 -0.45395525970821815 1.6044005114319142 0.4820738723213052
Ni 7.291232700901121 2.853636977880909 1.3605517286275082 -0.15166706149140977 0.48173577225559616 0.14094890374295724
Ni 8.434550243176608 5.263183561867798 6.5681591427078505 -2.2111952556730885 0.2690757160205818 -0.37358283199673725
Ni 4.863556717739137 3.64239271959672 1.0711880970452647 1.3497291437621206 -0.37930559341312736 0.6097222023006144
Ni 3.819194304501788 3.2414219127505675 10.0501372242122 -2.8756670429107576 1.493881384933724 1.779603194151419
Ni 3.6563022638057094 1.12345884841495 13.550768192467618 2.6746358291639227 -2.1691626040820706 -1.4824651726769822
Ni 7.6882092129575295 6.2988525099745285 3.396584758069976 -0.8262900782304673 0.8908687334428012 -0.706377683442835
Ni 4.170692245999213 0.7742625605504858 9.727751582810562 -0.3195780956455077 1.7530346996342712 -1.013039842357623
P 5.1050282848753215 1.1692287675350692 7.710394935970868 -0.23581052620954873 -0.8446305284108679 -0.6316025473134735
P 8.188022368753641 1.3900333835120877 5.401410597278695 1.2483155791096243 0.14262552011443178 0.7079694534099872
P 1.5588745738597138 6.8429506470630415 9.329325846621026 0.34813302446506494 -0.18994281714315675 0.18351737323278716
P 0.36029290870740555 3.304823118989648 1.8875881180423737 0.7717140427568 1.18631908280217 0.32167971536954276
P 4.84794607386675 3.926260201548277 12.643763468128105 -0.24191329667317693 0.23138437211739504 0.1232892816796651
P 3.1629175730359154 0.9110883033657333 2.701551149300705 -0.11619200851325151 -0.5774057495560959 0.8531629913619113
P 7.722231206225463 8.210897929973019 9.023790490227698 -3.6012256701574175 0.5627057243417599 -0.2875670899565499
P 6.621723105755345 1.4135762269198697 13.440863056701176 0.14693468901274695 -0.4456297705616583 0.1737402392413653
