# total energy = -340893.7920211867 ev
CRYSTAL
PRIMVEC
9.05291589131159 0.00000000000000 0.00000000000000
0.00000000000000 9.05291589131159 0.00000000000000
0.00000000000000 0.00000000000000 13.24985748970039
PRIMCOORD
 96 1
Ni 6.513057064190543 1.9914333085587643 11.635057536556277 0.5346750434567888 0.5472845046906832 0.03387454126025779
Ni 4.756067121946195 0.2163737459273607 6.054111338649399 -0.7703194764021185 0.21415181028919247 -0.49019161633243324
Ni 2.7307215899556123 1.4429714440650938 4.950279329442938 -0.1616372853302442 -0.8368074328220233 -1.5446403606541461
Ni 3.4886769841972036 4.212629625846721 4.999012081700233 -0.05135392899194382 0.7115653982913617 -1.1732560789706243
Ni 5.057375326025537 4.326823108593373 2.7541414837137848 -0.596414943668747 1.0434428801295128 0.68008661095679
Ni 7.089039793401973 5.964631411360974 2.582384129126887 0.5001384431324999 0.5029851685526756 -0.12143500207974571
Ni 5.2476585679671786 4.638333949033542 11.564449318014775 -0.8353370189240841 -0.31912892392323106 -0.025928546940303734
Ni 5.9041036148139545 8.069244276071526 12.423013389215035 -0.19983076568083002 -0.5299331578964293 0.42809484700168854
Ni 1.9369347540847797 6.648914174986405 0.45030562248633166 0.3603655619755149 -0.19691693446814473 -0.24943403053025429
Ni 2.674684039757279 1.5128961674466648 0.28400717626285793 1.221677921917438 0.05353113914892071 0.09921141479485494
Ni 0.6592233867750257 8.966877111671774 4.523329325010998 -0.1125803799025932 0.5390945126807232 0.9614051489004669
Ni 8.459207686789362 2.4513848130703506 1.6618365524826937 0.5634698562012941 0.43860063162901886 -0.7121894050286057
Ni 6.87387913822204 0.6929889529672296 4.875788315218066 -0.1039432730528855 0.10934078991937299 0.21746184849903197
Ni 0.6025765753281709 7.401184337963933 2.5134316889264627 0.32094643674794404 -0.36100833776583635 -0.16763618322615645
Ni 7.743203505410302 3.8907350907252125 3.8390402243443496 -1.1722659471432133 -0.5315357264968588 -0.26909294241176235
Ni 7.647043431386605 4.202327407409611 12.525713289775611 0.43927426065727576 -1.7487977787347881 0.7406821131516599
Ni 8.096891881613644 8.811483808092712 6.734810052820302 0.6062496703709818 -0.009472715377125622 0.4979995424126262
Ni 6.7635874622824135 0.9948158891348371 0.5957624454357177 0.25114844211819976 -1.2170738474865233 0.3508452811899055
Ni 1.7064565649895669 6.598371744815599 9.095550733601339 0.1759560159457615 -0.27239115354705995 -0.057906899619113175
Ni 0.14263140785780284 4.873546813210132 1.4110571992001204 -0.06840728492980477 -0.410676394414925 0.04651768394556505
Ni 6.4392848514981 1.9547780515711954 7.04875160121334 -1.022243106123446 0.5609105801145501 -0.30627752188185964
Ni 3.3135483236823804 4.411205338867793 0.414342008283117 0.706855394410202 0.4150701526072465 -0.21713737528007765
Ni 6.00287092865302 5.749769502409886 4.750365595433285 -0.38196231430968414 -0.08036985660831965 0.3076216946145799
Ni 5.188859878381043 2.6699222059278247 9.712848255678706 0.9586682095852781 0.6007696210930169 -1.512924260497788
P 0.36828348741977934 5.5364828008472475 12.500392283652067 0.13942372534768244 0.029039324655143535 -0.6545720116254534
P 4.044091488198518 6.226052467431616 12.589749996574147 0.3716635034868373 0.7465735389354303 0.7408497490777757
P 2.4469579371338424 8.529594108888237 1.382397477646343 -0.06214073519480266 -0.22581561978036593 -0.2535578228906407
P 6.439882343955789 7.699966778472138 5.9064555623974 -1.5869296083406603 0.5699726903168184 -0.7652124941928562
P 4.839281526053316 0.9016143080682973 12.671753120517044 -0.7081136922973353 2.0896700078723818 1.1974661005579248
P 3.7085361027944117 6.289332350450412 8.265142136532234 1.2482196769617082 -0.6844932246649179 -0.42430889759669504
P 4.462852224793721 0.922374455098155 3.757845525802535 1.1410077604598803 -0.9126855722075765 0.41749907376371326
P 0.09226188838308455 5.56012901750606 3.65912076066879 1.5129535710738267 -0.0011845072264044115 -0.954125327409602
Ni 1.5652582337386132 1.0960818077969623 2.4594916993712563 -1.0098102796767319 0.4807916631747719 0.8290180186845917
Ni 1.977790564108217 6.450573837781998 4.82256350602888 -1.4207553543720113 -1.1287515688003462 0.36376044658967677
Ni 5.864515213034099 5.663911646823296 9.227386539098639 -0.23539272194583974 0.9021147386702657 0.4774821391855648
Ni 8.371321978013043 2.290867559020811 10.0591594106128 0.8293131813275073 0.44226188253068993 0.3662366760443112
Ni 2.408166191964237 5.016112134780948 7.001688206671163 -0.8041716490648732 0.24465229287089477 0.6116345888319789
Ni 0.42620494944303555 0.1117736382930147 9.072044837140924 1.1231591623142334 -0.556809413461983 -0.25817346728578117
Ni 1.4050306730018927 0.977189861633035 11.305255279286426 -0.3191052697741472 1.6042207913209403 0.4448065033294146
Ni 4.444538175673975 6.719201015009 1.7502799208861892 -1.039352769220539 0.20886253686579515 0.19229923319047526
Ni 5.433324822735776 7.867545307021629 7.928635289653838 0.6377508263030566 -0.8681856900229887 0.9373414230830437
Ni 5.2731877911593115 2.7063330341827023 4.876345069553638 -0.08058222972944187 -0.07185564848972141 0.597224841164552
Ni 0.8196238582078347 7.2175549893010915 6.838105635255363 0.17463369758991215 0.6950519740173706 0.021661287023517533
Ni 5.056940786056309 4.666198824560273 7.171220354498973 -0.27016200710622507 -0.5717822327217313 -0.3846758565861053
Ni 8.082615433041306 7.096001485825643 9.066148672933464 0.5359405404327737 -0.1754669921244849 0.19455203378039398
Ni 4.893417963886278 0.5389725979156588 10.588504232335257 -0.7813307399109576 -1.6981812421295008 -1.2131801688590718
Ni 8.126286699948698 7.168325231953993 4.583403570465136 0.1299031874517569 0.8932829993112487 0.27668515293672347
Ni 7.612515609665047 6.213459861240036 6.889661086729432 -1.409615535705108 -0.11516176747652425 -0.5222599576218877
Ni 2.253442804171068 5.3451856323107405 2.6409347688139206 0.24545396283658372 -0.558976853426947 -0.0668949620503364
Ni 2.4384663019018493 5.387643808470705 11.36644303341171 -1.343159718074719 -1.618264671008516 0.4365656034768611
Ni 1.0685971547433049 3.223906349197098 3.805558014423746 0.31366121594044044 0.22577499635041764 -0.6198243237316229
Ni 3.5613990586306787 2.5519627101145312 2.6836527636638197 0.15760219602892211 0.12327951148765219 0.46025034868831055
Ni 0.9011996845143259 3.306523260846531 8.239066117212156 0.14103580702980872 -0.3928763901190266 -0.215728410747693
Ni 3.4753329859754998 2.562509357284331 6.856045798943253 2.3964604648349175 0.38782134419362235 1.8667335094120237
Ni 4.087219580144376 6.714339599103264 6.0223120658179505 0.4202915489071858 0.8320737747917799 0.5769336950156838
Ni 0.9539781849434508 7.340584118088708 11.254376080639467 -0.5888705556625858 -0.04153977111499943 1.0288744953970346
P 0.27414583483619487 5.390033778301458 7.908522426119809 0.37919606441845666 0.3748984654843673 0.9476572031867552
P 8.347404173873462 1.5850750669186053 7.916922626899944 2.228587483007607 1.4326703606420423 -0.2784083062754173
P 1.8055497838055534 3.295297644974813 10.481392845795416 -0.19006854408774362 -0.4022668301949911 -1.1594950206307904
P 3.9530553646452975 6.205049702252273 3.840285905589469 0.40802712971753596 -1.0394275883225323 -0.2806757621533553
P 6.86925309813297 4.0448971977247945 10.33727404383461 0.8171768030752894 -0.5179932119257338 -0.06601333077633147
P 6.330686070855256 7.808375447878445 10.204232389922701 -0.2617565566513492 -1.1056190965479409 0.2740662272566377
P 2.440104879702479 8.408583780374325 5.844617808901478 -0.4116582987122201 0.41510357694834316 0.1654990822784956
P 6.794132000952716 4.009038597347477 1.6349928458836471 0.9081424329215843 -0.52557976602374 -1.228909663779187
Ni 5.07471166021452 2.8352737171350224 0.7088949264241718 0.19527837042345725 -0.2664732454007282 -0.9472921065378526
Ni 1.5160918468036944 1.0942440658437698 7.062797200427025 -1.4323469158643525 0.02535647648691762 -0.820988977732528
Ni 7.045477161486888 0.5125887794507118 9.064241223526874 -2.685469686554633 -0.5666906771314368 0.4276562168023732
Ni 2.7118372071262544 1.7109287055062028 9.07666906664679 0.3900882858509282 -0.09768212263452208 1.3573707194677782
Ni 6.173056697017877 1.9420043870591037 2.796064632536638 0.5506235963662452 0.30398384075167645 -0.36570085814549924
Ni 3.9000686471475845 6.8970998678276505 10.409313528399757 1.1562448891246087 1.0665144172369954 -0.5752174836555255
Ni 8.359788562996455 7.12393878468058 0.3906758752090487 -0.08653304799623807 0.2714159341179842 0.03669812675198196
Ni 7.451744873966791 4.14780169418755 8.042093675619213 0.259074896054128 -1.2670051850993276 0.5103763188104242
Ni 3.249227355320642 8.427622062776118 12.301658144600548 -0.16800050854411067 -0.5692471250047035 0.31394198040565285
Ni -0.01919942430704768 4.712033738397779 10.162508405252414 0.32688671349177895 0.5676412139701644 0.4232251776142131
Ni 8.668601634461 2.4104022622225547 5.906243724162402 -0.4200984590597732 -0.5353458442715684 -0.28953964030188845
Ni 3.638502744420534 2.774139375214288 11.496345136045948 -0.19837474996059382 -0.3122879897419976 0.8401781490664693
Ni 1.2259639940159424 3.310425067653555 12.632957754181028 -1.1708292146966868 0.22854998799239348 -0.07605734527589482
Ni 3.0453466335085806 8.603004204939657 8.00317881079166 0.4256098757963057 -1.0128544658196945 0.09742809764218704
Ni 5.786795928954503 8.015071626574462 3.6281552614032972 -1.0016881647902298 -0.19818500254729096 -0.06496997711348167
Ni 2.817167885083865 8.194835380094382 3.6271087443107404 1.7556867925451374 1.1074072987966153 -1.2810151262251745
Ni 3.5211769527290318 4.24289352412023 9.27376100673127 -0.6370838821430189 0.5278665051753877 -0.12257734321430504
Ni 7.401410660864572 6.285810766116462 11.53468966716389 -0.001185535667668926 0.3249275328828791 -1.4042308743544267
Ni 0.6371270293397927 9.169517583988332 13.48769244190247 -0.3862077198495994 -0.8997089574422505 0.3285229635436213
Ni 4.568237220247485 0.1142822013237026 1.6319981412623856 0.14901008348453693 0.4167069168797211 -0.3857595765685873
Ni 6.011733733442062 5.7680835515296325 0.34050642517849566 0.4538740128483216 -0.22764495967962084 -0.20011924345552634
Ni 8.179517846179102 8.77088147971799 10.995990467312202 -0.5843353867963936 0.7306720372138255 1.9534722456611646
Ni 9.192693049013812 4.724209910452182 5.689979518518951 0.25676810229782226 0.6938193871618502 0.5617788416521163
Ni 7.9726496620786 9.105694526008001 2.734120959923217 0.007314531383542241 -1.462954099227248 -1.4742188735077901
P 8.389120010919331 1.739689819719467 3.7545991501157623 0.8743527380656491 0.8703019650350432 0.7559218129195496
P 1.9291582992188074 3.257166762675075 1.569007951556408 -1.8279741292556388 -0.09115640570086236 0.15524680842286812
P 4.857188193951911 0.9522128663184629 8.290939326038721 -0.4683668071478579 1.0611204999149337 -0.49528317192272775
P 8.490213924176969 1.6639078596693462 12.635196540314155 0.026924078084353632 0.5882558048967224 -1.0000236326036132
P 6.6501634773979355 7.849665797871111 1.506933011660616 -1.2959054130734455 0.029549174412026525 -0.6114661815749147
P 1.7270066843676308 3.1275199522727597 5.918287723642831 -0.5241314636129877 0.4567731887729875 0.19868996720816748
P 6.719798507466688 4.0535698912772995 5.881531979287378 0.6075267373111923 -0.5875909176192139 0.7128054413460498
P 2.3456014893114614 8.577384452587268 10.12012174712905 0.5535117165473177 0.11613184469927741 -0.1536838348111224
