# total energy = -381167.3619209141 ev
CRYSTAL
PRIMVEC
9.25060245073999 0.00000000000000 0.00000000000000

0.00000000000000 9.25060245073999 0.00000000000000

0.00000000000000 0.00000000000000 13.53919175188217

PRIMCOORD
 96 1
Ni 4.543266829841305 4.001283289176937 3.987846789273969 1.1413551164969697 0.04391058534002115 0.6210548537046142
Ni 4.500270030151808 1.529540844376075 3.6959014795750296 -2.0576564310802627 -0.33441258955517894 0.9302089258033206
Ni 5.330187819339261 2.606856742620312 12.396199364938415 -1.5081378948527382 -0.029713982124664952 -0.4447103440711825
Ni 7.858830719150902 8.703595725098607 5.498793922940946 1.612289427261688 2.568382162810306 -0.7864768028882714
Ni 7.710247544320284 4.13516725688479 2.125910526334439 0.07804249402672365 -0.14297776124752795 0.025711802943807333
Ni 2.2137153936521616 5.412527430792836 9.00215429041244 0.6689704464389704 -0.294787261854073 -0.05452692740328674
Ni 0.8959254622047541 4.81759344231808 3.847174729566944 -0.2919734465543617 -1.7035939285046402 -1.5367982389019081
Ni 2.121773656966723 1.0224690769535674 6.930021215737838 2.8643022527172417 1.7606425938885162 1.641901850811482
Ni 2.811369059215711 6.457521724451208 13.1684479740604 -0.46141582975132145 1.5056398110212326 0.5496761448513113
Ni 6.104028457124448 1.4084504597083634 9.999153683935479 -0.4113371679273755 -0.19935228338251473 0.39828984782511406
Ni 5.370751710612593 0.5442406876360194 1.8377958910656675 0.9858342284771087 0.4292790971177768 -1.7110724962698725
Ni 8.406910406759199 6.297430800306103 3.124614805869263 -0.6011640283179581 0.005018279150197809 -1.4872163142087227
Ni 9.063777177919235 4.436857151091672 12.403456462476369 1.4084994198227936 -0.39998574747029825 0.1736890742884557
Ni 3.398486288710771 5.948812600414017 7.034787987511383 -0.1933479861699638 0.39285273596994275 -1.6003582230417406
Ni 8.2685676487221 8.569369485104069 1.274898588624618 -1.5394241065605294 -1.4048314840529033 -1.1626443648930491
Ni 1.9015815694002185 0.03751119250019646 12.884476683580985 1.18612779272697 -1.3616901727787387 -0.21155756719945498
Ni 5.835252206053374 2.7716654739602626 8.294216793838077 0.18420411488716662 1.5017150220455298 -0.2722116905464022
Ni 3.7541626981904392 8.152731606185117 7.2535675081001365 0.43727419950811147 0.5341168569604736 0.1926797564583456
Ni 8.495771692864473 2.289625836477467 10.539894868705204 0.4811521318379842 0.18711871743080033 0.6787041287869666
Ni 5.169911883147299 7.4194456090709195 13.153500850794849 -0.7272352436181346 -1.2441524488708702 1.7676287953983623
Ni 3.6461804170425247 1.3331598072400281 11.5388979426957 -0.5525169567342162 -0.20991668916192235 0.17375669430159751
Ni 1.5107713722224625 2.4555538907009007 12.751143126712531 -1.4357957936449015 -1.2371163679596953 -0.9179766454031868
Ni 1.1106735702925004 6.364321905847143 6.597566593319388 1.5860644321268877 -0.007684256018135153 0.16740812637575042
Ni 5.950292696788872 5.852560083036818 3.1093975650152994 -0.42708363212835476 -2.577186134255181 -0.5553855365312629
P 7.641691330357533 0.582287490011866 11.183602658032557 -0.3076983134887862 -3.2244978647737947 1.096653402714221
Ni 1.6589197687429673 5.733514081486873 11.374708076652485 -0.9062431590163424 0.9801749733088023 -0.24735966449972882
P 2.5257937142900473 7.079254707913157 3.1295435267975256 -0.33838340127746885 -1.1121484130260266 0.912332816853848
Ni 1.2659171788099595 8.411665216363415 7.771048978339037 0.09069335002151478 -1.6470592266427053 0.6265626708967209
P 1.359311260063223 2.0379261973312657 2.9310450267852035 -0.691489453477093 -0.42422379408205646 -0.7439625836751446
P 5.190975504681935 4.887694506872085 12.543628064596646 -0.5981093006520344 0.006456297148305011 0.7636911724523235
P 6.08635055604729 2.5759134777835286 2.8162061991807796 0.8042382406367504 2.160676163877614 -0.4401756894256226
Ni 2.1292203918527055 3.9878514145751405 6.760429922986641 -1.3083055865100113 -0.6055637000475506 0.6641254596418433
Ni 4.319800029045436 3.0717457633594916 6.4475393994630545 -1.6968882343496905 -0.9340450117199591 -0.09879181075893309
Ni 6.720368339420525 4.0270462167017325 10.874854554238093 -0.47530415769763945 -0.5623347141555863 -1.1619396255165408
Ni 1.346341915578568 1.1222368232210442 10.90591345160416 -0.1418809286389234 -0.7835588579105279 -0.6653490476362993
Ni 4.36460994679413 7.278984463097309 9.303523188718025 0.03286692593134985 0.029248098231839954 -0.16923412384089564
Ni 0.6662505821766092 3.3094214893539546 1.2821085080906238 -0.03684519385280751 -0.8023711055210245 0.3835818521909781
Ni 3.926954699352257 5.945056855862827 1.6868482622762206 -0.46163077397560504 1.3790389484698313 0.5812230664196572
Ni 8.242166429635647 2.5211591625162875 8.136973205094097 -1.4938078513833113 0.7979338956852774 -0.32586264310263874
Ni 8.860911468540861 9.181343083094326 9.248323919478093 -0.36234711118191787 0.5981118717551958 0.6457688115115264
Ni 6.9401348992792595 6.865843311863951 4.794674149953472 0.9177241630727486 0.05855404628480883 1.358371392818151
Ni 0.9706379520266621 0.8614031393215276 1.149157926159163 -0.10365762349166664 0.24619649742956312 0.2100089917654125
Ni 2.596070540288566 4.185240767366556 13.458742051241144 1.3550754956756987 1.4178541215648162 0.11735620402468176
Ni 6.656955460360391 5.628316231644152 0.6739998117592021 -1.0033771224568784 3.055922714673137 0.5986111799891175
Ni 2.999507809664292 8.351046019210816 1.411027677521077 -0.21431970332562442 0.13354309819718937 -1.542406586227621
Ni 3.5570971164810223 8.117727326919828 11.36371466082826 -2.7965017481334997 -1.4430979837332696 0.34690043760954453
Ni 6.8616157865932745 1.8506292516958827 6.057894778180495 -0.5077599642334998 0.562067833647445 -0.5691450522092005
Ni 0.9251712415116274 0.764817600259986 5.168058062437795 -2.3406109619654654 0.2078001570395518 -1.1008175613942397
Ni 3.069266601931612 0.20264091974144358 9.29365279601822 -0.3096803769158215 -0.06535872791146809 0.29212745563372267
Ni 2.382474132192503 2.725023936947688 4.519287418448208 0.8063342039338306 0.700771135889335 1.8130074806434777
Ni 2.842118061403295 8.081178197063288 5.2263720094865596 0.08728381011933355 -1.1849026620706176 0.6989605650431575
Ni 2.7168001514649074 5.426394083704746 4.860962116221761 0.4927277524907256 0.5898249491560552 -0.6119752600008493
Ni 6.990421173614911 7.522608326398216 9.341175915434066 -0.4810325755409845 0.4168231307426112 -0.25382573184004675
Ni 5.7076771491433345 6.258448762033395 10.953517051260391 0.142132125417781 0.7082160222031544 0.35281526043208267
Ni 7.127200579856071 5.098478731855926 8.598970487540907 -0.035096586592816975 0.1351472094595156 -0.011632442032605772
Ni 6.789544343740245 0.7965527166573162 3.7081270756313205 1.3658746431737314 -0.5276962981461105 0.4171992831351073
P 6.361583727553665 7.532238203437108 2.1007405624198188 0.7947030474528055 1.5671632243470106 -1.6256589065900584
Ni 0.43897623345642983 7.638971653268739 4.431066274025057 1.2846275261667812 -0.6734814469354465 0.4954268965894435
P 3.916908545207938 1.0816359295383409 5.747508392711113 -0.21588576226116368 -0.3972310675432965 0.11351060502634643
Ni 4.589418084929709 5.003262281941124 8.566030017658305 1.5764402787735625 -2.1485356718603383 1.0494343218262572
P 5.67079499760245 6.515791268608726 7.443184504803102 0.3602316075008119 0.6724221524329967 -0.44592853274899974
P 0.27684925173566705 7.196219323935964 0.1009749498732169 0.4651429008939214 0.03691178542468482 -0.49529474188695344
P 8.552255870769823 2.298820935206245 13.301132138644387 1.1618681488486569 -0.020216841267507116 -0.4758587446495289
Ni 2.910609521149646 3.881099463538823 2.337459776132033 -2.0518233693382535 -0.49800751283242617 0.6082011376703977
Ni 1.9942633542730837 3.6133592799301457 10.66880201235261 -1.2424341806281827 -1.9207822116273114 1.273226226308375
Ni 7.026304260102768 0.10115996192007361 7.53340932969371 0.9211172479146974 -0.33466172945150746 1.2737736141714127
Ni 2.2289233839037825 9.249011239232166 3.4949256682552963 -0.06373456204448379 1.6537875465054743 -2.2838266059865697
Ni 8.244423576607298 7.23646869472964 7.157142004459125 -1.0031958596840078 -0.8423317050743622 0.7635731588172204
Ni 6.713513643084484 0.97748339776036 13.423038426438739 0.5448452991215713 -0.6447131165535025 -1.376340318591746
Ni 6.087340370497974 4.281585790767184 6.409751613952807 1.4026923262227133 2.0795501458295607 0.0857887136310458
Ni 1.0873528017862129 2.3287558843876592 8.908639026268485 0.9399639483075554 -0.9534231591362547 -0.9915022253961634
Ni 4.533784962439899 8.230020388759504 3.1739112657542314 0.2152519853319067 -1.6465203234200998 1.8874835974751816
Ni 5.541776846726929 9.028717395039891 5.3367159694126 -0.7892672211492149 -1.1445653959041513 0.7942461624210451
Ni 0.19602118870491075 8.158624239877502 11.537625059813326 0.4369016466600411 -0.12601413680999587 -0.5980231686961313
Ni 7.030263517905501 3.814051097757954 13.150061476843781 0.8152819000454218 -1.4508025514663787 1.084154756026578
Ni 3.927953764405283 4.662590349461535 10.743795720485743 0.821930772820507 0.06322342673602015 1.2911522146591763
Ni 7.2626386487575205 3.7773169558545554 4.476639366467035 -1.0028348768001634 -0.055035748718905216 -1.2804296860353495
Ni 9.090964698204829 4.317774147132355 9.872331626056145 0.7173159276218937 -0.011944059735753623 -1.1821628945419511
Ni 0.8023519192660395 5.473747917097719 1.5553555752739907 0.47734715626959723 2.14094191867348 -1.007771137759516
Ni 8.96639608705621 3.090246968045162 5.8486193264387705 1.1510425189880626 -0.7208105710387134 0.6598571712837926
Ni 7.953547636539191 1.788317194314545 1.788676117685447 -0.5291793104495403 0.3614497961786291 -0.04613510379516571
Ni 4.916491631965331 0.7311796349607346 7.814090180919779 -0.7805990039512556 0.9696841010798074 -0.2002567974746551
Ni 8.754067011481116 5.367754515453514 5.3889504206016525 -1.9169821211549307 0.9560168880053601 0.7230124637860387
Ni 5.492711651900531 8.90401002485613 11.486122331269593 3.1191561687114864 1.550334582825446 -0.5088328855827043
Ni 4.968017487014922 3.954068214819107 1.3893914437014199 1.3869065241433665 -1.2856323132822118 -0.8227033893204735
Ni 4.853828051694966 6.30241687496889 5.126019625151015 -0.5381498893792667 0.23220892490121944 1.100950230317362
Ni 7.480000052007117 7.420953457252801 12.588293672948792 -0.1975417125363372 0.7907422630328447 0.7993647145945331
Ni 3.318431576035876 2.0290918720938578 0.7105230399291838 0.37100375841565136 -0.7425261083389341 0.4233465336834258
P 3.022301293837038 3.2999303713502055 8.827106067339203 1.094706049179863 0.2159307565664862 -1.241028558529908
Ni 9.065007508030831 0.2326304474766808 3.033022741952384 0.5218794343540174 0.3330715021462522 3.1662104418868116
P 9.215746073207331 0.8610756679985914 7.160363989255136 -1.262977294886857 0.1401860574350037 -0.2458285725671831
Ni 0.2678743173426484 6.495236430202946 9.210630490111743 -1.9439380809184847 1.6691475739013124 -0.8887964242948048
P 4.331585296430209 0.19126545404045922 0.020267144672917493 -0.18968107884133786 0.3162189493652876 -2.2167470387292534
P 9.061288765889012 4.850941863764001 7.55262098063931 0.14690589265734055 -0.6929907206129678 -0.0019707505731256384
P 1.847012266179834 7.568463562211649 10.05868501025256 1.0929574419198727 1.1795120871826654 -0.27181162689450605
Ni 8.034508908243684 5.976925180933894 10.947208140462577 -0.0030040769336464393 0.7329448924084023 0.09760061866430933
