# total energy = -340872.99188575894 ev
CRYSTAL
PRIMVEC
9.23264677754548 0.00000000000000 0.00000000000000
0.00000000000000 9.23264677754548 0.00000000000000
0.00000000000000 0.00000000000000 13.51291180917507
PRIMCOORD
 96 1
Ni 3.042969603728538 6.6409320737608555 7.887270151091719 0.6813749907509103 -1.3010059675248045 0.10575307256811464
Ni 0.078070338338071 5.288118496851732 3.537234735501556 -0.26017327132462936 -0.0386958739083011 0.03325130585396208
Ni 6.175292763487286 3.5526024761517196 1.9355219257348162 0.6900069553942955 0.15073529370575975 0.39708734287658065
Ni 6.8772232041060875 6.607334471942925 11.597307721005285 -0.21525352799380348 -1.0761115740071274 -0.11633753295218029
Ni 7.82609001686624 8.990326782252627 5.953991758536831 -0.1195930637750005 -0.3373485322550513 1.349203610275954
Ni 3.025418342102848 8.764505473413724 6.980067503685723 -0.390837762422443 0.9921809966307429 0.342522620256823
Ni 3.1157320934034796 4.4726818960928805 8.831647127697966 -1.0738736858155442 -1.2051279879785568 -0.6788787066916179
Ni 4.998647320760063 0.4190864584224094 5.608223595128588 1.21822698725436 -1.5731875761642198 0.507386640054481
Ni 4.9210653894393515 8.124433766562479 11.487164090841077 -1.2724181285847829 0.1452436744635692 0.5508755644760513
Ni 1.4106561093052035 0.517760371428492 2.73949988851174 0.20861416830041488 0.8424749155204458 -0.47955084878913545
Ni 3.325322409113522 1.4493501321738342 3.7737640681350273 0.7848359248507387 0.5120904732880536 -1.2361830575121482
Ni 5.088674860008934 3.2196178355456495 8.896861005323899 0.8023047710594634 -1.2456562871099064 0.512559185394356
Ni 4.62714407757515 8.943452634291749 2.5080771328404823 -2.4734369794909723 -1.69297193001442 -0.19060359065560722
Ni 4.760334240758847 4.462341331642185 0.1273929842385243 -0.9789192465248302 1.0392681799265329 0.9473995786499942
Ni 8.294526819129596 1.1182858821086075 1.4021537648385551 0.7465210884309401 -0.17066417141920284 -0.20337657405055942
Ni 5.844754774291425 7.061700720435869 0.17806359657630041 -1.138840320494916 -0.2656183535996006 0.10618913166426874
Ni 2.8457971980061614 0.9285272917915066 12.093366756057561 -0.30998171020632426 -0.6510670837959884 1.0010862695401728
Ni 4.7712564619598945 5.598160010082821 10.224842455316423 -1.292077297576607 0.02540404189540141 0.2066979251143085
Ni 1.6168765089219388 8.344817046417935 0.698915058163804 -0.9696848724107558 1.2003709329095456 -1.6427130338588678
Ni 4.765707641214476 0.7150232570898122 8.660195952782013 -0.7269783904123222 -0.3284897963128407 0.39697729966127765
Ni 7.555324183254134 6.075570945065888 2.053421902501728 -0.2044070721976028 0.13185645452338582 0.3978812995327857
Ni 0.3783557136628647 6.422459951799412 12.146540338951215 -0.25695836393175747 -1.4782369935282478 1.248097035340915
Ni 2.6222471202876796 7.162890529703393 11.860539714803311 1.3564806035533412 1.5220449918521337 1.6046275398410559
Ni 1.3218103488506971 0.17991012594249614 5.251928367803663 0.7628421941884669 1.5400393715470253 1.4577740976882057
P 2.9960677578271677 2.9446049843912934 2.115730266169953 0.047611945451008324 1.2626782755891997 0.9639621109943656
P 0.9070475389392352 5.364306298500966 9.003896003300117 0.3459714980373719 -0.14796004495346776 -0.11681061593385687
P 5.0549572337822015 2.6127559593454333 5.406894651802904 0.6031190951618 0.16098293957569695 -0.37941152286337243
P 8.32759816007816 4.19913703578465 1.459434952307312 -0.47014086832914515 -0.47292640149408227 0.9018090345043889
P 1.7216024219257278 4.936428513766099 5.154000452661523 -0.5651642131845814 -0.4093296505790434 -0.08855393508100878
P 0.723324329855545 1.1374159263423949 13.324663928436077 0.2502598688656594 0.27097164749171404 0.06875618362879125
P 5.305383546425661 5.742410884170028 1.9229950705145447 -0.33912722142202884 -0.01640158128647498 0.9389607038540216
P 3.343584584545198 8.575873266010003 4.467058290908132 0.11325709425464366 0.2539951675383755 0.10297859514677105
Ni 6.789282243041018 4.946556727339683 9.334421990055096 0.22643731252476487 -0.6324798077121043 -0.014088873992898316
Ni 4.771773490182429 6.976335667836641 6.3982962685133735 0.10526764829126387 -0.25997169683678456 -0.41339559311830093
Ni 8.609701683998708 0.5067088931718107 3.830761813346073 -1.9579356807491568 1.655858312991574 -0.8665424979926108
Ni 2.236470205102074 0.5078454319967042 9.821887277437098 0.4141257864161061 0.007747248045586658 -0.20213601677523899
Ni 7.09502134284887 6.38234410131881 7.115980374419874 -0.4041779311747749 0.08983074491090336 1.6655883957951445
Ni 4.128470356940341 3.570486113063325 11.547959223693702 -0.24868712506190074 -0.7835850831627731 -0.5783467733131266
Ni 0.9770356182414676 5.99652102289905 1.13299164198099 -1.680285078575371 -0.12752645968946424 0.4686383156416897
Ni 3.4785104853331172 1.2210083107500742 1.04950635627655 0.547119954088361 -1.2948042095894667 -0.6431519427139698
Ni 4.5245139754019945 3.784425005430758 3.659404811427796 -0.8056934850260382 -0.6852331881547361 -1.4248410944056107
Ni 8.037305278418534 2.922658982874057 3.440981622494556 -0.28440771839196183 0.26385611949285526 -0.7141406152177056
Ni 6.79628982198573 1.631020923866998 7.523191802488279 -0.33556521510238335 -0.8003360773688668 -0.9691835072943049
Ni 6.394494264548377 5.021821264305819 4.34918508881703 0.42691419643002604 0.5194376576817442 -0.6018967927189246
Ni 9.205345894299285 4.668312449794485 10.864746127995344 -0.5141828370407081 -0.47494600302727236 -0.8359378857328765
Ni 2.475198754210685 5.277953352690825 10.825072521297948 -1.5430154234562135 -1.3303288848586379 0.001287608463171976
Ni 0.7906414044295753 8.377112845032698 11.383128779820245 -1.112007516572788 2.6519931520637425 0.2748982362396298
Ni 8.4820511089136 4.24876251250116 5.54578043481663 0.6653500760775638 0.6044421848485977 0.09577179298568668
Ni 8.01556239513158 6.942313364264486 9.569925575625646 2.813033427239936 -0.1619895264633404 -0.8488998452101832
Ni 5.816835250274545 7.474593919364058 9.525008748792937 -0.07479287674117441 1.601526532318229 -2.561665155801446
Ni 0.09263206891989027 1.7549322769855602 7.383928404219167 -0.11957403761160698 -0.6995490905567758 -0.40952171198519144
Ni 7.435410566213386 3.081229692196113 11.265404223343122 0.4839605478210569 0.33277916771681393 -1.7334758036657374
Ni 2.3231739914917933 7.4758126287457465 2.825279486953678 -0.6871913403223713 0.2467639398972589 0.7837558044126824
Ni 9.166568777609175 3.491076117670079 13.08025545499705 0.9456314310059778 -1.3660386795554218 -0.253684321166176
Ni 6.299942728352327 7.515032912483743 4.468584447429293 0.29407558049902904 0.914112020241458 -0.17402280347879062
Ni 2.3444644750840293 6.929009120181046 5.4990521626756825 -0.1443882684418094 0.10814008474305246 0.3274883516315199
P 8.459200308006928 2.048502748270183 5.410069759048078 -0.8947631834012009 -1.0373997592592263 0.22537184737472798
P 2.6746423910534824 1.6389148369074844 8.080194616007162 0.28173557087643736 1.0300307204886647 -0.9752507965343076
P 5.948622051139933 8.396944570425639 7.403845993227636 0.7132733821214038 1.578962530974784 0.2204993497737751
P 7.723838453213153 2.5222760204018444 9.162659674940938 0.7779929337869762 0.7106788819213502 0.48210781088303417
P 8.031073241807624 6.4684846962518385 5.303169557715593 0.5300946231749581 -0.344793932789503 -1.9449513526743472
P 4.581534802230117 1.4900753373452802 10.912108682973582 1.228793449916297 -0.6712332743312182 -0.8942476772173631
P 3.5212484075137165 7.676659627906853 9.834724349590891 0.010601172554614 0.12648516290914347 -0.03245246410175056
P 9.202816149067598 8.077282639196671 2.2261305639160613 -1.008838659792082 -0.44981912605265756 -1.2529633622942808
Ni 6.298880973966764 2.7944452163322593 13.179399309726827 0.25368380694554377 -0.9268610923770101 0.5662523040424376
Ni 5.853691976423812 0.3877434689606036 12.873778387798414 -0.8990648961003485 0.3112515780576833 0.3780493524085231
Ni 0.562335590328456 6.379481980801206 7.0774820836640595 -0.9538954707869831 0.30915124388522885 -0.48001493290974745
Ni 6.6666357625382995 8.191462782555382 2.051084196324125 1.705098795184941 1.4838977913584508 0.27570710529417036
Ni 7.664537162617778 5.196133636474693 13.177683883945633 -0.8535931369207944 0.06691424532404604 0.43695281161295074
Ni 0.8255592747443359 3.0874617288070234 1.8628766906746281 0.6778798331134583 -0.7442484903466795 0.7661028672176097
Ni 1.008518943935104 2.93022975327546 4.598660438836899 1.5615998713266201 -0.9395137481440142 -1.1038658613022603
Ni 8.21049126767403 7.671969443316716 0.08290916854218683 0.2147097396751915 0.8504340224665224 0.2682092542552284
Ni 0.9183187541904937 3.017247449657432 9.241169487268165 0.057005213740450214 0.22565055495741138 -0.8562855961512931
Ni 2.417033079175521 3.0553321178352184 13.379349818880645 -0.4190196241732977 0.09202389590748024 -0.06742949439756774
Ni 1.4134536012949899 7.597868219851282 9.115837229802315 -1.195027152099129 -0.06113646230000439 0.35943636529302614
Ni 8.549246312549462 4.270948562836001 7.852515698625867 0.0032938402599233594 -0.3061985890148081 0.8877199034011743
Ni 4.166702747467423 6.481170352997604 4.042671369940058 1.4012633070856706 -0.28245059466559097 -2.0556931367063047
Ni 3.88652884673455 4.718390326205712 5.663869680843577 -0.12644042571413708 -0.37716000782503434 1.5839885234344655
Ni 6.0060491144286186 1.0739137814389248 3.507032901188059 1.6923090996194403 1.8821231044942164 0.7089076489535403
Ni 0.4337506713840525 1.7727697506630105 11.21021700017563 2.130501182956131 1.2782933564186372 -0.7270583517206382
Ni 6.368716714596285 3.95984529521935 6.541222257780336 -0.8155081571236148 -0.08468262505106061 0.8820799315065777
Ni 2.3709806367825994 5.0731547806860595 2.9306258338245086 0.7308900667619026 -1.2254361034082895 0.4054282586421082
Ni 7.9970601708823 0.8888555316234751 12.116635795865676 -1.3360261923537313 -0.8990080747204839 1.9532092218077652
Ni 1.8416083654347863 3.527138836191881 6.923286725675206 -0.37122075952246386 0.36046814899165014 0.09920884369169367
Ni 3.176898378658712 1.733078601936634 5.968828621994213 -1.4356325285941598 1.2377568297571717 1.4970376711745186
Ni 8.859814086649916 0.0805576133943366 9.497347738887326 -0.7459096800991863 1.4113921679895562 -0.14892780818337578
Ni 3.3557162824811035 6.557893648163034 0.9308354534992512 0.931617376115073 -0.9180242108116706 -0.3899903268204832
Ni 0.2604501973078539 7.748701971128979 4.276066218974412 -0.4182966299643441 -2.991687558843151 0.4324081296650617
P 2.0744834164525567 5.18704871199301 13.024649992928115 0.5818630139965011 0.1393972429851212 -0.45214674574456976
P 4.912100489366471 5.119124129257502 7.783707551588633 0.4727700784218761 0.5131204572144646 -0.18326771911582632
P 3.6755167034125362 8.472033687101987 13.485440317086054 1.7975795761241815 -0.1899019366028923 -0.4379005202382007
P 2.3002677947041357 2.803594769341759 10.788087461357732 0.11863532784742148 -0.08002789988786863 0.8051880061445293
P 5.957097620930772 4.660243116464209 11.787894479743123 0.9937521977726047 -0.3451664856375733 0.15848896950924962
P 7.33987113680642 8.471442797704805 11.028968140442643 0.30242240980182755 1.2534708980583187 -0.7137228109539967
P 6.129212623153872 1.1689084846828626 1.3089308065214824 -0.6900673763185858 0.6629386384225937 0.9199556235064286
P 0.36961978323139283 8.761781842598586 7.533894286694749 0.43036615953436846 -0.6689277661264931 -0.9780543274213737
