# total energy = -381169.70243163325 ev
CRYSTAL
PRIMVEC
9.20446226250015 0.00000000000000 0.00000000000000
0.00000000000000 9.20446226250015 0.00000000000000
0.00000000000000 0.00000000000000 13.47166092247059
PRIMCOORD
 96 1
Ni 4.664701847633031 5.411920099069729 12.381089792802138 -1.193857300160744 -0.35268207728832807 -0.12519112668806828
Ni 4.690142981495695 4.818397959513913 9.858237794057256 1.2181400839675087 -0.8927572087147657 -0.23601929978624514
Ni 8.93734882705105 8.403977848780512 6.768229838082754 0.7153197231274714 0.011072969984709963 0.21966245569477655
Ni 4.631639418966357 5.116162315685102 7.33467244948229 0.468426970961832 -1.0190806492350641 1.048314349289201
Ni 6.436220279836297 0.6315411711837939 12.959105174681245 -1.7002244978117753 1.8177282831579147 -0.6048031677324422
Ni 5.497337509433519 -0.25647589952583844 1.6689770401324917 -0.652086011978806 1.4940269093726526 -1.9804544306769636
Ni 6.802760378490055 9.029899695715697 8.105265432989984 -0.26389211493711323 1.5801892042930334 -0.08550306406982694
Ni 0.7444826852340983 7.170000016280415 0.2085491846526463 -0.579091621898951 0.7793260507761031 1.1053781841817285
Ni 7.224969065277458 5.253492893554474 9.445304443953432 0.6472178852532273 -0.021314445207060065 -3.3778700818817695
Ni 4.6204744061677285 3.694468678555786 3.523135896416492 1.1737962677448106 0.840031853296592 0.29999168887314787
Ni 2.3915494232512917 4.690189003807314 3.0983738917805 -0.5923132627955476 0.3138617619870207 0.5014484201931751
Ni 3.1005507471200517 7.743318361035743 12.636216318151327 -0.25124305871453506 1.3824680287560385 -0.9686075801861769
Ni 7.5668964316776846 1.481007192343139 2.0046904740179996 -1.0841231314576942 -0.4107550701716603 -0.4815609372406288
Ni 6.822043727058174 2.9439828429941803 8.669054397901602 -0.5310096787900597 0.4729621398280242 -1.3092656364304356
Ni 8.216446133397767 6.918543310059681 11.865340757650294 -0.64711941200215 -0.10533423986314118 -0.20885842310073707
Ni 3.7876914729700606 7.4018972400633185 1.3083020248713846 0.08842075193725418 -0.6882452355081825 0.5406639140503721
Ni 8.031197124671296 7.364913710446755 8.852713795984773 0.31304697939520926 1.0115231486027805 1.821755916260069
Ni 1.7379129402594935 5.892531099300909 5.059228113981953 -2.768559770307593 1.8937622313950417 0.18471293620278512
Ni 7.199969745606331 3.5778849587639994 6.274951656801719 -0.6207455499943115 0.9189374666545593 0.2936868297010426
Ni 7.292511409808654 2.403147045779134 10.75270259062463 1.558542315447219 -0.7422967659369475 2.0281990450510943
Ni 5.6816568674653 6.927968679479134 8.588776759299357 -1.260494123453687 0.5117937679832412 1.8222786215327584
Ni 2.83463383058881 1.6617368100686816 11.862457920050517 1.4378405919890722 -1.6352887163703385 0.05768655607819097
Ni 2.163674549503838 4.869215796002974 8.113442677318345 -0.16487996063725796 0.309161528297874 -0.11912615144091097
Ni 3.3498075868454245 7.183291259875816 7.741624739968185 0.8754290018489632 -0.9761841069818542 -0.41790685072509315
P 0.09328170297314689 4.58338042300328 3.8069969122477567 0.3113981309378766 1.581840366743211 0.36311432836524565
Ni 1.057344200508595 0.2940374693763296 13.094737529251896 0.7563329323150394 -0.4114497822458398 -0.11443748771599
P 4.441622498756217 -0.012879804129531542 11.405902782102286 -0.1711421394968859 0.777880319468512 0.5128075539597362
Ni 1.5239091912338318 2.591157393202711 9.483780016912664 1.7680525131993423 0.15817735180610176 -0.4476668555963451
P 3.194703192229019 5.323704532159537 0.7136007936919049 0.06429223432016669 0.4600225489482206 -0.10465418307698106
P 6.2317431493156485 6.9239739428306555 1.6468835692169523 0.10374195567535681 -0.6099991101110849 0.16657483184117763
P 1.3693938822061422 6.964887777859432 7.020163335451853 -0.776752890732288 -0.7870164774418251 -0.7724097832722439
Ni 8.705847395148066 6.4361466441377075 2.3790552860931227 -0.14734786529076557 0.32048723772333837 -0.10887542024718022
Ni 2.862974370083434 2.613607076810177 4.34443534241913 -1.9595680741462573 -1.535142705576356 -0.22339698303654432
Ni 8.070592223416664 1.4985140796827867 6.970385603205369 -0.25287262389815807 -0.844852671724003 -1.29237863086711
Ni 0.5611546477945796 2.6271376364259935 11.619792395795136 0.6482704948874578 -1.0783448342130204 -0.6918476081474602
Ni 5.0036561727027085 2.438519794489053 1.0530282281250192 -2.639206027601403 -2.119324597514021 1.1737137353333336
Ni 6.6124120976362635 8.873018839870822 10.695461880326103 0.010771379583891127 -0.3802059937402097 -0.6978681033099272
Ni 8.16958621570789 5.7254885170506835 5.304331900306879 1.4262665139982276 -2.0464554201581207 -0.43905288867508896
Ni 0.5236289753471507 2.3728091379602705 0.6268404522750883 -1.1159569881388394 0.43534792901967606 -0.0341812738673992
Ni 8.295006219330414 0.5282845923904702 4.489498589086629 1.937763576676656 1.2277380120685888 -0.27116730844228787
Ni 6.917144231786482 2.9223707654581697 13.749850408000412 2.5929202571609857 1.1049513810569551 -1.443466937036914
Ni 5.600979755198206 7.726925213637261 12.667766453658217 -0.15872602522072018 -1.0408159840296267 0.8198643772097814
Ni 2.53239610572831 4.469797357929015 10.65019709595692 0.781877613553363 -0.7768235960692234 -1.3445082616828135
Ni 2.720535315624419 2.6571625925258515 6.90211150391944 2.5481246981128503 2.2131937741603562 1.5068824251790822
Ni 0.5597316379193379 3.808686851530385 5.9881268041022295 0.10301536192197744 -0.4688887410895989 0.3612546494486875
Ni 5.084047946637768 2.7485352900130664 12.298252393227676 -0.4664909302813837 0.7162391496179472 -1.4254365618977647
Ni 4.331997352481136 6.027367267880561 3.415927841947611 -0.006947120741794487 1.053869217669159 -1.6910235480387976
Ni 5.227158926846412 1.9248647745158467 10.0466936374573 -1.8312132050182268 0.37239755343938447 -0.3106517396901553
Ni 5.319258776857198 8.534515533455004 3.893592493788979 -0.4404340852933318 -1.3898764054049677 1.2088581444449502
Ni 6.316332158070307 1.0555953526670947 5.333147390057405 1.2061574576843357 0.7131204014833072 0.8592981577253718
Ni 2.5451995128205547 3.562274190663031 12.702994692309654 0.3145713864595357 1.3617012285223322 2.4554474848920873
Ni 1.8623480664133827 5.779527915353036 12.356032485018373 0.46938187867593356 -1.050281500317901 -0.39360426942398663
Ni 5.433486154294121 1.6700300306223212 3.182396826102253 -0.08958083368362638 -1.4861053405327307 0.3908855849412429
Ni 6.784167364596214 4.6180812459635705 11.33232046939429 0.021647660176762715 -2.6303388070187603 3.9388876198878298
Ni 4.994534550539937 1.281159906371304 7.511946712051522 0.009205577758668019 1.570330566331399 -0.09088798253082413
Ni 7.355810497208631 7.6983269491975745 5.183140426675856 -1.1265219081388793 1.848612631441597 -0.6211047331059432
P 1.0209313475560995 7.2607560147919425 11.167791625804663 0.4243749749479401 1.4818457939254286 -0.16213222268879174
Ni 6.781930680251558 5.4589549015437555 13.575527096052154 1.721482892969919 0.83855629719233 0.010272071349969407
P 3.6916889309340326 3.194298195886777 8.76444668408557 0.1555147173722741 -0.022525177685709597 0.718028380307886
Ni 0.4664628211934442 0.8869005694297694 8.520084777423932 -0.4207031825233077 -1.465083229755109 -0.06246160886933114
P 8.342399995835065 1.3531111883555447 12.546050325674745 0.08096403854889281 -0.19168756774840537 0.2228074290816614
P 8.887313369859502 2.9790610489097413 8.17260988158122 1.1785600076820413 1.807516118511603 0.40862696808506405
P 3.799583638292261 6.948660310782777 5.224687528712503 2.1020344429750053 -1.2666994809334509 1.3300656038949223
Ni 3.298400664767647 0.2404371239268184 3.0109839651407433 -0.2961044380035997 0.7402823066100799 -1.426685860923833
Ni 5.434222511280016 8.180631570496312 6.356522522360443 -1.7625305549398482 0.0474561365994344 0.518003753448695
Ni 2.4531272761967404 2.902084130496769 1.7324961141820052 1.3594463710498845 -1.604440106420598 -0.23221638110038717
Ni -0.03814789410050987 2.68323883428885 3.066338681109149 3.282139940767296 -2.5983841084890344 0.7185832243700916
Ni 3.446288760922284 6.731701929351212 10.194814606508727 -0.4191839176653039 0.9084622781548484 0.29834772551182165
Ni 0.36352563724275244 0.1947167186726134 2.157701773901999 1.2866062471597066 -0.36778319459582465 0.39119077488648757
Ni 4.410474598252869 9.122763516099349 9.234729357143342 1.233716855359843 -2.0455745602150643 0.9334282040715667
Ni 1.546009105272998 1.1793585530713548 6.165885221389687 -3.090511251281284 -2.558459247269639 -1.7351004837533537
Ni 2.673049494496531 0.08300952301991513 7.955756431020146 -1.026818127088638 1.8145586271806815 -1.1389223386857612
Ni 0.3414662228378105 7.631898344607544 4.347910947392554 -1.6284135865170601 0.8318567736849674 -0.1508813323653208
Ni 7.395150369180058 8.41401071271333 2.820373357110726 0.77338166026721 -0.7655320823158042 0.5667685815572239
Ni 1.1601764535887964 4.900796306235536 1.0195193830356462 0.8414503309106734 0.35533905529520093 0.6522721598476832
Ni 8.043862464828685 8.640790255444264 0.4899194729791214 0.15502389377878464 -0.8429243443530386 -0.19200432765787578
Ni 2.4312666781779897 8.37059326393251 4.8741549104858635 -0.8719181604822274 0.6048743872900099 1.0944795349913536
Ni 4.165111246090415 0.8944647965673732 5.313384489002223 -2.186120572092648 0.21115776065787506 0.34729021684879546
Ni 8.821722371340927 5.6454281037592775 7.708861456327031 0.9356660922631499 -1.4095975379829788 -0.9897870424772696
Ni 7.168950707575514 3.035014975375419 3.9701929496929127 -0.5663834303036632 -0.8378849821569183 0.47734664204896493
Ni 5.661204552182072 5.531541291428331 5.230547089427761 -0.3316651087170288 -0.48100095097210066 0.39680966373516174
Ni 3.2897300612587363 4.59719632095113 5.498444806251059 2.4322612765836107 -1.5702917426736631 0.4760657184540124
Ni 9.06838355269102 4.383321434398 12.77133690461678 -1.7899012336433173 1.1198648078336777 -0.5344336168699442
Ni 5.086873716571138 4.668807037829395 1.3618094052514265 -0.18089459089795942 0.6184778370060575 0.6952628044765962
Ni 2.277892722478437 9.177456431226682 10.473892983716604 0.5046221899354664 -0.6522050540551735 -0.28624837114512636
Ni 9.182150707011761 9.352101899356269 10.793346734907324 -1.0658302466857772 -0.3954832316142544 0.2526137138098165
Ni 6.782381698905419 5.111688946995792 3.3065650228487553 -0.26751119974693927 1.7679123880770522 -1.5677612629423259
Ni 1.7509464589098307 6.995400570462446 2.6434092849218023 1.1157052771393494 0.20887102150622738 -0.5884794908717542
P 1.363337345997158 0.9011582815691566 3.9818319923012115 -0.2914975353592077 0.8148257863446096 -0.011921948248566563
Ni 1.187403253142255 7.664712252791479 9.055259830309911 -0.20623692631749 -0.5463640497589429 -0.22087395950437444
P 6.662815733320758 6.3871697001133825 6.8555129929595555 1.7245605034539782 -0.45066861853714646 0.8579272455197741
Ni 8.361747775639449 4.2468008492131135 1.7264745549298508 -1.9152826219653207 -0.604408760507501 -1.05571012753264
P 2.9448296535279597 0.645459238663437 0.8910628272925395 -0.17126143868356955 0.25835395872770345 -0.6120428800139912
P 6.106544052788894 6.515461495980896 10.892175046876723 -0.6489790909187081 1.5223486391354815 -0.6768040835507764
P 5.099640305814089 3.0152621992287925 5.853544678682711 -0.5254152154214177 0.017568605011382646 -0.6683886057935715
Ni 0.3107177959993104 4.481984066045573 10.100202858729807 -1.7219199805073377 0.9539749178746666 -0.3009152291286818
