# total energy = -340893.08189454564 ev
CRYSTAL
PRIMVEC
9.07530057164490 0.00000000000000 0.00000000000000
0.00000000000000 9.07530057164490 0.00000000000000
0.00000000000000 0.00000000000000 13.28261973204503
PRIMCOORD
 96 1
Ni 6.547838566908751 2.0749223118285567 11.720982339658725 -0.26773462861165503 -0.785458388926086 -1.0017077051742556
Ni 4.6173224406248465 0.10941001078992063 6.087185376105521 0.8512791440756371 0.35438620446362834 -0.5080813521286605
Ni 2.8560969745439304 1.2975774260299657 4.793432281811888 0.12442828038011475 0.6353028789831963 -0.5845084220391481
Ni 3.3825370204887633 4.159773002678346 4.837689800982677 -0.17187850344227817 0.8689194828652197 -0.892609627393308
Ni 5.192406098593268 4.458259644367864 2.746421057442015 0.6052281710850028 0.07282803970531974 -0.02108407436380885
Ni 7.188336992687998 6.242881235784006 2.798024125040396 0.804598966410279 -1.0942987864391154 -0.2098945776747353
Ni 4.938696990807553 4.792221636691749 11.551243359598653 1.3884574135702539 0.6787524655263988 -0.37522011048984405
Ni 5.645499563871191 8.107919067151832 12.392392147324825 0.8587636253781404 -0.5868645809761506 0.15646191177689184
Ni 1.8067653252477762 6.602989169570569 0.38864249440681825 0.1026291822271523 0.265745108985452 -1.3121666121273143
Ni 2.744861013242975 1.5247231285184712 0.48403207306702967 0.28546598445314714 0.3676546394377604 -0.09037813277394112
Ni 0.5697437510067273 -0.0213759633881268 4.698248712478717 0.054680679372331634 0.2643045198841836 -0.033918250013999646
Ni 8.817634811756433 2.4527633832819284 1.3521708052256929 -0.5126275767384462 0.29918204848765895 0.4958169329390105
Ni 7.075131691124148 0.5933540534396687 4.964631477762742 -1.1763270045864644 0.8958186212489088 -0.5777299656647341
Ni 0.377807492840594 7.500191552383251 2.3724351737475278 0.7730245340381073 -0.43520651834580526 0.09079850814081138
Ni 7.740441989155724 3.8722947007993898 3.849463059170856 -0.8104888495321526 -0.5037541855082163 -1.1030711333151069
Ni 7.718624966151114 3.8749083874155827 12.70405521817424 1.4923214966457718 0.7430146179395785 -0.335022712335352
Ni 7.982144474048304 8.692622543915961 6.878842918717993 0.40608697527202964 0.12970058452264757 0.987958216798647
Ni 7.182256541185049 0.5400947434542901 0.49907075394096395 -0.6550525508062975 0.08459854997768655 -0.10008276165621473
Ni 1.812891153254478 6.548927602998831 9.30759668633395 -0.11098526750133143 0.12129590539872014 -0.47561808939363254
Ni -0.07754572232424517 4.9721757752767735 1.2744553747774103 -0.05510131184951802 0.40809423551004553 0.25258131790998434
Ni 6.482142464774655 2.030952479691563 7.094326859741888 -0.3851018883799303 -0.32462671381300867 -0.09537481465758414
Ni 3.4943265751355095 4.558332985745496 0.6640343107460325 -0.053308995835785605 -0.13855854913390975 -0.10881191399909647
Ni 5.96257242149808 5.619163041092748 4.9311463405829965 -0.4425650155934055 -0.39750231892681215 -1.3765079545178616
Ni 5.4854657104338855 2.6343601513028236 9.548450630606341 -0.09742372676681287 0.9139263865932131 0.0452393314537737
P 0.3555412424488265 5.59181008463023 12.382430189690815 -0.931019337519758 0.051599212233530485 -0.25041079262122684
P 3.810727860506849 6.315628846601373 12.617279914986565 0.8127133679872972 0.17803321018976434 1.3398324534736992
P 2.164967445876699 8.50931054405319 1.3516526055528297 2.063474066203304 0.09244247150213758 1.262447133415
P 6.586127260775826 7.61350575755611 5.623569099607198 -2.069523614831494 0.34433164844110375 0.25850951046896126
P 5.032943989103255 1.205054734876891 13.080897099014964 -0.569591909938632 0.6241805438177895 -1.7536273389129475
P 3.8507499368173006 6.2277436341318895 8.480036346421755 0.21526998305403572 -0.15412966409928938 -1.1695552330802699
P 4.88321967731871 0.9102345146906434 3.7399341619411013 -0.48832525254765574 0.05351699808153364 0.5227024444759449
P 0.1851488407347075 5.507781874979782 3.532977373502535 0.042149122564224185 0.7584942016324163 0.20968066189171633
Ni 1.3563127724882984 1.116071411016577 2.553185216208386 0.8564280352664283 -0.30880594473066814 0.20259238758636725
Ni 1.80193726524842 6.354180724190216 4.921462994682032 0.31908958604486337 -0.17663967227634741 -0.4340338381939428
Ni 5.804462531819916 5.500911872311526 9.33259460225167 0.4104948745317382 0.6776206659148007 0.6027365150114007
Ni 8.808305402584745 2.4381612243741007 10.217881115178722 -0.8031228960853846 -0.5472356537306189 0.1104255383431195
Ni 2.5441788877434215 5.003884876099612 6.985861587760112 -1.1273037806102264 0.27770073868543144 0.8345055241617242
Ni 0.5160188780928392 0.05490556954155011 9.437580403925638 0.10357457685955711 0.6457940083225072 -1.1772551728276888
Ni 1.6640652962442497 1.5549438800182005 11.541746964893154 -0.3567153668174373 -1.4231277112589298 -0.446660782929334
Ni 4.136476705651377 6.932050499489093 1.602601006850191 -0.3809279595078988 -0.18944633712271247 -0.33675460742479424
Ni 5.811595718209943 7.60780646868469 7.999763262925653 -1.21309198002064 0.6628648477618648 -0.49331139290833753
Ni 5.240877279902594 2.7545625097454405 4.809331301196986 1.194622974682175 0.003675649079374315 0.00942926373369989
Ni 0.9478788622044203 7.496171194150705 7.119046163926562 0.17651857331745086 -0.6812412933865235 0.17501499218873084
Ni 5.0791191193226615 4.678399214676852 7.19053321546966 -0.1841804607380828 -0.4765976796980824 -0.3441056484732268
Ni 8.101629883731617 7.232597234449013 8.922705921257458 0.038318950184856586 -0.5373798439824615 0.8211879811172116
Ni 4.448803180985666 0.4935257451823049 10.597671561233337 0.852254620615029 0.5691010863451424 -0.7860690259268914
Ni 8.508602670594637 7.020643585417129 5.020485416232736 -0.15000124375321264 -0.19365369033584068 -0.5841168430276844
Ni 7.112794189239426 5.920136315187949 6.974052806423341 1.7891340164599894 0.202174069102026 0.25513596601103805
Ni 2.1081651384782587 5.613336698010818 2.451360341785875 -0.0664416765630017 -0.9606952673176358 1.2359172054452714
Ni 2.3897989466737837 5.072875312406201 11.459461212986831 -0.8316464574463741 0.7809982962722033 -0.02652324310150916
Ni 1.1328607174053156 3.2303351515992857 3.8928439042891307 -0.010028330770279504 0.39562592783970574 -0.35875090919022734
Ni 3.949017293345549 2.4835105022251964 2.4353551413819945 0.5545463284594192 -0.5471204683089932 0.7294016551418341
Ni 0.833985652843669 3.3092085904233537 8.090111512018867 0.6513627606595362 -0.10293180106923563 -0.3393092555258479
Ni 3.7317908945775256 2.712180855239814 6.743400407724777 1.345752932723192 -1.2045890847559513 1.621589364506375
Ni 4.013433778073801 6.693678649972009 5.8660702109658365 0.38725518727750724 0.5319489027748774 0.30568333994128644
Ni 0.5544745574937259 7.639542795409781 11.202322549047441 0.894183656748647 -1.9097982018119821 1.0764082793119396
P 0.2802171537483452 5.470092150962251 8.027444745275345 -0.1547439006445206 0.9549483375315296 -0.6937165430353989
P 8.543261244161444 1.448844538942124 7.9903721417088605 -0.07388527732524049 0.7988438090940565 0.06035638960087024
P 1.7929164163022546 3.36907834947552 10.378268905345303 0.4610697592658124 -0.6107136196796064 -1.1135434936013404
P 3.9584283802239937 5.974288634767194 3.6528003843737737 -0.1742806851258676 0.9737467011849551 0.7078961769698905
P 7.001930315269248 4.019840940403774 10.538231063906677 -0.4971166255870407 0.15415228980710874 -0.012129179163366206
P 6.160132643539403 7.901818987104128 10.166968677967468 0.6666659666755099 -1.1678665325239372 1.1585416555785852
P 2.457355485461767 8.3474707057665 5.763448525137416 0.1061690770596107 0.5078283555775899 0.6068163415077292
P 6.994942333691232 3.9613143258627064 1.5712812364295556 0.6411660226321925 0.4116865808469943 0.7419730640489415
Ni 5.5025545017473965 3.3342019686906976 0.21369247665571303 -1.301198543151585 -1.2551608841662318 0.2849872450445156
Ni 1.3896826533485098 1.0172686117440388 6.876492415823569 -0.016574359418913394 -0.5778389804387726 0.5938129872695257
Ni 6.851897443259181 0.6000688684650891 9.143131363540094 -0.1426795132808188 0.2184712636001528 0.01433595700669789
Ni 2.583837952023847 1.7403976508581305 8.925243375347346 0.5463432238233366 -0.3850594651777691 1.1850692695554685
Ni 6.42391533515836 1.897200697228197 2.4417178347382884 0.5278621343000135 0.8281433293891222 0.32760867925946807
Ni 3.8078691407703875 7.05414052048785 10.601935137526002 0.9927021592415355 0.49845179945869644 -0.9578164031079441
Ni 8.105768220873921 7.28066910252531 0.039273363998522 0.3857102113878906 -0.019735787866030526 0.7764358737125016
Ni 7.585853316168821 3.965098726275736 8.311439946726193 -0.36545300380075124 -0.4291885942864996 0.08381719172697177
Ni 3.338412908239008 8.549677481792166 12.479087587865896 -1.489304564196319 0.023560818039075553 1.4120961360351163
Ni -0.04647280008402807 4.924975136072542 10.157897007337096 0.6484594709698123 0.1540792704773282 0.7197003686936702
Ni 8.679626713241003 2.39707733787582 5.7724938773956085 -0.2597780927687397 -0.696908053389503 0.36666347916908465
Ni 3.7683734319034743 2.902798472206875 11.669605247049034 -0.4688062086781216 -1.4671537391308926 0.14612581995820642
Ni 1.406789595263522 3.3174217376027095 12.979178405611234 -0.6880202639815698 1.4558244301610026 0.6511285331615431
Ni 3.3355178872995443 8.491586481687133 8.048882420708576 -0.8545490730761607 -0.9547135958129042 0.6245916632132791
Ni 5.58733596136015 7.970863875215221 3.460865941267791 -0.9903303165752493 -0.65758868696459 1.2435623806953553
Ni 2.810666018986079 8.217085859881633 3.5458615779782607 0.7822046578754787 -0.44070533667684747 -0.7443605904445116
Ni 3.631899059214907 4.113942733887465 9.199343776389739 -0.8150978090590737 0.2311077214172407 0.34773527480601407
Ni 7.2571005464758205 6.1088390436966185 11.524306959440592 -0.42441482704693995 -0.00893149816167494 -1.464289015988588
Ni 0.5823983503734605 0.038369464043755325 0.18864736917409058 -0.6311688022101646 -0.026474392141444727 -0.6988134979423319
Ni 4.470338869667005 0.25137857055294294 1.542789329722829 0.38798255236183504 -1.06681960718224 1.1710109916901896
Ni 5.976875095481135 5.684178495670543 0.4710153692003444 0.1405077024404806 0.450081892795741 -0.3311339188039071
Ni 7.89303409597748 9.066534010144293 11.337061724232479 -0.6021811567285629 0.03141965196186202 0.08556811297980747
Ni 0.060127497593485305 4.740283690495668 5.657107781061371 0.39187545965833803 0.17448277383434466 1.5355751651280845
Ni 7.700773849574548 8.881633832650154 2.842281644211186 0.19940010590131466 -0.38486637533035656 -0.8334020066849002
P 8.579907308592647 1.6406782462097746 3.5519846833947373 -0.6701870924548909 0.4381882266819485 0.5231446742196862
P 2.151127612231928 3.3118495029417985 1.9327804138211966 -1.6666548893864457 0.24240437737698256 -1.1735828661824241
P 4.70086965933551 1.0812676326377597 8.285937444086738 0.30016780943969595 0.24553958057185452 -1.1054900271692445
P 8.637943856893179 1.7168109442071406 12.534622983279542 0.368011765666863 0.8053173326335421 -0.5274021639444594
P 6.37754054832244 7.65037870450608 1.3584935672586844 -0.24449648401932086 0.6609406341559585 -0.055611675827033254
P 1.8357972123491675 2.9981072806904057 6.024571246106352 -1.2845239107093813 0.610945018964122 -0.5653537034875682
P 6.909298720507164 3.894347681623517 5.964799500302293 -0.09650892826202734 -0.1985094757662452 0.14622403609896753
P 2.370005715736574 8.849343912579272 10.512822036864954 -0.1679362309650785 -0.7958947537680616 -1.1379170373496983
