# total energy = -340895.1132395896 ev
CRYSTAL
PRIMVEC
9.04282030191277 0.00000000000000 0.00000000000000
0.00000000000000 9.04282030191277 0.00000000000000
0.00000000000000 0.00000000000000 13.23508157413925
PRIMCOORD
 96 1
Ni 6.2431722351040575 2.2916496270494107 11.657843979582285 0.20919266651170426 0.1171633712875853 -0.4768187945699531
Ni 4.667207584430804 0.2698260045561919 5.975639489796943 -0.05699492932780507 -0.43939484539554 -0.2979237506005256
Ni 2.597025671376496 1.449980077100113 4.837011857014906 1.1316389176504704 0.8773174771209278 0.4251635322875065
Ni 3.7248552723394335 4.505657598292119 4.831387222736806 -0.9981899218289843 -1.2587048927637483 1.3894002370994976
Ni 4.937886326949093 4.503514449861396 2.7214639226641784 1.7638312760291428 0.24099129907953978 -0.8725215983941811
Ni 7.303741338059743 6.003130568042687 2.569075217855306 -1.0645015005720246 0.6473711230016399 -0.29570180324854234
Ni 4.8682204387200185 4.477869011255781 11.433667940882534 1.6466370515036222 0.7111362811737431 -0.2889295175217153
Ni 5.645604578568006 7.7646629357913355 12.387956775879196 -0.28354922704640845 0.6825479280130891 0.09746486441739344
Ni 1.8761049019986986 6.250713947303311 0.6233116618838386 -0.1870788653318004 0.35234526277419964 -0.9809218787771558
Ni 2.5529238363695907 1.5082520116468627 0.3390632630991223 0.1961224635913074 -0.014097615743646687 0.18740616676423208
Ni 0.5232582800404094 0.30096043513416504 4.770664683866318 -1.0249191102937123 -0.765445693249585 0.0028215286091951407
Ni 8.399586483328726 2.2848584689419296 1.2893126702307895 0.921298253577252 0.4571547404821223 -0.1438640205072232
Ni 6.920913537153994 0.48457852013502967 4.693557458744238 -0.07987157681566244 0.2607751665746864 0.8030365070191654
Ni 0.6613150188245851 7.34063604522156 2.389528210590777 0.598870090077459 -1.066328012257802 0.47747648275861
Ni 7.545229856382362 3.714257086850795 3.731022475840502 0.16340774696710567 0.2723420454766794 -0.38845255001971807
Ni 7.751903516231208 4.078718919559082 12.602034697057478 -0.15799351793006983 -1.1804903919355347 -0.6215634179099166
Ni 8.121456456815011 8.918020418694912 7.132742508903074 -0.30808963538993395 -0.3243420926930543 -0.9179542768056835
Ni 6.777639091008944 0.6314854672278496 0.3372854446118642 -0.14042362736710653 -0.5504083950316456 -0.13154457970992184
Ni 1.7526523181327416 6.680139401641617 9.210306980517899 1.037847388319606 0.16083741513676816 -0.24990351396750507
Ni -0.06245062184564062 4.6809888426941875 1.4660762973814934 1.177923402539307 0.11443157417871905 -0.00899346174786193
Ni 6.417300784395214 1.8705345246428953 6.855944489831744 -0.0023484456275185365 0.23534747053020114 0.8033208710288037
Ni 3.6452603673300468 4.270291069368655 0.4338844690690646 -0.5846950841286576 0.3885029436416793 -0.021957992328329925
Ni 6.185044985683433 5.696542785784306 4.696759521441788 -0.6730857541589247 0.4213351596803518 0.5176607682869795
Ni 5.418855857469349 2.8161874661739863 9.171990741991905 -0.3690476631305451 0.8634584597506484 0.7572862973672443
P 0.33997025798351693 5.559978112363293 12.45198808272775 -0.0837580563542622 1.3982985680303919 0.31338533657123446
P 4.092002822701412 6.216857627790115 12.620378058203984 -0.22031011658110444 -1.1379334924099305 -0.31404431031147206
P 2.1269617822378954 8.589476668547098 1.3639674824650543 0.7347166395968443 -0.6917079972458023 -0.8793036543130212
P 6.432266652128745 7.729386893478042 5.885601031527462 -0.7994441616822167 0.5566626034714736 -0.8840848777517484
P 4.683168162406442 0.8786203225974868 12.642759038651409 -0.09325339743920714 -0.021523733004388736 -0.9109035406064894
P 4.100783401293109 6.216179416261405 8.11409740958749 0.2519172019634242 -0.005080499846700928 0.3625540849864014
P 4.443271180471196 1.0579105137631442 3.6711996975981025 0.7744108728626727 -0.9992738989217824 0.4963118702975582
P 0.05200887714962388 5.574663652664956 3.6521944019995765 0.9525908930429466 -1.000915291179947 -0.25282531559999033
Ni 1.4789442307862148 1.1598411851180421 2.6938950761631424 -0.9980546818027005 0.7480470381571633 -1.4304206453759172
Ni 1.7562061465431813 6.441933427117956 4.737550779906551 0.7862775423932716 0.34140007661660554 0.15490845124684288
Ni 6.034138399135301 5.770748169845546 9.238417491959863 0.5317995216812067 -0.059749609254806775 -0.5065209496200761
Ni 8.625403793927955 2.4757614500431764 10.219415201239158 -0.110926389238938 1.0254610988401114 -0.11454521693844788
Ni 2.451291578087325 5.189041620260922 7.114227334169295 -0.7322339823843067 -0.15876536309908787 -0.5346778716702663
Ni 0.4688856096427222 0.15330474251364948 9.251468090336317 0.6406682570601676 0.47636962284767637 -0.06382429354481266
Ni 1.3994307111602728 1.3276216745004745 11.264099685910422 0.4320224641908688 -1.1855433809784097 0.5922654402767478
Ni 4.003880538071046 6.819905233478142 1.475817223497843 0.7054034924550239 0.40261470045271314 0.9695151796021111
Ni 5.964626238852733 8.104320312189609 8.069190763566516 -1.2713742607013008 0.28341527257170546 -0.3371778110051419
Ni 5.321256697077811 2.735272309388711 4.721192317834069 0.10179151681720534 0.11030778181833262 0.29599053813355475
Ni 0.811376101666925 7.2476487232252484 6.828335854921025 -0.14155491275807236 0.27079424137358526 0.6209617797701757
Ni 5.220004237251623 4.399847556993001 7.355687819748726 0.7669245917879566 1.067519204352426 -1.0080868692277218
Ni 8.255407755145395 7.289688795184876 9.023149535619206 -0.6140678808638199 -0.5612021432130399 0.5162096376627496
Ni 4.662758516802467 0.2555817538892086 10.39315219640774 -1.0572095948963018 -0.0035897742337873658 0.002647722035492214
Ni 8.324223618258488 7.231272175512001 4.860755590494019 -0.2800851797572079 0.30632842972445307 -0.37399292295096237
Ni 7.273782474131534 6.109031037545633 6.967674865635481 0.3971935294371417 -0.9794450371213133 0.5324813782395796
Ni 2.2851749676553275 4.994268312035838 2.832743966012851 -0.06759790165463198 0.66066758300023 -0.9197064836101
Ni 2.4616456074256288 5.418177645940638 11.434064920697338 -0.5018932210400776 -0.35477289837908577 0.16601921644802378
Ni 1.020690265067548 3.229326801002874 3.9163794952009785 -0.09443687622434704 0.39561050122073804 0.2430037015238783
Ni 3.4787187443400573 2.765728528437974 2.7556231766601975 -0.6564131785992501 -0.5049122103720595 -0.13659294076710668
Ni 1.3767061035383015 3.294199994429066 8.276902539195307 -1.949133766186811 1.6676198244028761 -0.4710957760432467
Ni 3.8657152854422767 2.6678671262553353 6.918982895002267 -0.415149342584614 -0.5521860557573586 -0.4316892492211662
Ni 4.029661618982403 6.683593759027847 5.941016339115286 0.39033176932030195 1.2981132193580418 -0.05523732320675003
Ni 0.8933791097442512 7.492410742526439 11.383216237402827 -0.4323142843996748 -0.2534128126723443 0.7820825304753176
P 0.24758970923489182 5.543447836703538 8.106183133188464 -0.08512202658132438 -0.539346223680213 -0.6908155673385199
P 8.52047994902635 1.7453276336226755 8.01879150844503 -0.6331346676872839 0.3685457837934621 0.7142092636721119
P 1.9476516968673958 3.305051378888424 10.339483961717871 -0.3032215086643552 0.17537031864562055 0.8309388898563883
P 4.081449851314686 6.238650824912658 3.720103270228274 -1.0058484668155063 0.29645205115100554 -0.4497129394920965
P 7.016559448342848 4.185903469556385 10.355233841978592 -0.5013005817614011 -0.6983404149606554 0.6878076337501317
P 6.3490727046070035 7.809741395399583 10.210653612570265 0.38624140130101225 0.04636521752810079 0.20029459269112598
P 2.27432358319597 8.53883687440343 5.8417795239524235 0.7196713152279476 -0.5069611224812882 -0.24227068001259566
P 6.828025686181895 3.8452061688140913 1.4769421503534632 -0.5789985479645126 0.009813386545996004 0.4536076465608123
Ni 5.10509711864741 2.472451777783072 0.7334604484026234 -0.19093372030151634 1.2991370326368659 -0.05106802232040882
Ni 1.3458067862902814 1.2409552839517395 7.05623120564422 0.8173408394569793 -0.8769791199449024 -0.6077313971228309
Ni 6.832330068684106 1.0035541204421459 9.646283053941504 0.2014119941250209 -0.7916537191035204 -1.900255295318553
Ni 2.835846557686189 1.6930239605285724 8.972564902679872 0.2812498894892705 -1.5433085292166002 1.6613018526046484
Ni 6.380324691849953 1.7752955403712676 2.582958659989016 -0.6696882984416015 0.07882796604249649 0.32499103913096283
Ni 4.195045760963394 6.745202494295849 10.325891698400488 -0.6356088402593892 1.2955966235837753 0.17282261252310235
Ni 8.033912912689145 6.994413581225376 0.277615490033934 0.8204608731431998 0.7514226394976156 0.4937327967164723
Ni 7.716627473917914 3.808573703443377 8.175336293501834 0.04150994631832851 0.34865033042111565 -0.13815668570980078
Ni 3.1409332317610246 8.24514415401092 12.469789778933325 -0.36372290848352196 0.24500890487936514 0.08004641183062988
Ni 9.320344540345975 5.044763421053382 10.309148916461737 -0.6145491913756126 -1.168522678050697 -0.3510928784243373
Ni 8.567981884497188 2.4113675260972722 5.80088336877122 0.03438516234808917 0.18620957535296964 -0.19987833108931385
Ni 3.64103737021128 2.544459756491292 11.490776968728055 -0.03947080440111266 -0.4796711764170836 0.08320578339521799
Ni 1.0878241635894397 3.5258951382771144 12.43966633567415 0.5264179456543192 -0.9180944019279736 0.3625335161611111
Ni 3.180016301455477 8.290213570798784 7.841918463167693 0.2574162774047825 0.09617468485106018 0.7978086829613228
Ni 5.384348454888591 7.93432433181339 3.5313054577121425 0.5476583430903342 0.14350278051306253 0.4448661529227565
Ni 2.7161919583810072 8.344425278993658 3.5254285287453624 1.5034687715118429 -0.5946712215047628 0.19217993400379157
Ni 3.5301362210366465 4.418647580568837 9.318238467478821 0.07541611214747011 0.07467357755449075 -0.18565910216613832
Ni 7.279461365331932 6.2219125643841 11.417455068218215 0.3989647624049516 -0.6693807945035116 -1.0628914757724275
Ni 0.17405982385624721 9.156036493990536 0.44463547822217303 1.1902610981690533 -0.43251791577004867 -0.458691488841623
Ni 4.597767766711299 0.2129765056556563 1.6481381129944785 -0.7632211747944403 0.029579256319013574 -0.824895768986102
Ni 6.098866907435369 5.498486933760266 0.3039147245532251 -1.5512457817858059 0.6605302860914173 0.5567729037970928
Ni 7.994323445053254 8.841084102878067 11.272292481177237 0.1871958505256389 -0.15074326412555974 1.0957278055761581
Ni 9.175207273202068 4.87439668504147 5.764063717018582 0.12934500095544174 -0.5453389509285382 0.6912084319015644
Ni 7.968641835166109 8.673583940927502 2.5401562782711187 -1.6915776207700546 0.5993678556494839 0.03181508762806779
P 8.35790812418441 1.606863967921274 3.396095398784471 1.1749733187720475 0.10168815847012164 1.4059460572733207
P 1.8276986844895815 3.3685048495145167 1.366535643453769 -0.3394118425419832 -0.4663726595359645 0.6183330838980771
P 4.6970488916940365 1.0438127567863624 8.182946731135997 1.2069192755510247 -0.6924636444649042 -0.5561622667962873
P 8.446437335732002 1.715730482509778 12.353585919886221 -0.2567027962775256 -0.012297843530746564 -0.15334599185572945
P 6.234572512920017 7.663265790839024 1.3826951634778286 0.3719658652186046 -0.09632226617251798 0.49060196439697445
P 1.9922508869953552 3.2348971783586777 6.056426238532783 -1.0649632706997918 0.4212767956385906 -1.0493253070522186
P 6.938782150230404 4.004359807551334 5.911343228311173 -0.23021811972343575 -0.3180156362543943 0.4301255042784721
P 2.38534228903558 8.563831229941483 10.19445430413652 0.7838491354574372 0.5297470100275522 -0.0865171071566381
