# total energy = -381169.2786928344 ev
CRYSTAL
PRIMVEC
9.21005476470463 0.00000000000000 0.00000000000000
0.00000000000000 9.21005476470463 0.00000000000000
0.00000000000000 0.00000000000000 13.47984611474620
PRIMCOORD
 96 1
Ni 7.22794959317643 4.091879928305312 6.027027539824183 0.7313148130041469 -0.3709723909570837 0.26613771643818035
Ni 2.5917185937486904 8.219826430692166 7.295346931229012 1.0352942828804494 1.111985405085601 0.6389039660708932
Ni 5.915249711340876 4.298175942823302 2.8268448423952424 -1.079018206130961 0.5588896930297794 -1.8173675573843864
Ni 1.4101606803367994 2.0527830347712936 9.253617305998423 -0.6748343614189152 -0.298218399022809 0.31354525918786647
Ni 6.3883241693843855 2.540612000393615 4.252742743143975 -0.4139455520845 1.0602928618073157 -0.23808338140412544
Ni 6.918187824513386 3.148659809602852 0.7392938512506547 -0.6637410797192311 0.3110564313277417 0.257967264812246
Ni 5.109213356924565 7.543541326444587 1.1811499079900796 -1.0613922655190817 -2.0752463762478843 -1.0844668879503583
Ni 0.6319607951503285 4.296803644677707 5.933100639299212 -0.4314213402717602 -1.018996059941058 -0.6192563670432948
Ni 4.268215634986924 5.309099173393334 9.21808491508765 1.6045933441690108 -1.348933901554335 -2.3926009818795118
Ni 7.294004105258355 2.5126318543109485 11.95213477267667 -0.8218425839820749 1.0395263186839259 -0.4742039826549253
Ni 0.8922387820908751 7.467171553134031 4.106648250966127 -0.11867286595357626 -0.15244661996991163 -0.5414452723010869
Ni 1.8609560161373948 3.784558824129398 7.95689686901258 -0.5288633218710183 1.4063934292233844 -0.2769008684919554
Ni 5.738858744331253 7.3345559759634185 12.188948303338478 -0.26217127559126463 -0.7107449592725953 0.6715932287737982
Ni 3.965739019566601 9.000986427449067 2.5391715478434738 -0.42809484700168854 -0.03472480507569504 1.1646737366182522
Ni 4.86681392810636 7.73633540081867 9.802395650399964 0.04635030512976534 -0.4848149254015521 -1.132363968741953
Ni 4.456165220605417 4.489745079926485 4.760987636949788 0.963728911937637 -1.2178595766126123 -0.9940221636045395
Ni 8.858350310799212 6.300773389706363 10.184508845521732 -0.9927664368205676 1.1703047096517847 -0.972836273555544
Ni 7.891174839904186 4.848651700300231 3.693140742496106 1.2950978295704858 0.8305588808091503 0.9009821677277192
Ni -0.29389652849122144 2.746917224966274 2.1063072674768297 0.6606009914283526 0.5819951686989913 0.8876224585913617
Ni 8.820515406221332 5.180047887379401 8.000032160052136 -0.07964531973746929 -0.5119135813905571 1.461552333783715
Ni 1.8944898251851203 6.671459670001021 6.037650416878741 -0.9410823781827147 -1.1945939212164522 -0.9064444763938713
Ni 2.641185797372786 4.4078861140335475 12.914433519624765 0.8253014890649529 -2.03546883923963 0.36402141356054724
Ni 7.100242975144088 8.526631771806647 9.701715016786636 0.9371344492785602 -2.7633118916450927 0.5574105373810917
Ni 7.045415519702971 1.5707379834807413 6.459353031992724 0.4651434151145538 0.7883537081960101 0.060716601153766404
P 2.809987679335629 8.09318817900136 10.123148698304302 -1.9711830326773665 -3.1728510871317805 -0.5331228684783205
Ni 0.10857272945869573 3.6649938944239406 12.97652218216647 0.4716516485467167 -0.31716048734295055 0.6684423418496424
P 3.212209186814966 0.9781078057864432 6.553455844561861 -0.15182595566677723 1.0646493390037985 0.7578930777133077
Ni 1.311474944564655 -0.004714626984765351 0.38240607486022615 -0.20816396813687377 0.24772064738357338 0.41055452412508003
P 7.431178659489836 7.192435622374995 8.02770653231981 0.0706657419466783 -0.3376897176445539 -0.5390608312293104
P 5.587021783067644 4.37752056379176 7.316820173688438 -1.3188252550944126 0.2893110692308501 1.1392730371569606
P 2.364709166281419 4.97644120882459 4.6437123268349 -0.6049121825064807 0.3833435109279269 -0.11536822706037551
Ni 4.887352350016942 1.832165385243907 13.132403278434982 3.5016303896605825 2.471137899044151 0.33541017758175784
Ni 9.328956474191584 3.8821301432866635 10.220944742795478 -0.4066122516478804 -0.6407618452152384 -0.0606284123153343
Ni 0.9969884178567088 1.7510524337791122 6.87371062850864 1.1769294140571538 -0.9981814371885519 -0.9862211795028822
Ni -0.21876734954450058 0.3887849587235754 2.097612054864372 1.0114048778573614 -0.17639284637286395 0.0978800975779411
Ni 4.448861647253358 7.850024315645675 5.133287518822355 0.2557620296308111 -1.249978568634344 1.041367999878355
Ni 3.1538634904905107 0.5031572596069765 9.01885301250034 1.245269336084133 1.9372876654815023 -0.7403771803167314
Ni 4.253497967626786 3.020511108946425 1.6703419617033277 1.0699039025345187 -1.6191067072938374 -0.916533742309073
Ni 8.322140928003668 7.441714962030511 2.0460652208961467 0.0935822415335356 -1.6386126385372488 -0.5587146009044959
Ni 5.599363256323329 0.8290062307593553 9.164502659037703 0.16269966515648754 1.953944557311893 1.406191083404591
Ni 0.9238053234614256 1.4093962457993203 4.180868397517075 -0.7384043728610766 0.6703819820745164 0.33900380847028716
Ni 6.106164934562601 8.426859249583629 2.9583681070821797 1.7039209728267555 -0.13510118671292862 0.9750340525378112
Ni 0.2859068060663651 8.800096715021441 5.893914619701476 -0.033165431008375136 0.04285591882326168 0.3597438692311159
Ni 8.366008418389363 7.168692101439802 12.486812523380856 1.438698054893361 1.005606011787397 -0.4574154503426768
Ni 5.1392841854169635 0.11022132924434332 7.171817072988797 -1.164754983478149 -0.08127025693540196 -0.17728141962540434
Ni 3.5704803134165917 5.234267479212402 6.698351187621881 -0.25400416639943996 -0.7301179644825684 1.506272045288593
Ni 6.952863680339995 8.504131608251692 5.921979498287092 2.1551578051625464 -2.8948482438248986 1.559657917108901
Ni 1.4794110813886663 7.224762914261157 1.8679022393683191 1.2738985697850511 3.190658547626847 -0.5140481112350567
Ni 8.54110076769074 2.7688371550771187 7.914934017932314 -0.7354146941051335 0.9589453745060645 1.013413166536642
Ni 7.720687517937021 4.93307106139099 11.923517290810949 0.08740336641633334 -0.24097021603361726 -0.40119056641167683
Ni 8.667048265281414 6.232766346034732 6.054445872572076 -1.243694278287529 2.3571840358327982 -1.375207233428567
Ni 4.482662547886468 2.17375710284102 10.956163144855356 0.35521692789503984 1.0361887696702607 -1.7757856201775415
Ni 3.220046943337793 6.974286267498745 3.374140367995166 -2.549224873155565 0.7583790162107907 0.637313995875954
Ni 1.019783303161054 5.354541583127329 2.9835216873871078 -0.7572826978228184 -1.1389434217316836 -0.13516083630627043
Ni 7.7794476667215555 0.6904059600652026 4.034302350540203 0.43323242533857 0.2886454106223932 0.3873778288983006
Ni 4.032097463452583 -0.19062971152700378 11.526441440874859 0.6527704396403403 1.698416755179075 1.0499673115115917
P 8.587989156007676 -0.2220286299025889 11.534758120240445 0.3208381933048539 0.9110932880197921 0.160323194504511
Ni 2.0327787960314803 7.9668354390052745 12.098067167892355 -0.8574875868791941 -1.717337246232662 0.3297676345839998
P 6.273244536302449 1.555440082676492 2.1848542977110017 -0.3364473605970206 -0.3274040194478297 -0.02733288348699809
Ni 3.3886830443166045 5.007119900925105 2.128225355576741 0.27360085758444497 1.8631067112927138 -1.0404742844194919
P 8.025890309539198 7.714968073987931 4.0859707572300525 -0.850656937110606 -0.473925532182558 1.824055253817207
P 8.286967729224964 4.754451261151609 1.5679086546866021 0.6977187222162564 0.5266411174087188 -0.6364516478756588
P 2.890557237574987 1.8216659229219057 12.421435871322526 -0.6167076324795121 0.10338174412246066 -0.9514704062852583
Ni 8.039954063017879 1.313482736482371 10.101984913681736 0.6475840103433943 1.8746550782519456 -0.7589184336540284
Ni 4.803135610128889 2.5483852865337635 6.240656599869171 0.8309255201199495 -0.24444480484577902 0.2545937203543228
Ni 2.623272241042705 9.12145394251203 4.8060773015899825 -0.6667073614364065 0.14928699129500742 -0.44239018057843815
Ni 1.9565932238142916 2.3170839735910067 0.7876097980411979 -0.712569928296476 0.18833742032924983 -0.7527035630925683
Ni 5.576909143041715 0.5204905824929473 4.901973311803062 -1.9629233637717356 1.6609197866748817 -1.207357648640024
Ni 8.41990565830897 0.3277922926874159 7.957908133015173 -0.16701860424681558 -0.06766037946145122 -0.5718274841373701
Ni 8.377843338638286 1.2528345264908107 0.02678375998123875 1.1657122051850959 0.5025051435924637 -0.7905085497554838
Ni 2.6612821366592834 3.8649810214940614 10.472653694872523 -0.011962314568198754 -1.5383763820223053 -0.586691545733396
Ni 6.826317529195873 3.445011738668675 9.741857961064422 -0.7524423390113816 0.37917446715190184 -0.42526920462743534
Ni 2.204527895488219 3.264651238096962 2.880225398247951 -0.8900097278766156 -0.648848993098747 1.6208182906683053
Ni 3.8095549124994963 0.2703261565837952 0.38923993542419544 -2.071335214118936 -2.503818162885991 0.17445243481704148
Ni 3.893292729544791 2.816600498587556 8.535923795961619 0.8683121882985239 0.09733425237680011 0.1478983384775969
Ni 4.993700851273214 6.9576160685489015 7.439418895401674 1.0369906967462656 -0.22673041828515145 0.242741191891111
Ni 1.1583209454834613 5.864290478860496 0.30758727475583114 -1.274122255760083 -0.6684690813225198 -1.2283216524862006
Ni 6.361937362759355 0.3073736014875237 11.807374817420277 0.5849514231138377 0.812993104011245 -0.2185633090933268
Ni 4.039428666968647 1.855328672734989 3.7333380260964346 0.0042160949638766106 0.5647314965225372 0.6982707380649845
Ni 2.114168049136328 6.01912991794601 8.904947661388627 -0.29809267207822215 0.47433742290899605 0.47784440762098995
Ni 7.139173876227509 6.1009704637296105 0.41405366471185867 -0.3484924646870127 -0.21982186409077628 1.5508074086968064
Ni 0.8057830779129286 9.03009941025595 9.744297704546089 0.17414390243768718 -0.3388233170283648 1.0296499401104782
Ni 6.154315100369112 6.254695486200247 5.274474893872867 1.2077425427832684 -0.5177885521140954 -0.002148670911886622
Ni 6.963123681240617 8.869522107112008 0.6124078490892682 -0.7050306824966374 -0.5700002011206441 0.4771761779093718
Ni 0.47828734898583597 7.46933591598111 8.111713282961423 -0.9258581050337925 -0.3163945557112035 -1.2059923928613812
Ni 3.7651348188336953 5.776730489127805 11.27114609350993 0.9140176607554387 1.3984674895080884 2.060914018785612
Ni 5.150115209707029 5.125791455327725 0.28467265874079656 0.4300524849486916 -2.209092093287157 -0.7782086493422081
Ni 0.8682871139201762 1.5828399953150485 11.557809045064573 0.17861170840105367 0.18654638986709807 0.6801575734040415
P 3.509242659926252 6.310167645468154 13.611409011684954 -2.1168884772687027 1.7445068646689181 -0.3515276519689107
Ni 2.6346927088315484 3.039539081891385 5.542399989204604 -0.3399013805838921 -0.9732149970512014 0.07903365429539938
P 5.001050474898615 6.122669352528413 3.464751648839504 2.4195116902274267 0.5701889200926825 -0.736243617764332
Ni 1.3945680577831605 5.575214492982726 11.246922728726513 -0.2856750151401596 0.4778935156913705 1.4432347664214498
P 5.632740494441691 4.293073572536996 11.548480180690927 -0.34280261339108703 -0.2694706374661553 -0.35447490752269273
P 8.527331735961448 2.9287697543942706 4.457434366138726 0.7453422376314905 -0.24417329635194723 0.6791481583029206
P 2.315278802875996 1.0494673093573788 2.566454492787741 -1.1672916338570736 0.14721159682321744 -0.6076473220494567
Ni 6.420476470231846 6.029214927807933 10.290001732699308 0.11075412532713183 -0.18129876831491357 -0.7501766829056564
