# total energy = -381170.48373754014 ev
CRYSTAL
PRIMVEC
9.28968064089921 0.00000000000000 0.00000000000000

0.00000000000000 9.28968064089921 0.00000000000000

0.00000000000000 0.00000000000000 13.59638663326445

PRIMCOORD
 96 1
Ni 6.85023826394582 6.981557187382716 0.024537762051939693 -0.24314716908027806 -0.4278331086998697 -0.0886467519051312
Ni 4.602470013345556 2.170719640598451 8.645126229841795 0.8635271082050547 -0.5865285377929705 -1.2126114408397954
Ni 6.349663830626833 7.172664494467028 5.687762947945238 -0.9806174601628597 -0.6352105763797061 0.3704088051441298
Ni -0.10645044875943703 7.735266124432036 13.578085916375738 0.056696167140463646 -0.3792374591793533 -0.1679740261815494
Ni 2.0900387655242114 1.6578178012663944 11.15771168635931 -0.4659911078268297 0.9583877022303817 -0.848651476644803
Ni 5.658186463194362 3.9050658297590983 13.149038306974036 -0.060580846906850505 0.00716720717240056 -1.8329073048911981
Ni 2.354237278720685 0.8504823256400948 3.8242149535318526 0.5758152651405244 -0.9950642317158089 0.7617736437146365
Ni 0.7027801216872591 4.340352388579322 1.2111411651947575 1.7416866216113038 -1.1745521720742287 -1.7274329399057669
Ni 0.0747317636870728 1.9387191599877363 -0.15079752549281694 1.2865957056367454 0.6566877724168755 0.6135372051713305
Ni 6.617550346978685 1.7694890504624143 12.013264319612013 -1.268989305408892 1.772359368104812 -0.02824074001324814
Ni 1.7350336255170655 4.88646483567078 10.418829079375444 0.2267425024700095 -1.1631200189778872 -0.972422325946577
Ni 9.360189167075761 5.360108485243051 12.010205227825951 -0.12354433511326465 1.1779246880908874 1.1122186041423296
Ni 8.369268238659636 0.44402350332308155 12.225286413356331 0.3874912145477133 -2.380704744662558 -0.4658815788321589
Ni 5.330613749680506 5.540105334458764 10.321193608435 0.10594899062900463 -0.07882770893218037 0.12507131328075233
Ni 2.093299443376953 2.804926127796877 7.366821603656911 -1.1432423062173536 -1.5970947217991205 -1.8769754988550063
Ni 6.905456124791102 8.391832872575044 3.6773599684399 0.6451964839478244 -2.230198536248469 -3.2117498210795072
Ni 8.298267210658206 8.411833554674622 5.3592333973406925 1.6435851520511757 0.3826559979425991 2.187456774405568
Ni 1.6687331758446593 3.4994226413892946 12.473922853792372 -0.5062988063069409 0.60633811631973 0.3397640836750794
Ni 3.7220219653419635 0.5612629870060905 0.9649692769932826 -0.17749636384968787 0.24090799533711413 -0.38945579447325185
Ni 5.791920703559215 0.7159649652097541 2.357381835567274 0.6768166819562667 0.004474747941901971 -0.8438000620897728
Ni 1.5636204410760906 9.10415628303188 12.554277661081336 -0.5784100224508941 0.29343434737060436 0.14541850947853668
Ni 4.373562996338723 2.843013817814653 6.112187083366002 0.31471639667783213 2.4470078387651664 0.2813344787832768
Ni 7.7925277149855905 7.136834196808843 11.578560223758647 -0.1515801582045583 0.15000972839364488 -0.3744744905730712
Ni 8.181783906967258 3.3662179128124934 7.516531307564099 1.4208980505974627 0.04986474604092703 -1.202313401347897
P 8.387633936992597 6.4881079390012015 8.000480928674351 0.011709318017128222 0.9568972337277843 0.9320830028975818
Ni 5.954025628147065 9.33111246713536 13.360149083062074 -0.298018367196861 -0.727967750908785 0.07612496528903663
P 6.625140015940765 3.8642191046351564 10.869957330338913 -0.4467196611917274 0.5330742746285723 1.5663826374272443
Ni 7.135319978888624 5.67992431554597 3.8466625374730605 -0.040806749603716816 -0.36526351349776454 0.47779452821966095
P 3.6618155460724013 2.1756431712592854 12.786381257145512 -0.37389727791336247 0.3005187650212115 1.1915193960561867
P 4.274943748234161 6.074540653171602 0.3250830791419617 -0.13460522091311655 -0.5568119845651442 -0.23691327235542425
P 2.8001976804263777 6.401834676270694 7.28597723020601 0.37556386698250804 -0.17449460090888658 -0.35975981007071595
Ni 3.21924587774634 6.567451100084573 9.5965335022846 -1.3002842588674317 -0.5254851494274048 -1.373053677420674
Ni 5.007174943985653 6.486640169483443 7.8925394861959255 -0.14856322575510542 0.5451276062486805 0.16947426487615974
Ni 4.988883563096628 2.6571551802083997 1.4899467719970727 -0.9568000460282876 0.5275515450381302 -0.30844059097144944
Ni 2.446325881439273 8.81493137058958 10.307325044428282 0.7684855085171732 -0.7449825402992266 -0.358718256180079
Ni 3.599955563675238 8.017328693214896 12.87216123784189 0.31459889726336143 -0.9849808793378779 1.8992422806730063
Ni 6.700312110483165 4.365090807729892 8.79041776170692 -1.7484205979010277 2.007158679441027 -1.2911804967939504
Ni 5.87696772846476 5.128767571947278 1.5004292474644039 -0.34029553069851715 1.237391990218585 0.45216500057701475
Ni 1.2993754794771564 7.204602415999008 2.362358317406914 -0.19873933238886415 -0.09451966574614044 -0.08249821580523212
Ni 0.8664345649811984 4.039273843829051 5.469513981367039 -0.680876453847937 0.21655450619341415 1.776372603029263
Ni 3.6033462970548693 4.3826111451380685 7.746690573501271 0.6682441097959072 1.563508915423875 0.8487242388642672
Ni 3.386162856829119 8.628190213336573 7.71785261834952 0.20306444212677935 -0.23063412421493185 1.5909184177850795
Ni 7.268691921714285 2.3223736746326433 9.553568730008452 -0.4856986135580861 -1.457723189845612 -0.4102043398745129
Ni 5.73895094539303 4.921477641445658 6.408710897770976 0.3873163795327459 -1.1264722858478664 -1.0780077625885758
Ni 0.5666519306595811 2.415159003388142 4.189413659943025 -0.19333075977878317 -1.8933529117717651 -1.6321360296739698
Ni 8.549971103592751 3.2231475435530386 11.655978563044046 0.3335073041320901 -0.03516060706153299 -0.8505198973121094
Ni 3.506120501024128 7.7709942356048085 5.5485217849846435 0.885567890055178 -1.4581201681737146 0.3188980388593476
Ni 7.799615741201094 9.131170673903023 1.361242893618713 0.5808847092436319 0.030078050332303038 -0.18423805344889563
Ni 6.564218291273308 1.8928652970785311 6.866393018321651 -0.5958045637782577 -0.5139411533435472 -0.6773051915569109
Ni 6.733922174503729 3.5357638714745483 2.848579265397494 0.17617687370731594 -1.1681493538716785 0.5893472381886883
Ni 9.473430372274953 0.12656167805687182 3.2319430130429976 -0.2592499881794116 -1.2071046520889535 1.2000629147508235
Ni 4.681645960180068 8.877070043401508 3.9145217955320475 -2.5370355301782244 -1.4099965731936106 -1.2111011748428562
Ni 1.0975293017439294 7.7433016980577385 7.701373654124511 -0.9534182740402483 -0.2251461045171671 -0.23476922942922793
Ni 8.219760120819128 6.692713151840595 1.920285646987182 -0.213992916113825 -0.5201881626945235 -0.3290132729164785
Ni 4.505708701339421 3.0000558665342867 10.878904221620894 -0.21272227693151755 0.9950711736943444 0.47285518193651466
Ni 2.260030628849889 5.683556580618396 5.211617587416433 0.9556697890785864 0.775353182171284 -0.1775102478067588
P 6.9470831830763835 1.8641694740383092 0.8923657791069592 0.40941398276273366 0.573300983359103 -1.0197231679150698
Ni 8.806189781246475 5.080804951566358 9.720750464985258 -1.2472326304580907 0.7845093947492554 -0.21568881575900922
P 1.7929362040245769 0.4785671802331057 6.524130533045575 -0.1699979985901137 -0.18189115048327384 -0.8623287170215794
Ni 1.7042104656441437 6.132015906376475 0.00945875267709737 0.9975394327291787 0.08101108973674434 0.5707373363969848
P 3.2005457509156616 8.128163871166624 2.2446134751051328 -0.03177163598464206 0.5577928604211748 0.640147094449375
P 4.755303836802249 0.026868542887417725 9.324184223424323 0.3851659088486464 -0.09248180938050525 -0.4208145112901914
P 6.103171448448379 0.15561422482799175 5.29747838833309 1.081553056737673 1.549528541984383 1.9359733175454528
Ni 4.302236829520069 0.6387222008856557 11.39339088044491 0.8555934551802749 1.1331646102663775 0.8833518562404657
Ni 1.3785792953531457 0.680063137011779 8.642040197982306 -0.8223737738951966 0.9004589482343976 0.4374914577252401
Ni 2.612378920236283 3.577586013050164 3.8711492062822934 0.6070976201935738 0.039786278759002446 0.9588075633766197
Ni 5.263746629498079 7.571981410421685 1.6194384152811654 -0.30214730176356996 0.9089250767238797 0.5197986405655887
Ni 6.62312415527397 -0.2767070679791405 10.633665946308879 -0.09889568332664904 1.9606654209754943 0.44175717498012956
Ni 9.047405624905394 1.3917799313324772 6.299029498136372 0.8503041817568775 0.4976416448525752 -0.8659323752124376
Ni 4.843174924577406 6.258197636501219 3.7204603700512346 -0.5479501632991403 0.029280237021356025 0.5226973022696224
Ni 4.550661465240888 7.772740695537331 10.897952711470028 2.3416674282544383 -1.4849293179467589 -0.7013290652753341
Ni 8.832256624707423 2.1781513849921637 2.032564441287388 -0.28392949320396266 0.6489204697666308 0.11152031406919502
Ni 0.4316264247063201 7.504018107941186 10.25579518673838 -0.5721337025238792 -0.0769420618736933 -0.8151098932439317
Ni 3.9616028252342645 0.7767361970532382 5.880192176563582 -0.744797420871614 -1.1566817195517112 0.3272602947811138
Ni 1.3636972272047367 7.962500998950283 4.929859720153716 -0.5846506040439673 0.6854388764076388 -0.11842346894693154
Ni 5.957100512389964 8.799844929470344 7.403749012581218 -0.4800766393856184 0.3442534869050007 0.8174058883669599
Ni 8.19081347640562 9.683284254592406 8.215140362710386 -0.6503476891314606 -1.1784538211214801 -0.7909780331927345
Ni 0.4713816123724351 3.0138417523846233 9.145487000509462 0.40885116828072815 -0.9868289882902102 1.128656695093695
Ni 1.198712501664323 0.2880915714222586 1.3070246023943848 0.48858621951852627 -0.5404551404736756 -1.3331753531684973
Ni 2.264777655581373 2.256073224960237 2.0013473989615993 -0.20101835823102798 1.065729716552171 -1.0642554459994895
Ni 4.475628715905871 1.979324353418882 3.8775674465343135 0.4870438147320709 1.0528297206610515 -0.7280405131282495
Ni 7.998414903732898 4.375708912532408 0.29961634904080797 -1.0787675235727356 -0.13983793006696563 -0.2762580927016339
Ni 7.724072059439007 1.3058782558216548 3.979907211675978 -1.6385290776845072 0.5334350004021006 1.1350412584637999
Ni 7.87668293056389 3.5223681522048818 4.926215378496649 -0.5422202027938984 -0.5277829443226458 0.3687663844447004
Ni 0.43223118290635854 4.9543816897488195 3.1997867840194534 -0.09560261439767406 -0.05724175523128852 2.3940045470952573
Ni 2.9673654808824446 5.312052968057209 2.391658898647174 0.005752329102744932 0.7927477234986476 -0.5526755937992676
Ni 0.7407293954657019 5.188054312848119 7.513186093618878 2.237276783251489 -0.34733366849222114 1.177224062479437
Ni 3.4781771421037697 5.463929954423213 11.85772162532381 0.98626848780105 0.1342475804633817 1.014053371223802
P 8.97026411809866 6.841255142909919 3.965848209219173 0.11428836373263544 0.7915516463080174 0.4100181920056358
Ni 8.19416705106328 5.398948639380691 6.204480059055417 -0.9122579977518548 1.26122714496497 -1.1061888530084818
P 8.69271633403498 0.8492523719429355 10.143896340370302 1.4823618143298989 -0.003622170133619568 1.1709562271928544
Ni 3.311445956630833 4.035149225690541 0.38039383679216576 0.050096402435758886 0.22954166248170146 0.4639684209698461
P 4.877472424954388 4.153165326662692 4.34239983415979 0.29095991768818275 0.027842733243881083 -0.011425725338438388
P 2.0018518286123226 7.030801783671552 11.613516362482521 -0.5592481048104626 -0.0941190878736121 -0.05963031006812312
P 2.7435584984657977 2.973087924065603 9.370153278371632 -0.7748358762152333 0.5870350451157438 1.1813640527897398
Ni 6.851297287521923 7.320351834931077 9.290248091618485 0.47163725036901355 -1.6689035762113065 -1.1290660147169715
