# total energy = -340891.85897359345 ev
CRYSTAL
PRIMVEC
9.06104878736787 0.00000000000000 0.00000000000000
0.00000000000000 9.06104878736787 0.00000000000000
0.00000000000000 0.00000000000000 13.26176080516349
PRIMCOORD
 96 1
Ni 6.014923636149339 2.273263143746448 11.2378309507248 1.3810464658181634 0.021112099388266865 -0.2326843218757412
Ni 4.563416082735872 0.4321875700873214 6.081950027442975 -0.2288873167271542 0.16518926434756068 -0.3192140274378696
Ni 2.642908635665535 1.4292808003388868 4.586977528320801 -0.34181171023272744 0.3710158426005094 1.705059200196257
Ni 3.5790780910913536 4.582036538328315 5.16593325098706 0.6583170804901823 -0.8820981863390227 0.17761771991890055
Ni 5.280027261051961 4.665162601396477 2.4524970347135735 0.44398117921464186 -0.06238267600227967 0.18911620747680333
Ni 7.739848341631895 5.8375445419022975 2.2585706528738703 -0.8744879780919327 1.0051139026423273 0.3758520876468882
Ni 4.758011169988091 4.736980475374923 11.233878521172771 0.7507721503978102 -1.2321225142895296 0.32138660960915616
Ni 5.391242575865415 7.733016310723524 12.535958504140448 0.3652447444446871 0.8526575124804026 -0.43436705316364543
Ni 2.1050991362816522 6.368250178909307 0.7482750138721926 -0.4072722538293824 0.15373551398466426 -1.2987081726295635
Ni 2.9708642413652395 1.3568286529339346 0.40366429409732035 -0.3083130642546497 0.34118384684074143 0.7685698407008634
Ni 0.3624791083044578 0.19605844665766023 4.725364210620903 0.5459498450396598 -0.8359039471711475 1.4286501837390557
Ni 8.55623072993747 2.1466440457178337 1.5042945062820305 0.8146373244828873 0.40693646775651854 -0.8443325375544749
Ni 6.694710711532245 0.5519402052215545 4.718786795188029 -0.04712652117415755 0.7084924157929927 -0.11754440877608789
Ni 1.0370914186319657 7.530230035220419 2.8353780008340634 -0.01088553656425222 -0.8127629902783099 0.3003552428601537
Ni 7.713734398557724 3.7438170220530136 3.5494973906888765 0.4643396882663358 -0.055531200298085 0.5862079212287582
Ni 7.873825011407986 3.5833820893426482 12.573462185744885 -0.22989416072511373 0.19389717380521446 -0.4303733586232201
Ni 7.9194202097248585 -0.03883746800989316 6.905332982167392 0.6118212509214882 0.47903817081877503 0.36657991831634285
Ni 6.9164255182920975 0.5958101798183298 0.33249247290901646 -0.96819363257721 0.3003254180634828 -1.0467801720328618
Ni 1.7496070028226123 6.5754763683979585 9.196408335939935 0.17397369540841007 0.1557412315607834 -0.4758726286065998
Ni 0.40515393054471577 4.6146110093039026 1.3289740823564506 0.580065041555814 -0.8789935792717701 -0.12432569336397944
Ni 6.433236021979381 2.022380820416244 6.9679946661817675 -0.5537636846571237 0.6275211781552483 0.12733748360710975
Ni 3.459961541593417 4.203302814312283 0.5452748976138653 -0.11960463373922628 0.6416365345107078 -0.2559386644179915
Ni 6.167058648021418 5.748238843450171 4.7323004435922 0.2746048733689271 -0.8561986928644415 0.4958727258776105
Ni 5.2436018442725825 3.2168445372134427 9.156397462091004 -0.25761553789978214 -1.1739189093656042 -0.025515370662285087
P 0.43179522666778236 5.690438412197521 12.573767543094505 -0.5236465535567691 -0.6276255649435966 0.1578292244380637
P 3.8766610607103424 6.188234319417789 12.562388677822977 -0.05278706189404457 -0.016895747314074127 1.315674882390889
P 2.751668406213514 8.535200035324301 1.5841567795183695 -0.7441063083418604 -0.46146416649075367 0.5395771087440966
P 6.473720788688402 7.845916980641696 5.903194559860414 -1.3829639945558505 -0.5681070978629893 -0.3315267833669516
P 4.884757122702006 1.000992199614791 12.414175287936496 -0.5488739606649902 -2.2245343959841564 1.147591841435301
P 3.856418677355832 6.184356190467148 8.15006830464461 -0.4772615385343264 0.45784585301187597 -0.36941070289691863
P 4.610388560493159 1.0343006155553367 3.8466001247135106 1.4572228531704259 0.43804887289060684 -0.6592635035638518
P 0.3435333610547061 5.455485412921582 3.7055087193018057 0.6875340683737707 0.4259793433205825 -1.56547041002562
Ni 1.3826254592948526 0.9434454777327437 2.610975686955614 0.16625575793886208 -0.0023610440330088366 -0.798738908085076
Ni 1.9496024752490881 6.358962603735461 5.087052289352017 -0.260086625148094 1.3640093078302187 -0.8945865486140206
Ni 5.745692688695194 5.7003783828957735 9.33553711814905 1.283367685617751 0.8669590167047392 -0.3674471514126446
Ni 8.691385336077072 2.27443201906101 10.32242398286323 -0.8102353387604497 0.1705423011293579 0.31111325270760615
Ni 2.087593189710071 5.129296711767146 7.111566080691113 0.7379893968108452 0.06785398352949605 0.15360490194407095
Ni 0.7809663723792369 0.2650474611538864 9.010836241232218 -0.8341342568652343 -0.12947355611350606 -0.1093022233719537
Ni 1.6480507661899577 1.0914033460388295 11.226770128271422 -1.0187487198169423 0.4637629898272594 1.3087683850790428
Ni 4.123873659215759 6.822788638441825 1.822696141968756 1.0833731406655471 0.05933026232920104 -0.8580573433397352
Ni 5.234857932035742 7.965260056363385 8.240274671362375 1.0841159323688425 -0.25485340177361265 -0.40374032941672405
Ni 5.464854537535978 2.9725495964699573 4.620291380890717 0.49771569262362025 0.2152571275382293 1.1142819144292617
Ni 0.47887643701247107 7.365228333839206 6.929866678304666 1.2509036515517746 0.1586542914425203 -0.6584132397484145
Ni 5.08728968883451 4.566324679448852 7.249687274256976 0.2657415094410262 1.0954390706911457 -0.7596992776841109
Ni 8.365341611705839 7.414964431526273 9.00620785742851 -0.9631498995057155 -0.1339416191871887 1.235732086017659
Ni 4.378253547440699 0.4563008335533117 10.24900683374509 0.4841824340238758 -0.8344947255284467 0.8424998552211101
Ni 8.22488629193043 7.1645170385456725 4.689717137946338 0.17326767048032093 0.1271050558813295 -0.24133891222694567
Ni 7.222525873924175 6.2290634059869125 7.128077124087975 -0.5230377163281766 -0.354545355749312 -0.23866007984320187
Ni 2.5064945437218693 5.159587798407309 2.908171749784434 -0.5277628897179878 -0.06764392440121898 -0.580615000522013
Ni 2.4538136051260224 5.266888740074323 11.298078771298872 -3.0201653545678693 0.19053777041467831 2.1705872523437395
Ni 1.1898697649795016 3.1483067629549315 3.7568314066600337 -0.9864932022173464 0.6420481681268296 -0.3366597337181428
Ni 3.759193622121323 2.9743165010152257 3.028017713722853 -0.3337281618936446 -0.4758590017598449 -0.9198697486608417
Ni 0.8873267771652311 3.3600544158696795 8.346753775889615 -0.1990532640848572 -0.1611732012096321 -0.2125243019880985
Ni 3.6301824071698836 2.83408770746357 7.189492007766817 -0.8404432298023977 -0.2896044321015529 -1.1367243025931777
Ni 4.33589314359901 7.094339214427194 6.01305524785583 -0.6097862227693305 -0.8929184168829783 0.17558012066358147
Ni 0.7210719327142203 7.5852034192006395 11.55806201219455 -0.7709936196510078 -0.8743691931258812 -1.0550120730243506
P 0.12164367605011775 5.502620989559971 7.964310458433415 -0.3199599044649586 0.30487421377642976 1.1567688799488787
P 8.345996272197388 1.7624827533806957 8.062447961297199 0.7688385209812177 0.7075511349256459 0.20617650539319976
P 1.7092672128967934 3.184197577846254 10.456977841457439 -0.6476678283064523 0.9679385791436105 1.001553181874262
P 4.241132693678925 6.167348601587822 3.854080020621813 -0.5450396745205645 0.23913933347246558 0.5970183815807008
P 6.849419061306151 4.129391838026367 10.506165745683026 0.7496326374767283 0.46863317343536703 0.7260548501567883
P 6.349756578002165 7.7295096847798375 10.154238228880953 -0.4085768315734189 -0.8275928562022908 0.29516315713625296
P 2.1540288006121604 8.517096059522013 5.925249153004944 0.8352686275799938 -0.08327186074646303 -0.3895416693188388
P 7.051688857019101 3.8099717404376503 1.329677219754978 -0.2400590170732575 0.21539056779230004 0.3500351265837843
Ni 5.23183154168641 2.6379250587429834 0.44469725426782125 0.5841525813616262 0.8073191935549193 0.4128021825086761
Ni 1.506544364736339 1.379001039714815 6.9240585459276565 -0.1116810080167754 -0.2743480201631146 -0.10097750555634222
Ni 6.837304438859876 0.6343885018282504 9.216340831420354 -0.7435375803225839 0.6548286077209496 -0.6398658157635303
Ni 2.7709865625751147 1.8607045239997155 9.215478219560303 0.18082825643639824 -0.033299899703710396 -0.689993842768173
Ni 6.345950937443125 1.937360998117511 2.4905987455487195 -0.2855580299463211 -0.21100066625472047 0.7918591502461072
Ni 3.97468348825246 6.9792548317120495 10.314533621437485 0.3320759710022023 0.6310122220276423 0.5094216682066388
Ni 8.157771102357083 7.481689995994765 0.03536708626200713 -1.0778236716022276 -0.8016594241659807 0.853286147203337
Ni 7.457877559353918 4.061569886634912 8.388541521437658 0.5318720267903551 -0.5598317452280746 -0.5903625668270801
Ni 2.7371254226486132 8.400425993240603 12.458774676973757 2.9730470609238284 -1.3391809359326292 -0.13839219875937459
Ni 0.03205708508053778 4.989493787516144 10.219035602132866 -0.03522591308182966 -0.5279562366757166 0.5752676201671706
Ni 8.706354188942628 2.5905357727339915 5.901417688161301 -0.5461609326092013 -0.8908846742824011 -0.37198591982326257
Ni 3.548977286479141 2.588651074552372 11.722044345568879 -0.2520861234411207 1.1764645586055933 -0.9668684860078832
Ni 1.1640910807164842 2.9294280645164594 12.801285951706891 0.6353033932038284 0.6463025725278095 -0.17888501666709836
Ni 3.0087303649276826 8.752628965930759 8.005528264002498 -0.7192023460113292 -0.6743836470347417 -0.05298940771283778
Ni 6.044471716775596 7.624981424091553 3.34179096560587 -0.7546352328976423 0.4695500288226816 -0.05902198706016287
Ni 3.3330615510473494 8.31447288290001 3.8670101374735975 0.0015845708783004968 -0.9047349499019322 -0.16522963066719284
Ni 3.1611825135130154 4.465701730858057 9.41408644539252 0.7561347002613042 -0.8256064218998813 -2.4552356259915973
Ni 7.3914057042560275 6.184899853404153 11.67418207280469 -0.4000124869431756 -1.0188749609821612 -2.5198047681222344
Ni 0.8752982346839812 8.583749135598906 0.49298630243755753 -0.09177501312146776 2.0985266869320633 0.8433524330293928
Ni 4.805871630542488 0.22659508772437223 1.6566324856505918 0.3319319892251703 -0.4222075349829761 0.18482015120461073
Ni 5.898661317070682 5.251638994691316 0.025353721067258188 -0.23979933565396766 0.4141653814047899 1.2022468097760197
Ni 7.774443426523353 -0.14897361189339145 11.227433397054568 0.768480880531483 0.6387499569915323 0.9433315792282077
Ni 8.89919143269853 4.910925432069878 5.683844686876537 0.026448423999515736 0.22618997240064917 0.9219335731684059
Ni 7.9713490812578485 8.601309448464187 2.1677408859883376 0.5421986055273437 0.5039822423586223 1.2006362707557903
P 8.319103078913507 1.4281209860732749 3.533582564312931 -0.3519541979833681 1.3461931055844043 -0.4321998703089976
P 2.0359270885966345 2.9628814572402065 1.6694167196142795 -0.6512218642062978 0.26794263085740305 -0.100173264487492
P 4.693596173001873 1.17429382183429 8.171697934593379 0.8890530203903011 0.3798797207490426 0.16538492529813453
P 8.797734867604326 1.2845305433611343 12.67201015412611 -0.1080765784949687 -0.33659648458037517 -0.7469517482104555
P 6.374176104922669 7.236081203153515 1.2264691538987216 -0.47381626029820334 0.6733984003033371 -0.032012291240538414
P 1.8389670675684398 3.3483022353814076 5.840930655894948 -0.1847731000167592 -0.7879155922173268 0.41537508544217494
P 6.782892839914561 4.135671144948781 6.014792250939562 0.9843203629357434 -1.1601408817449053 -0.14590341953475516
P 2.2721848789213865 8.382648215200518 10.33325918519775 0.8363621177544887 -0.16573768065186295 -1.7888193134330483
