# total energy = -340853.98018996377 ev
CRYSTAL
PRIMVEC
9.50231261282089 0.00000000000000 0.00000000000000

0.00000000000000 9.50231261282089 0.00000000000000

0.00000000000000 0.00000000000000 13.90759501733730

PRIMCOORD
 96 1
Ni 2.0730719763013137 4.59069063180096 5.2800463345945 -0.4539012665418312 1.0302654622072902 -1.7722112725627222
Ni 2.8635598393248505 5.569001200957799 9.238133824179737 -0.0572443263344498 -0.021168149437182898 -0.2513513021576252
Ni 4.8334747126319755 8.269577378661765 5.227906196436854 -2.577000500606936 -1.82826029303749 0.13689375983697713
Ni 8.759526106322353 4.506462135030466 4.266641825424937 0.5359230569312771 0.04420806197578193 1.3530625790107278
Ni 0.2648589026775337 7.688453963894579 1.9066057172000161 -1.4904731305831234 -0.8045742838199306 -0.7551718221274026
Ni 8.485831003380055 4.957698442131148 11.493723365623044 1.1939889406426016 -0.4880529727228757 -0.0205809094751452
Ni 0.671175878783916 1.7005338201768527 12.128228870773498 -0.9125901842802929 -2.2394334245831757 -0.9218631249417866
Ni 6.734716374504042 8.394960390269016 2.3977251297435145 -2.1363275598299207 -0.5550793181447538 1.9581670800336728
Ni 7.011594752087374 4.276667715197337 2.672121503338077 -0.06159257600081651 -0.11260686226515446 -0.04466906077260049
Ni 5.556781227261177 6.164169033394975 2.062120561304924 -0.8120700779763433 0.3936055549755673 -0.11878625160298897
Ni 6.850844133871394 2.504790533811902 9.1667600555716 0.9749942004388111 -1.1509317044418113 0.11669388785033451
Ni 3.3308835612532013 7.68154578280792 2.42595745000015 -0.01763905323800188 1.0273413465819599 -0.6645453207880814
Ni 1.5502452478706552 0.9876798491450729 9.992898694112235 0.5696790703357996 -1.0891830624791048 1.1823328444609122
Ni 2.5760768811463164 2.545213370596839 5.84498636117917 0.7609223514579347 -2.603809136159348 -0.021662315464782048
Ni 3.8435618200819994 0.8327788544187041 3.1089732099862357 0.5894475112119784 0.18165563743370006 1.0904945822016767
Ni 2.4550554309128985 -0.043747695880153176 4.9875832145074135 -0.18608976194565371 -0.3170465874729056 0.4264326288079172
Ni 1.6474253963895906 3.4898097354958133 9.797247032824464 -0.2754458812129837 0.6552284142625296 2.0902325652440714
Ni 3.627023125992873 6.785905331194323 12.40276492835977 0.8662424502536888 -0.38442928779293795 -0.21565796252107372
Ni 6.223491969466522 6.703824357017481 4.807646477402748 1.6371841336208386 -1.496768733783848 -0.8601767036755832
Ni 6.425796199638433 0.6043964782024629 4.21941153206437 2.663065350717504 -0.5459074218374984 -0.6927246114357747
Ni 9.386460168983328 8.652283009012809 12.710720618520709 0.2579775492248912 -0.3860254286354642 1.1028471902297585
Ni 2.407125767362541 8.507002155321013 13.279819807225916 -0.49731125809634996 1.611589830091502 0.41525732891738804
Ni 4.647656994406907 4.274054579297982 3.59222090696964 0.7313076139152954 1.1791930132803499 1.0022031567534353
Ni 7.540198886433699 7.990370934549917 0.3468344011871654 0.17724876661525601 0.05822931595553843 0.3992864074104285
P 8.393031420859673 1.0672807197956178 13.73476486684121 -2.7826368172259497 -1.2298308900418755 -1.746683817715579
P 3.324412486535161 4.0421126368712 7.258081884045586 -0.5018420560871679 0.6121287548595781 -0.094846710068256
P 5.497410779627823 0.7281821511017802 8.379255918629509 -0.7737187318916546 0.8063113211156954 -0.6462789183787256
P 8.177813548188766 2.0356708748472676 3.3541366698325192 0.3000045443889543 0.49116503598929606 0.011210009783206501
P 4.099002980978256 6.445941101844372 4.0660242556971555 0.332889210932117 -0.23111594894735682 0.644108135979652
P 3.756454122666034 6.140802847298557 0.5738465439609084 0.2710485234762364 0.6685503281824163 0.31063477040929083
P 4.055083293244364 3.964687795751391 10.831332374617142 -0.047806835070633796 -0.3184162141269226 0.15724069892444534
P 5.624580225958997 0.3855382696659447 11.062073224761455 0.5671573323552104 -0.5241561462033361 0.20222960493030975
Ni 4.052574682780983 1.3541935392324744 10.280340792347614 -1.3577016204446362 1.269338975438827 -1.3370713457887942
Ni 2.241348425907437 8.539519068221354 7.267385598078527 1.2251638235835094 -3.7391830953722183 -0.40911984856108247
Ni 9.053005023600862 4.077917349848549 8.768390813524203 -0.6826883102456952 0.16605495478196564 2.6121968460024108
Ni 7.788047699753283 7.113659089160014 11.226808162550526 0.4049616034183348 1.381307175678718 -0.525463809271166
Ni 2.4683396635939854 4.458570480729553 0.6636243911503972 -1.1983207352487362 -1.5921216940645613 -1.0303443950743416
Ni 8.363089634609242 0.22614933281133764 1.8250796780650735 1.4745533740290735 0.8683368708888722 0.4852859515006998
Ni 2.8677883683256256 2.463350949604307 12.312685857868429 1.495303204981915 -1.1910167453881553 0.2511163033286837
Ni 8.252397197912549 3.035684725437297 12.84103533024347 -1.045239567018619 0.17274393676636704 -0.43180083509836603
Ni 7.045784071963303 5.214317889760205 0.2512877001631362 0.4661967960797326 -1.040774332158414 1.813690622753431
Ni 2.76207514330625 5.312951892070419 2.6802858901188995 -0.6961297804625818 0.09869693705228164 1.1376409008701762
Ni 7.818312564623999 0.7038856886251922 7.068006179651422 -1.633635497037632 1.0616144088322168 -1.5769269886019939
Ni 6.462209060606905 1.4964716622181027 2.123021831459682 -1.7218557029283057 1.791970200357204 -1.1549811919208366
Ni 4.3073696864366715 8.334744236835508 7.928733235187159 1.8208640005734187 0.19140757461414135 0.3130222968048609
Ni 4.9513033859119995 6.9331246566078235 10.358502062675424 0.1824709342461438 0.4071506406498537 -0.2742374627271793
Ni 1.1164361816405821 6.885461057803582 5.334216166672519 0.8441273635222042 -0.25366580922341475 -0.40881954371184426
Ni 6.849922409572349 9.016687185756004 9.516591486077518 0.5430897498830454 -0.3854893536263361 0.08773401028287471
Ni 4.838520440495823 3.5953044073308793 8.816107625277668 -2.0161081753248307 0.5080942076444669 1.9875720155583512
Ni 6.284772381884496 4.432192061614606 10.783211714588322 -0.4805047280619724 0.6101160953049235 -0.3812244077023951
Ni 5.093495988086376 8.45646885818366 13.789699635064313 -0.8115502009171314 -1.500629502290835 -0.9656839787814789
Ni 0.2117029673284651 4.408179718277621 6.675005744088154 2.922976883740314 2.9397574456327624 -1.8622875578255282
Ni 4.898156952875292 1.5511099582955328 13.938052586342517 -0.6358677503477307 -0.6491757803105466 0.025421782507214285
Ni 4.814698143406063 0.7709957696768184 5.642533894934422 -1.805261003928839 3.561355059214725 2.957593188262603
Ni 9.509249049315946 0.44825068055676487 4.252719987584408 -2.7102903451427385 -3.3861161239406457 0.05686483150784401
Ni 9.380103122013624 8.288182906265176 6.640932352423033 -0.23938795914816194 1.4182405583699575 0.2786710730185007
P 2.717651833017209 8.229962238427538 11.038902786299682 -0.26852601416469885 0.1709199961837508 -0.4276986400045344
P 2.6802792385002463 1.2382368214876258 0.5252346143830098 2.1774580113216433 0.3738114030677756 -0.42742610306943807
P 4.888055994835238 9.482062933650289 1.5873850357347656 0.8245622969060832 -0.6829791020132366 0.49952857746264295
P 1.197699956954353 3.5957035044500536 3.310966714543933 1.5681083618690996 -0.4052752780040117 1.391291026364307
P 5.121480297990382 2.3682803144295783 4.161027424454119 -0.17737603622173967 -0.43791106176116196 0.6599936968616569
P 1.3015317241261932 0.6604515690529618 6.967148636248667 -2.2444576172706445 3.919116607908489 -1.0055923849406423
P 8.158324305535757 3.265023034277085 6.92861105823621 -2.6918925593618415 -2.724282288546457 -0.26077156703026055
P 6.8329892889445265 6.095476817335193 9.480724057838584 -0.3531415334232499 0.35201256202512926 -0.09346062835400679
Ni 5.139591705351004 2.9744423222687693 6.7136411959179325 0.5349979740138464 -0.6472857623766852 -1.933784280313934
Ni 6.732074731667603 4.536527451341595 5.367983583879607 -0.4709654211129695 -1.0731460636209003 0.48995378929001426
Ni 4.901112172019654 4.445713852104725 12.969611118804114 -0.6449949094599795 0.721965253468447 0.6333580965519996
Ni 3.600141084322777 6.055909188662773 6.232841294598797 0.5094550925477355 0.902888897832129 0.3216036107159687
Ni 8.486239602811589 7.454383503498868 4.339990174541752 0.059341832293426836 0.44743597053246165 -0.002350759620363693
Ni 5.6776791474338975 2.4142429993211487 11.962311845326683 0.7117232640254645 -0.4671303636375955 -0.9000545137071273
Ni 0.25925348861560743 2.309518014787347 5.165878902267283 -0.12390788910027047 2.8691256422478135 1.704793091019064
Ni 2.367026009197888 2.135948777195984 8.252113078772947 1.0135036693679191 -0.265727111263323 -1.8803881240809808
Ni 1.6987853947023748 1.4783792594822023 3.243932651991197 0.045387684106179896 1.2630225463024958 -1.3851514891254726
Ni 6.16891068726326 6.569955780471597 12.732625348975962 -1.3183035782629877 0.9047912570611643 -1.2952181571984338
Ni 9.009626967671563 1.1457223083380847 8.713121563905982 1.8174650021941987 1.2594785377049795 1.9596122971206316
Ni 8.474532753982478 7.244543939624453 8.68105125968662 -0.26223709583219357 0.6829870724330367 1.4495316551737552
Ni 6.90846615603027 9.430142298908189 12.597624096796608 0.3363748554878723 0.29911160026103967 -0.4394475530103464
Ni 4.10806818697093 3.0179249036340425 1.6744879819945506 -0.1590201594223713 -0.2923585978079223 0.21540882262474514
Ni 6.677056343095721 4.618028784464397 7.781508208386242 0.17750150605601045 0.7347775747417669 0.34074881618585184
Ni 9.175594355373892 9.162167588007387 10.514683969108093 -1.0949081378883403 -0.20462278775283468 0.16243638419277187
Ni 1.1628739821502172 6.438681335200346 0.2708349069215504 0.3515032264888785 -0.2098171874695806 -1.3138100612680081
Ni 1.1689269551243604 8.010962445436837 9.30840912547891 1.4045916001279553 0.6751264387380372 -0.5264225736400094
Ni 0.6330934615335653 1.160260846250862 0.6775186722850786 3.24151908192214 0.10532472678144442 1.287632888652008
Ni 8.034233608409641 6.346005282740663 6.675784933701781 -0.140456537487571 -0.6521284351809672 -1.675512853997708
Ni 8.639720952071182 3.117813211175946 1.2625741439073672 -0.33649132646107854 -1.1137697506795334 0.4533860174683095
Ni 2.6003457869170568 4.750956632086514 12.219740889968921 -1.026414206782 0.9304207847038105 -1.2936279298931783
Ni 0.17464394911942552 4.975315729248985 2.2690239106597008 -0.06117348618552691 2.468813107565716 -2.447181645338869
Ni 1.0905613850807836 6.676419688167514 11.158758302806369 -0.24462632472896584 -0.40135074613862487 1.24402363660249
P 0.7731166857958588 6.131081981752955 8.35322148322204 0.38300181131779204 -1.576633368620975 -0.516624356602665
P 6.31451461957534 3.278715866389707 0.2931054764027109 -0.08086967906287364 -1.8645856098310856 0.590656186808099
P 1.3316445519991282 8.618179209948131 3.283527837369465 1.907367223772986 0.18696985055776186 1.7291776905110154
P 8.55133044248644 6.418907023176497 13.391706684586424 2.7004677026253616 -0.06799925085810869 -2.360041045665619
P 1.035647521944876 3.5084152630992236 12.991223178038638 -0.5174332256572056 1.9372951216806698 1.4064453655072422
P 7.873682538753249 6.502365832645726 2.434093329843888 -0.549515193793415 -1.1450395073270923 0.3558273077855291
P 8.864821229597831 2.677181484670465 10.602816015796607 -0.20055967342705458 0.31323775524977665 -1.1894380880471256
P 6.871445147070676 8.808919125976349 5.902536165764099 0.012384232596965769 -2.427278221546723 -0.9423715293077833
