# total energy = -340887.36116721894 ev
CRYSTAL
PRIMVEC
9.06628193774370 0.00000000000000 0.00000000000000
0.00000000000000 9.06628193774370 0.00000000000000
0.00000000000000 0.00000000000000 13.26942004971061
PRIMCOORD
 96 1
Ni 6.377340608864939 2.3509866474253056 11.299920116707444 0.8471252698082636 -0.97158466053663 -0.232677894117838
Ni 4.658736196071263 0.3688888813449519 5.850487176636742 0.07560945910519881 0.08646851330688979 1.3617441659451257
Ni 2.675931259996197 1.4279394124024265 4.985746107677998 0.5896028058429201 1.5789460759145515 0.24978164367766012
Ni 3.4648519193550658 4.223835715604394 4.3116063914867295 0.02543875178807877 1.0790446884935223 -0.4167580818326307
Ni 3.9568065123441483 2.538948805507382 2.296180066206804 0.6881315927484536 0.013242981052835256 1.182862748822453
Ni 4.983662676078187 4.6780201778501835 2.193819929356608 -0.12226109752546686 0.9058451522469755 0.22680806560062228
Ni 5.196874429484333 4.448779237897198 11.180043923065112 -1.4643723197310137 0.37150743752494725 0.204361563671648
Ni 5.65019759494169 7.740211315471734 12.54120744877441 -0.09065066970903743 0.3566546887828309 -1.1675253471344345
Ni 1.7087221654316527 7.154611095875001 13.272471994487363 -0.10547102255132157 -0.8665967482693139 -0.11071350189718353
Ni 2.622929775520612 1.6097274324537345 0.6444947873615955 -0.33325096514690994 1.0932577467691107 -2.429785561349609
Ni 7.947112936617357 9.159755350757433 6.811644527977294 0.5733698889238253 -0.6225725759007213 -0.17551455753296868
Ni 8.950850081293453 2.5391573299930026 1.6017382247698677 -0.4291587694898287 0.5949936378411882 -0.012752671679978038
Ni 6.892659010525521 0.9507175276365437 4.649764203420385 -0.36534296058544824 -0.7993138067519395 0.2575414901287371
Ni 1.4673686727487003 7.560055226177456 2.5527177679557354 -1.5326767605343667 1.0276928163841075 0.7020443461748038
Ni 7.970340751059103 4.040143776336549 3.6810827446617194 -2.766169415698546 -0.8635127100273515 0.26032239530798396
Ni 7.793756776866328 4.10125051690539 12.424808174272753 1.6374859811319733 -1.7016843701867532 0.14542545145707214
Ni 8.028528148829254 7.311448707907698 8.91669195729239 1.7521841787085177 1.6843157970013187 0.843512869866657
Ni 7.053059671377734 0.5976511216092091 0.04874667834072461 -0.6392361525993313 1.399764353942641 -0.17468152010871207
Ni 1.9725963025616375 6.6459110800623815 9.201878203481005 -0.21920145689795795 -0.21289351240205914 -1.376076523407398
Ni 0.21836774797016587 5.037190004908815 1.2654970248475264 0.19582190163175306 -0.5570063599641374 -0.6987389359506546
Ni 6.395817691547328 2.2322183534413576 6.668254932010735 0.2851057729002509 -0.38638049798203783 0.40213621815439776
Ni 3.412893057307585 4.23871348433933 13.177450106274616 1.4242104028001472 -0.601423452626932 1.0909823204713727
Ni 6.040219979590197 5.706018693114146 4.478057888934736 0.14525370176589822 0.3692150419463448 0.29359324154597183
Ni 5.3369666186934905 3.296491062921332 8.814225744942986 0.8276584193329035 -0.40771628334533655 0.6389438181698931
P 0.3213996963153398 5.70887457193895 12.3500748118827 -0.6138331391451944 0.5591982254091338 0.2644742126928284
P 4.106382032508055 6.069495004114943 12.378988998384504 0.6088760522502352 0.7908834165963993 -0.03392570621316738
P 2.66239530099482 8.709052340793308 1.2184738467118665 -0.607155984235335 -0.6400576200593623 1.2408246700492178
P 6.311999914609801 7.991057205391417 5.578344590337799 1.555394770957173 -0.8913649563529293 0.46653849568986744
P 4.894668052128079 1.1824244962890442 12.323602175119058 1.6794589831296496 -0.20580755208955523 2.5554117186925667
P 4.197452835032387 5.9389496098344186 8.144730685011869 0.38928892987808444 0.780557609190359 -1.9342306238227334
P 4.876635217262882 1.244111478904829 3.9061985263122097 -1.4161669636703804 -1.3107172812752976 -2.3916352755321326
P 0.23486294141095934 5.663760752789017 3.4035928652489025 1.823007786389299 1.7653060608024564 0.260248604647255
Ni 0.6377395006556841 -0.0734169382460468 4.672507878404212 0.9675148613426305 0.5033705769165525 0.35459086427526676
Ni 2.1577751120747775 6.380722332044788 4.833518700033915 0.027085029142250132 0.5883907878126899 -1.5029653495128632
Ni 6.413868658976491 5.705755770936623 9.108036745182513 -1.9077536605781276 -0.14079206645011882 -1.9963962987182005
Ni 8.961802149929529 2.3303608559128257 10.087346606310444 -0.7702428575279121 1.4209600141836494 -0.34173200603472753
Ni 2.4627195065900516 5.2828046501240165 6.88398983169289 0.6001607838644244 0.12902001351585524 0.4779981595900349
Ni 0.8008319406288016 9.195295176132781 9.101415639449957 -0.7941404900811162 0.21648791462153683 -1.1292300510986615
Ni 1.2405846952132447 0.8596195262662607 11.427929671917182 0.41341050551663644 0.9173567524310009 1.2516058198251219
Ni 4.176663850444204 7.014083725130637 1.1525710429737508 0.15401704978082506 -0.46402781345287186 0.41141095858810434
Ni 6.0866846747556735 8.076443449112091 7.893526676953836 -2.199684941040644 0.661025480560281 0.340145121163582
Ni 5.415063571699424 3.09592677288218 4.503508755718839 1.4847051177510946 1.1207384686878827 0.16243741263403638
Ni 0.7284748507466268 7.315483203390358 6.521985884886214 0.5539084377651041 0.7003152792988391 1.2304937204368551
Ni 5.300429502299956 4.545362339867503 6.664313819232505 -1.1385428438591554 1.6007857974974626 0.6578463115013509
Ni 0.4423212322703706 7.43358965878951 10.911895033979903 0.12144837181618437 0.14795361719556455 0.40867427638323167
Ni 4.671855106101399 0.34738275385187384 10.407365507879696 -0.2800854368675241 0.02488853571156359 -1.8778262768910756
Ni 8.430536158259958 7.137140370492783 4.6732776057446115 -1.8304698990942994 -0.6156632503753977 -0.7012727581161019
Ni 7.375538255249112 6.344094552831417 6.777197189580958 -0.8934562916643193 -0.818487808577229 -1.1800497048536902
Ni 2.4093372382711595 5.551801236574684 2.291562608792604 1.112970908927322 -1.4472009501580496 0.10013521216070496
Ni 2.3850577351193265 5.411328263522219 11.23586864775036 0.16174244344954078 0.9224573068823597 1.2742598097792117
Ni 1.0848531695825367 3.6818533786303176 3.65007243376533 2.413127641077954 -0.7298564832910656 -0.2867731333003448
Ni 1.748940192310492 1.3111657004548503 2.951211686489632 -0.9421537568700226 -0.49269767058373853 -1.9000701758909404
Ni 1.2021164607572223 3.821057072205091 8.296386010262792 0.04282583691627463 -0.10381806032893087 -0.1851500237402037
Ni 3.857394730394989 2.6984609707252125 7.050109503220302 -0.41990742609488974 0.7757473322859092 -1.340352330532911
Ni 4.352984902459458 7.058417844029988 6.095440889895345 -0.5509357282900255 -0.997475926481095 0.2611348639069503
Ni 0.48025002294837416 0.28394688544147045 0.7489184099912378 0.9024970617103489 0.3769980283258733 0.2742256356526374
P 0.07467715144175432 5.819673604059395 7.861348628937971 1.9122248089756033 -1.1944121442229496 1.2840729392148917
P 8.776568942724488 1.8204912897243328 7.837039207055592 -1.2327102684721998 0.47167118893074256 0.927498468850693
P 1.8243353932853401 3.3010151376311025 10.394374432425527 -0.4764243873450118 0.47362162778889394 -0.15764359078981882
P 4.209311531866814 6.417839690485267 3.49328105977075 -1.5428076783207816 -0.7507724075081263 0.23298179851150197
P 7.053975365858069 4.0852122640765645 10.218872972301584 1.5206851353901296 -0.9095318570699433 -0.3372372034881676
P 6.339126230304456 8.019126414412357 10.223571119625436 1.301440741069378 -0.33899326694732584 0.16423821328820098
P 2.4555208786951463 8.654056274281352 6.150310028459532 -0.06963292980678976 -0.5195471866764149 -0.4241080944397987
P 6.97193458018931 3.9894269949208083 1.757467937144179 0.5440845096961469 -0.1574564144796772 -1.0500192477954498
Ni 5.742175025664373 2.920929398036519 0.3927232300513947 -1.32646220281438 0.2997039824294 -1.3898447808360836
Ni 1.6160556972782227 1.7955680805516707 7.065501330143702 0.5364372775635341 -1.6468627943611829 -0.06493269611764302
Ni 6.923275844783825 1.3871592760406097 8.995446215742128 -0.30572190648870573 -0.8490643958125055 -0.20716920832377222
Ni 2.8674202017698582 1.9829681291507701 9.07515515368473 0.5484409868926297 -0.8673955900215256 0.3819072927020326
Ni 6.425147113763975 1.6198182043013785 2.1284946477808417 1.4650927428368057 0.020219926591300657 2.640553542768233
Ni 4.4633850181726284 6.78897700976213 10.041023345143913 -0.6033803192429867 0.8456080618327889 1.5879037993284717
Ni 8.28046199258696 7.766068351688697 -0.29284816109287803 -0.27467866402965596 -2.0216170209582023 0.07389504751725337
Ni 7.875679700869301 4.013615835252806 7.9500812373387575 -0.727815798711953 -1.0248198657116867 0.370195146471427
Ni 3.291713132316024 8.745389998983205 12.316343709763062 0.26260424936362514 -0.25689742878683497 0.6665836913743488
Ni 0.30318734906686995 4.9404709087087575 10.273158242306032 -1.791723631564037 -0.1387287561631869 -0.5868290997525248
Ni 8.794701506691503 2.1804680158794967 5.542676930386481 0.012328696768681993 0.41776364027900953 -0.3612538781177392
Ni 3.4017052653399364 2.3258186486390886 11.470856703852691 -0.14784511664215827 1.0516236161680919 0.14686809744086965
Ni 1.2502130866797294 3.5874824494639883 12.51600862462945 -0.8161416769425557 -0.4879802105034112 0.46142148617827633
Ni 3.1927274656200897 8.653929346333582 8.300274538605517 0.7763942218412887 -0.02311678852312148 -0.5638838038102612
Ni 5.723036104397189 8.113098427171412 3.402040717773326 0.1154967822184398 9.821614076112117e-05 -0.16762615592382746
Ni 3.3349048996854536 8.57102726387639 3.781984116740769 0.2524139390941847 -0.6268046117041979 -0.2747779086116816
Ni 3.4153772185710656 4.437926898362939 9.376663427328253 0.002732568439814649 -0.6173928314719949 -0.30551339002232547
Ni 7.284929833105938 6.191345833973283 11.197346922230636 0.5219359986235657 0.5522691023894682 0.6088529123217837
Ni 8.174150770048351 8.336999327036112 2.4615572092397655 0.35014568401971957 1.3251437411132727 0.5521451752170942
Ni 4.7347932356309075 0.3504136119189604 1.1679637765253497 0.11809051108754501 -0.1718695045812137 -0.13554418778761815
Ni 6.166993800565583 5.397130465936046 -0.0797560826089152 -1.339688214586351 1.1638826081755247 2.0334924322395493
Ni 7.999098997510789 0.3724954483179912 10.99283879952866 -0.764639909518838 -1.227836742429982 0.3445334800392647
Ni 0.18810540533741626 4.581255750240208 5.8424326917225935 0.1173952847927333 1.2832319313708351 0.06874538499551386
Ni 7.401504086849878 6.141689807549614 2.2988074747256246 -0.9199193709518544 -1.2620570970654328 0.563577585423752
P 8.518995871573042 1.2862062261542542 3.3791238768036145 1.3702969406111432 0.5625182909213021 -0.7170688446080941
P 2.111691200752609 3.4869011171389563 1.512713682089213 -1.0783695168033685 0.4681922292432065 0.8741542489015977
P 4.9070888584454835 1.12076471251921 8.028251627228757 0.22785990390390434 -0.1370346562902156 1.0173929771199963
P 8.843042922227566 1.9216800629422597 12.675905200203381 -1.3744338455976521 -0.7692938633510816 -0.38347643696136535
P 6.456462051735009 7.764445487213648 1.3422149963637682 -0.3993766531313896 0.6396321024861694 -1.851805427347282
P 2.0927064062791447 3.4472270671791274 5.723658051341258 -0.5795688186456858 -0.04104277687392286 0.12735316733639357
P 7.098962257060233 4.102048349719938 5.781791958047706 0.8833621406531108 0.07085600358061346 -0.8679149528601052
P 2.3494544457700925 8.470146744245904 10.425916027446151 1.285759068668063 -1.3202463038116554 -1.5373988486003844
