# total energy = -340858.04609548487 ev
CRYSTAL
PRIMVEC
9.39811055652525 0.00000000000000 0.00000000000000
0.00000000000000 9.39811055652525 0.00000000000000
0.00000000000000 0.00000000000000 13.75508477504707
PRIMCOORD
 96 1
Ni 9.454217209286975 0.6618638108566628 7.250511609039725 -0.8280170882239031 -0.4166022729810567 0.6418481363008817
Ni 2.0561374091496 5.697895825783787 6.666388028342511 0.20132663350006616 -0.7611578645075086 1.0380073109362382
Ni 7.191744284336809 8.708834270130769 11.2452903101861 0.29009217037124874 -1.1680125711834979 -3.4193964832603307
Ni 3.94236637875657 4.3626874722962885 5.188720296619544 -0.28212560722600444 0.9368320875467929 -0.7262014030369817
Ni 3.7111164720479053 3.322476408968843 7.4555031950402695 -0.07583648751434036 -0.49034588252211037 0.1590317293865971
Ni 5.777413238636832 7.210493514763688 8.382582623726291 0.33339957490963223 -1.305461689303313 0.5765179476345039
Ni 8.514152411337387 2.6563665317929503 1.8833324719540558 -1.1184555861909768 0.2707926987116885 0.5005516194105186
Ni 9.070360784447152 7.770517520732257 9.501778227042017 -1.1799342623217486 1.042502113482798 -0.44768639598037097
Ni 8.866722526357119 6.001924700124407 1.597460747079466 -0.932929152947961 0.08923142076400763 -3.5529370103543587
Ni 2.923883746881227 8.491719121598559 13.15215847023942 -1.531685857376007 -1.4796608704589678 1.0885726825886155
Ni 0.2779228030224324 5.783155484146016 10.423685875525576 -2.465984122757353 -1.5956633886692326 -0.07187904552848912
Ni 4.155524922772632 2.591200033657622 11.372731507859086 1.313983610731395 -0.04142509991400608 -0.02919744749956262
Ni 8.639025105413547 5.361011157171303 12.776960524593724 -1.5098196534305353 -0.40762680895532377 0.3040710011488441
Ni 1.780857354796861 7.107809759553623 11.582413690805021 0.7462981737868566 0.3416831550746631 0.3421053302137463
Ni 0.9192921543342857 4.438154299528288 2.368832281172739 0.7023258819709647 -0.9720682850412676 0.601209536843913
Ni 7.0711289343124655 7.351455773998154 2.4665068434918136 -0.8105258734176751 -0.4767838275669595 -0.12116837868192035
Ni 6.104589659113493 1.6209766991467023 7.8224890717400966 -0.0808352262805124 -1.2859071642101532 2.1996821128271664
Ni 2.2848686222470347 0.521884593979416 5.275061677499133 -0.7825795247163941 -0.020866559036364064 1.1190307419681567
Ni 0.3339158055087996 9.297353347103998 11.269169029318238 -0.2502223307595045 0.2987616731207887 1.1154057436210596
Ni 0.7725397192271382 7.515565579368661 7.370813062173714 0.9820505930649601 1.6681548709707401 0.7146664058141886
Ni 4.792416074436161 9.315623273895904 8.705221636458543 -1.1790071225217889 -0.6183600804812706 0.46644953552048696
Ni 8.229727995478203 8.780203521189275 3.7449045588803442 2.08747120044885 -1.2329354971091282 2.2519220439684897
Ni 0.39966968554973153 6.647443317217447 3.3971340588876826 1.259420173663218 0.28682301270167376 1.406942616858635
Ni 0.25332418862678663 3.3622680087820793 9.58832542654133 0.6361174044646916 0.39127742106302293 -0.19573371279332097
P 4.392159946791874 1.2745529483872093 2.127058370337749 -1.0349248153561723 0.38541813406876846 0.7194537999005028
P 5.1688103995471915 4.780659038213591 3.143147303471374 -0.6385740935353003 0.38893334631087856 -0.4433175774887139
P 5.209955327270939 0.6778819503752456 11.571974269673104 1.1075924182242278 -0.9051257575824476 0.35686911878648214
P 7.118984112925833 9.158486866508728 8.230410298299754 0.38940900039571646 0.0012549554530236454 0.7550687208906351
P 4.223059744751355 1.1976670064712707 6.818367692504009 -0.6087109874272807 0.9662545065729682 -0.4232004950238647
P 5.157448083965187 4.787294104219294 7.567676222411748 0.42459094761348815 0.48075643906146226 0.6594252259526966
P 7.2778497726431075 0.9179585624558023 2.95331299006856 -0.20791534246117738 2.294805473595577 -0.5125285892667367
P 3.8576048202502933 6.226633521932267 12.110471903565097 -0.11905261789049817 0.5363645153440698 0.35895248367807214
Ni 8.942273936583526 6.6578846179714635 5.749474535773159 -1.0516089608800727 -0.6485674573025861 -1.4998643419900364
Ni 1.467853284938612 5.800316433900142 0.07603823234977093 0.721199578947016 -0.3147210246635225 0.3507938591266797
Ni 9.016659981109214 4.248011728101412 4.734596079270602 0.5516443243212759 -0.38307688753010155 0.45286356930593613
Ni 7.557142820174933 1.1318144462701973 5.652899552381375 0.006606706683240235 0.07626200508753318 0.47346144806194584
Ni 0.805742303776071 9.35573440946579 2.378240729583941 2.450728482149863 -0.2809889225183999 0.9609806597685385
Ni 5.852739094211486 7.466103323861561 12.682656124696244 -3.1187723030095063 -0.6408595471353673 -1.4619493121118177
Ni 4.0726147920328195 7.079192513112597 10.061073879447637 0.9734229992969493 0.8549686771120825 0.9873761190429317
Ni 5.879711671316821 2.7505074045679114 2.9850325527822235 0.0515804431804531 0.022285293760761618 0.5093175385286066
Ni 3.266435476118979 9.431755725216679 11.057506664492129 0.9478281815469806 -1.9160716935255195 -1.9452136051967983
Ni 9.261339787707607 7.623079963370413 13.042145128658467 -0.16908577118848944 0.8939342597420025 0.4375115123298981
Ni 8.114375587328071 1.4789054628744565 9.694775944435651 0.21131228395786836 -1.0915214808042946 -1.9637875115442438
Ni 4.750622677088626 4.650326041942935 9.953949517031203 1.344307458525917 -0.6566024117919208 -0.772853812788198
Ni 7.815609654861664 3.729405195060791 11.063750769101462 -0.6437175854094528 -0.6038338618406375 1.0024561533045055
Ni 7.625044168462753 3.1455851733323934 7.919545238388952 2.10978451923407 1.5160867173861696 -0.6279556945895056
Ni 6.819682488161513 9.259704516482405 13.322432496280099 -0.7717194420734388 0.8517992782451653 0.9081210927653456
Ni 8.476325016616489 9.285436543003105 1.0558758338916168 -1.0790035508429416 -0.049172605069908865 0.32008640274049394
Ni 1.0229937249103815 2.524576828396396 0.6865479480577644 0.5121238976291503 -0.7384177425975154 -0.16050857104243968
Ni 4.016677238398341 8.55229934181493 6.2352901215042955 0.2734000544275485 1.456001579168815 -1.1980577113953366
Ni 3.7894215286477833 3.9083452187839876 1.2320142808778447 1.1099748024134755 0.5228032317198674 0.4884288680050556
Ni 2.6487916547382815 4.846436413530747 10.56687642675714 -0.7301868700472909 -1.316707180310145 0.626441057717192
Ni 6.803508340008802 7.9921531604099965 6.441506281301643 0.6600921701127341 0.5941706277192607 -1.2961416974539677
Ni 1.9665170275201669 2.8146119162179075 5.084993351145125 -1.8310599672698142 2.637320380542916 0.38149540197559456
Ni 2.683310914566816 3.3987420755924638 12.968651904629297 0.18669757073298168 2.19506621132171 -0.04047122064116901
Ni 5.271334386878932 8.710178199930791 1.653292102065411 0.3598621399765351 0.8455219298768858 -0.012100382807959805
P 7.297172287809857 7.157685531922268 0.32765948335583045 1.5099692916345222 -0.8149381435527578 1.304471814586218
P 9.52028592602931 2.7660424812073257 6.2949042159623305 -2.811863832411867 -1.1847190853049017 -0.892303923227431
P 1.0596745501515388 9.647442360954459 9.34311368688922 -0.6657905060490921 -0.3978581596043342 -2.0486693970903036
P 0.8136000639564788 0.30127334834505076 13.60596597126486 0.20246177554577388 -0.18942396852520926 0.10942435077211476
P 1.8097565445525767 4.3184881586634 8.352183495536424 0.8937720231325252 1.9044608487594685 1.6705866203406843
P 1.0540450819682303 4.530951242503227 11.951476549923067 0.7878621132715722 0.6265403022992178 1.004583998280786
P 5.328409111882659 3.3225421957422707 13.381345491695605 -1.2463841664148663 -0.5973695942725326 0.8020869986217025
P 6.523679600179066 6.500052750408051 4.833784677189562 2.5955109007062975 0.3822623620486062 -1.62302686828385
Ni 3.3798612716187297 8.953166346641044 3.4443003560021577 -1.3041748521710894 1.648839715581896 -0.9075575069523919
Ni 2.9667767231560522 6.751273641907252 4.831610894233303 -1.7936846119451495 1.7648628026174507 0.4988276947408764
Ni 4.183653467468195 6.8963522735361895 0.6816637500362862 -0.8063288046171919 -1.2620789514423039 -0.1265746372991562
Ni 2.045179212318652 6.60015202523346 9.28260489231257 -0.534793314202208 0.6168163901432344 -2.95779861940519
Ni 7.000737086744885 5.245837313120474 6.6757278705471395 0.5538454457376526 0.19431986316492986 -0.4058838581222881
Ni 5.829187429324389 9.297108996231268 4.332631375139295 0.3808220300576538 0.8862985975736156 0.11208467121309729
Ni 7.524446793781393 5.12023156642612 3.259885932918732 -1.5323594864042642 -0.16425903922380744 0.947367439860478
Ni 4.840609585027156 7.3822721782937615 3.6374634801404113 1.7090415818827727 -2.85015578601353 -0.21709032409222612
Ni 2.4398246680006093 2.471515096571755 2.651045321633703 0.08895991227017581 -1.148595342999151 0.08821557790498355
Ni 2.12012914347372 1.3871329139428907 12.323097574716398 -0.21307246118208467 -0.7041405665822003 0.9458566596429065
Ni 2.9624441942203172 6.007027874120295 2.776559906656308 0.5473906912512444 -1.588871819668696 -1.2908010019673446
Ni 5.872898041211815 2.862655057041068 6.085222033016395 -0.7207750898150878 1.5162240142949823 -1.6665661863273815
Ni 1.616070885471098 2.441826465534908 7.648542264120059 0.11047567485476457 -2.6809532867415182 0.016874407157835454
Ni 4.173907626890414 0.7750377369952908 13.690105374856723 1.381775116454072 2.0109669974435236 -0.24272730793404004
Ni 7.61982821714099 1.3227558570886946 11.826567203215994 -0.1399502872751138 2.2693075864347882 1.6091920192832867
Ni 5.865388950930573 5.212483418992658 12.56194115470071 -0.0036861906023355874 -0.7676414153493231 -1.3772000954888797
Ni 3.9004977965251184 2.1638397553611455 4.550966398413064 3.1620344561322513 -2.426290403712157 -0.6113620518968825
Ni 0.2384864517857056 2.6569492146433094 12.082507825803106 0.2594567048735789 -1.1737895828765914 -0.6620729479881887
Ni 0.07138146860214258 1.729496680970849 4.26502512752085 -0.28149620117212165 -0.6964894777948456 -0.8782888398952616
Ni 7.014495920501751 5.026917727374248 9.476249199707894 0.498816896107599 1.388856963001518 -1.9795825695949714
Ni 4.8632214388652875 6.43109881374539 6.018482291185097 -0.2379823370498869 -1.0177159076770537 1.8227925850546993
Ni 6.454904227615708 1.5180016025114573 0.9907130950004848 -0.5102775884490308 1.4933532803443959 -0.18433704092060513
Ni 6.643580693806196 4.848776543042674 1.0594301992788075 -0.31935543811174033 -0.36345294265158695 -0.1059523330631143
Ni 2.2822465494204183 1.8054146175063521 9.913660757173066 0.07197237657324379 1.443461023499643 -0.06540937864374542
P 1.6088719328360157 5.0462214463200175 4.611749617816012 0.38021344993937745 -0.4728047883145535 -0.9169096375912531
P 8.641844538560447 5.965619799302837 7.8951026326274345 0.5535600532867498 0.38389269856317754 0.6941297193134175
P 1.9294320835279541 7.405335141435396 1.564930127430544 0.07691840772460948 0.7099042085388548 -0.510533670323895
P 7.152779718246663 6.618196397373613 10.931481762069936 0.46753428394423346 -1.1568922929006205 0.07371738428880853
P 7.93279469455728 2.973317808056858 13.269035251910976 -0.7119952867399285 0.373318522591757 2.067336120261872
P 6.104467483677127 2.7209127546359606 9.977539714171309 0.2653915823007752 0.6154835302644239 -0.46618368345361005
P 3.46367362096555 7.259128736547697 7.710577311840231 -0.07826797977396843 -0.3101130935778659 1.5930442058788306
P 1.1607888209098305 8.296980874142237 4.5274307103138 -0.49789926938933604 0.7118633891477547 0.42327222880206455
