# total energy = -340872.8157116406 ev
CRYSTAL
PRIMVEC
9.16958011465099 0.00000000000000 0.00000000000000
0.00000000000000 9.16958011465099 0.00000000000000
0.00000000000000 0.00000000000000 13.42060737315379
PRIMCOORD
 96 1
Ni 7.031875830293322 5.152396183078811 9.456347632108113 -2.0613287377255274 0.6100957835899493 0.30269314696471095
Ni 2.1443062877855352 7.093367033910554 1.0106821133515802 1.0328555915319697 -0.8290511859153723 -0.43780076143554275
Ni 8.02225465956359 3.462690163967826 8.172277241320401 0.40195341271963037 0.4333368121269182 -1.4778808957404095
Ni 2.2067878060449777 6.747096183597768 9.604592232298957 1.4689913065602636 0.29049403379535776 -0.6616361175610863
Ni 8.076153450923877 0.5296120180319566 2.1317962297636157 1.3090704897004939 -0.8031480928963651 0.7661838569671902
Ni 7.889891771968191 2.733983639741542 3.0788882226312797 -0.3039876974064184 0.8735976050671793 -0.4430344990306564
Ni 5.659299736190088 6.911415057564485 11.006024994726591 0.20405971616051308 -1.6671215446102192 1.2775323098828966
Ni 2.6666880919713556 2.1430500553227314 6.140048896208995 1.179125136156892 0.7509153608438938 0.6009423992254553
Ni 0.8045462866595384 9.00651737896021 7.219522115832099 0.1095683325491468 0.3483469402480839 -0.0040096353800253524
Ni 7.64665949234536 5.236930541287469 2.8539455873172654 -0.027240323773191796 -0.836084695723386 -0.8117810859810148
Ni 0.9042269571459999 1.73385754690952 2.8989856474197837 -0.9256326192865478 0.6999527537530977 -1.2428509564506272
Ni 3.3716178952045763 4.345271410517518 7.4434982774119565 0.9587422573563231 0.3198568032281911 -0.9376268155339466
Ni 4.598608567322901 7.374130404557145 13.422620127303805 0.9181964747234767 -1.1997392128628175 -0.5862678279324162
Ni 6.3170703893780615 9.2442204018307 0.5773103393824068 0.2808475118445293 -0.16214122154985625 0.8578035754577161
Ni 7.488465897832312 2.3556926159972944 10.936278418216935 -0.30451323089258525 -0.07036286599427882 0.4020521430810237
Ni 0.19938518188097598 8.418793147548561 0.06210098068859327 1.3708893227795038 -0.8695434896024637 0.9581192790603433
Ni 1.3889896423398644 5.314734427761108 2.807577772027785 1.3793405388706501 -1.3322957787770215 -1.1445635961319385
Ni 6.2508568520502905 8.877290487731807 5.006960225248236 1.1925565790714494 -0.7014105692455469 0.20117159597944062
Ni 2.45556768158019 4.104551595820293 9.45711237508182 -1.178779579892015 0.4969047666865507 3.000925018281019
Ni 7.503549856965975 7.569845920513932 9.85742231132921 -0.5416558456499961 1.7782363957108795 -1.0281569005047198
Ni 2.2429434600656677 7.6232128762330325 11.879076296761014 0.7972186147858076 1.7189071618229428 -0.37022805659189145
Ni 7.488199980011719 7.6625045266207215 12.298081172754125 -0.40589208565240414 0.8964667963558689 -0.3687972376826358
Ni 6.947928325205973 7.571413918697432 2.944091728498449 0.20934718981169753 0.09203058077569956 -0.12238271070499568
Ni 2.1227119268373422 4.695136736198326 5.543207351383 -1.0339673365389097 1.585678766652695 -0.015589626908140893
P 0.17558920476986953 8.690157698674177 3.9352444703224445 -0.16024426163745953 0.034836905173527104 -0.7727121450040111
P 8.660053967466993 4.087431989922087 10.20733806970013 1.3578378889121843 -0.88893089299014 1.8032558005733523
P 9.044121826624133 5.03106430024803 6.548920469321491 0.5074187788439971 -0.33083824194035927 -1.6879947885148026
P 2.585904091991067 8.316460634520181 5.985483704510045 0.30885968078673903 -0.13705573933613815 -0.7315397845307595
P 7.075532200770751 0.6909012627599123 9.79360753613479 -1.8446904135690552 -1.961112535815242 -1.0458607455423858
P 9.075344246593813 4.013250087556533 1.6650948663360596 -0.15709748847836172 -0.30368353590243824 -0.47509332723841396
P 5.74289879723666 5.43055539299959 12.763252133276266 -1.1688126984872902 -0.2626641560672831 0.4933569014342922
P 7.539806376366891 7.184155045693169 0.9128133518771625 -0.7005140255732065 0.5005536762930477 1.4557825211794735
Ni 2.2548730836722912 0.22353602173887438 10.152971629758797 -0.26956422562122606 -0.4249275050173005 -0.18892980249761013
Ni 0.29452599329930557 3.2700097789978133 5.107225914940003 -0.008584913455533602 0.06505045264242991 0.1334086295018541
Ni 8.260856301276087 1.2681162385101064 4.933576076344462 -0.2573026346450536 -1.9108292141796575 -0.5394125581417744
Ni 8.908265329040935 3.4352822892866586 12.407834626893067 0.9499495987653576 0.8539014121898327 0.16569782855286302
Ni 0.3640570846784809 5.231107857974475 8.68844757200036 0.7291298895376862 0.7851629691728542 0.44610311065365105
Ni 7.847161529072828 6.48853236618072 7.575623672884825 -0.7138122853440093 0.4900160099865174 0.024827600566641114
Ni 3.943249513680309 6.5203141305316485 6.2409582904182 -0.19598053869680443 0.4884486654993976 0.4912511679451991
Ni 3.5021010188957806 4.12660443576951 2.478074415740419 0.6430472988153054 -1.423176305108678 2.62970194476571
Ni 2.0063407867976317 3.4622867024469253 12.282150861384572 1.745468714361555 1.626625898489018 -1.5202799295319107
Ni 1.8997077407396545 0.7273430076772408 4.558121203700543 -1.0426512374661527 -1.0872989580825145 1.0394039341734487
Ni 9.051695899721036 9.192962449516306 11.24332822390819 -0.12223332961132496 0.15218359611651208 -1.313193767840248
Ni 8.631719965203759 1.3215748900294122 13.409239876137944 -0.32069909662382834 1.709032325911392 -0.6812544060126461
Ni 8.87712543529144 1.3734013563050753 8.86491522253619 -0.12473655564915291 -1.5453605266496224 0.6594316537105998
Ni 5.725944243778821 5.171954897262461 1.6573245642267183 -0.7402514533721445 0.7066641043350024 -0.2685308992607053
Ni 8.603761915721364 7.709837898686358 5.658168210015563 -1.1895794987209964 0.9583499070139108 0.24836522294610772
Ni 7.048591974670628 3.3714069948641057 5.755226380616171 0.5193065314205185 -1.5924507952692057 0.8837838015715619
Ni 6.025010096146259 2.5221755108488413 8.492023247507992 -1.0317075939704554 -0.6268282658532817 0.5391821872985231
Ni 6.914927006712323 9.027809143767728 7.450584528851771 1.142963084414038 1.0384636817473665 1.256854726928887
Ni 5.302227120613195 3.6293839591598434 11.21262205129366 1.4810014436472623 0.6426840019386157 0.35619548975822524
Ni 4.8596298321854325 0.7253944719228923 6.545712950230332 -1.1307032932100787 -0.8642647577020277 1.4336201261498214
Ni 3.3127125131531145 1.5851269589775918 2.461514154223461 0.1356560307751341 0.2516202395482957 0.17967408822729702
Ni 4.000999528649192 0.07171253446604377 4.37965366776225 -0.06397598863132851 -2.254386446348582 0.40910262216990195
Ni 0.15419382370812057 6.432533740995746 10.641454413566965 0.7859353285625046 -0.5178782836144242 3.040219187894951
Ni 5.641098119849467 2.563585334221257 2.0588283797927707 -0.467503173595982 -0.34742777086792426 -0.047671337934034025
P 4.162622546089893 8.078711763749588 10.27837297220266 -2.1316003295575805 0.39716241908889016 -0.7734341107717002
P 3.802276390445694 2.9905393191341076 0.7781562353606428 0.4435502623248103 -1.4779127774196095 -2.169185486900206
P 0.3531957171442412 7.776418219214947 9.056923477290702 0.4415769406485234 1.0646603947473923 -1.5459387677505956
P 1.794752727825422 5.76504333298608 12.482252187465146 -0.1112169238961633 -2.3309752386479143 0.48862941405163585
P 3.7591060077093488 6.160573167168801 2.4572191229418756 -0.23493583691407927 2.1876316094205355 -0.45713622853936114
P 8.848773093868164 1.7978428762923186 6.854521481369512 -0.033353378649465144 0.6406623435228966 -0.7983987511368379
P 1.639777655899558 0.8746734007400441 12.271843336483569 -0.5541717187288198 0.88165672792623 -0.4625897954547646
P 4.988755858033608 2.752102729861979 6.492701774216026 -0.238212450782822 1.1539848894458384 1.6024428734849114
Ni 5.486443983224318 0.13694125889961734 11.810254930875423 -0.16541577853606995 -0.9157811804137647 -1.9714326867943275
Ni 4.53951979367103 8.499870574089504 2.1841637012604864 -0.6457832096892298 -0.5113764779401645 -0.31298167337491256
Ni 4.3706619775941835 4.3448312706765355 5.070775000442653 0.2965350977831151 0.5290175880606954 -0.35041102186596423
Ni 4.405433025031783 0.9431004746847554 9.409254503039014 1.0451727183364259 0.4760420643049286 -0.08811504777137728
Ni 9.128307740792014 5.98097777288799 4.325891503144267 0.5783254331568879 -0.16518617902376712 2.2372086490177145
Ni 0.21628838569069955 7.27307246315161 2.2912469736974685 -1.3614857700774163 0.9450922706730562 0.20929371086594276
Ni 5.696629096453398 4.748879644698267 7.269768663470236 0.9257984554404507 0.18308671345327177 0.1990244677294508
Ni 1.1087030898543375 2.3009043753750213 10.36759390275978 -0.4019963501424238 0.8539530913633744 1.2105465878909667
Ni 3.2355413277008886 8.481834010189251 8.02087922256052 0.35424633645165443 -0.22361681235683423 -0.11113901947037634
Ni 1.6125440032387797 2.9137349168827003 0.9138146700153972 -0.662931182223426 -0.651674121252368 1.5392749825771748
Ni 2.34710988909814 7.556119059223297 3.589596234493047 0.177326671041043 0.08445765352444809 0.5276163368377945
Ni 3.7403817253075613 2.039846432192408 11.664668591932513 -0.148800281466576 -0.9486175102174954 0.4212230595825197
Ni 3.4891902502269674 0.21235463586192044 13.266538287069471 0.4961810011466487 0.7726926046199855 -0.6708607214831479
Ni 7.141186393717275 3.470145032524463 0.46934311943145207 -0.025727743783407305 0.5501520560464656 -0.0037419835409354904
Ni 6.839305480283555 5.595873751188537 5.141099260493599 0.0908725559118564 1.4638879238954272 0.5461046254499691
Ni 7.6940295427310765 5.377179267700469 11.864662633926848 -1.9166051974314864 -1.190838567939078 -0.8396011935170765
Ni 5.014228951330458 6.772193324113778 4.100250145832694 -0.7272681537385991 -0.024719357123550976 -0.3491745783557018
Ni 3.6370038801568487 5.394858217979923 11.210407597718719 0.09601373379316368 0.4103249246127772 0.6150973505695987
Ni 3.5986933748313494 5.147866410548701 0.45410144352143655 -0.40706733690742797 0.16970926370510125 -2.252455033653824
Ni 9.065716187572326 5.926978116147477 0.17227531855047382 1.2255782854131085 -1.1806773111353603 0.5108643141904362
Ni 4.940835632846663 6.454824990025494 8.71567755682913 -0.48102357667992 0.7655487944863525 0.06727342843567767
Ni 4.946043954298286 2.010595471927127 4.477919472051553 1.1231810166911043 1.1286839487872045 -0.8883125426798508
Ni 1.2698584587139945 3.372608209846786 7.697993552173924 -1.7566093043594069 -1.1594775371292934 -2.1366957418026167
Ni 1.4902584840858701 6.603445542997177 7.153626762931038 0.34551975521193395 0.5859492682507328 -0.7182908899406533
P 4.505647365075435 4.312196735383704 9.33887705942395 2.0488385756783165 0.6100716152202331 -0.40444146924880675
P 6.183964765801004 0.5441265462463493 3.0435926752165092 -1.3093116591770224 0.5784280201730232 -0.33923726463733184
P 6.1019612116779935 3.8450066333410566 3.8928755088798876 0.7097381152746358 0.9138821636188389 -2.0383726431499865
P 6.053334928829472 7.317233160530165 6.638154237290638 -0.9510898830173878 -1.4885342616891977 -0.502420040077825
P 2.233370418524303 3.3022591919297857 3.943498009298864 -0.6316061468578993 -1.2535009799653056 0.3597058169043289
P 2.270708948367633 -0.013062066739151142 1.4595715675893848 -1.3736200914471053 0.053393585129791914 1.8045493225737954
P 2.570636741256994 2.0501988880355118 8.680770799607227 0.7857054719398855 -1.674213161349678 0.5360292434918381
P 6.014886879803666 1.8979196726356642 12.797019111701626 0.45997678331194974 1.5485672065123783 0.17791982454035163
