# total energy = -340860.6703778077 ev
CRYSTAL
PRIMVEC
9.31798793309876 0.00000000000000 0.00000000000000

0.00000000000000 9.31798793309876 0.00000000000000

0.00000000000000 0.00000000000000 13.63781721674772

PRIMCOORD
 96 1
Ni 1.917651200754715 2.7200044915287487 3.0537254280629247 -0.9483519152609344 -0.20590011180336154 0.22512142192681872
Ni 7.0453119158227535 3.19015288237855 10.830008325761206 -1.2075913619173848 0.35700718702624323 -0.46108749987762526
Ni 2.965188703682523 2.127482967314622 13.32062818519653 -0.2542808170995943 -0.5429614518352972 0.18813893116519856
Ni 3.1456035828571274 5.519938682136093 10.398235135737387 0.16792029012547854 0.7242928731603591 -2.5313135400927824
Ni 5.583105321219072 7.411275885432432 3.900483589547969 2.6344037211167532 -0.083743658176559 -0.7824126601212267
Ni 1.52710637941161 3.618761683756169 0.7560149376010505 -0.4986438608648444 0.4897105629309566 -0.45303531899711014
Ni 5.715616425275578 1.3055059943000282 1.1758890572444336 -0.7399912577322224 0.3563135033933283 0.4293369469389058
Ni 4.484113889833349 3.7206445620174606 12.2261941816284 0.903003311922806 -0.022446501928974245 -0.41193417808142613
Ni 8.539693522191227 3.67909565455751 1.3521257507036217 -1.0144776032454141 0.16086595438185844 -0.33213022127890546
Ni 8.013749020583367 3.5730849077147524 5.870180410983903 -0.7826641140104004 0.33192761834979606 0.6111301383917347
Ni 5.626732139951409 4.25114555964414 5.98580173041114 0.21531266336651303 -1.8028338825445855 -0.007324815796187385
Ni 7.025101200352775 1.881478772237216 7.478078403342698 -2.593105633698915 -0.887305441571575 -0.7167495135954624
Ni 0.207241365960251 1.9850575242723831 7.6688036359832 -0.08679787162185051 -0.43809026765150355 -0.1748869512512988
Ni 0.24410239377384557 5.60364216626095 2.049327413107158 0.43307687359731223 -1.043805405675254 1.5766678214033363
Ni 1.8697194716733099 9.249053295035162 12.998448508312476 -0.2225140662109587 1.8950015031187815 1.0333461580151428
Ni 1.297548432745689 1.1830210450824794 1.4590422059574826 -2.788369605944669 0.797945208539187 -1.4009172366001617
Ni 2.4273358137064607 7.4268462429936735 3.3895839109912047 -1.2147140890050951 -0.11438657987339655 -1.5615191386873557
Ni 4.132248035717481 1.0059420055290147 6.1840819875343795 0.7791589290706193 -0.5489462086638223 -0.6686799117817452
Ni 0.675267119196377 6.285504557199904 11.117712379700412 1.308611033565572 -1.970121938402704 -1.868747454518259
Ni 4.1558225447719055 2.6441840250560835 4.182131883236397 -2.2914234444972212 2.0684488937100767 -1.0033133590984784
Ni 8.705870516055493 8.392655675203557 7.025057405810263 -0.9013842882621445 -0.7741347363831507 -2.3342942757188188
Ni 8.405691540091755 4.908809136348178 9.943181885072631 -0.711968033046419 0.6063640844616589 -1.2846915466354971
Ni 2.2235607391961087 4.683826321676614 12.206241574419613 -1.5429706862612071 -1.6153354131768631 0.6829202237508433
Ni 3.062543039888301 1.8644641265718493 10.887273883190364 -1.0845643327601708 -0.2539010651626724 0.7930734822691825
P 3.530399205747039 2.1686218833127566 1.7967689454333564 1.1160091815330135 0.9945872920793903 0.3235831030398427
P 5.819064725481985 1.9096377312737647 4.998409974931748 3.749421999491407 -0.35331071201126246 1.1646883919062716
P 3.2054716542700414 5.193576160542738 0.38721829970973387 0.8079712253166215 -0.007128383514665142 -0.023320162783179194
P 0.6327687087828117 7.469326949230479 1.3938395865470756 1.3712814160115996 1.5061779429128899 -0.5329032962683469
P 1.5393129433884063 5.054113837610898 8.541092152155286 0.8528889117649183 0.6628985292132776 1.146455670948329
P 2.1688268790436642 6.392959592146787 5.275475682235605 0.7183963051702661 0.011490002917470536 0.31273639013332594
P 0.9017864700509747 0.008830657008251872 8.034202003735327 2.5536970499943052 0.4599667560096207 0.8591204944969268
P 3.9817718512432183 2.8573143592860557 7.537771296585563 3.099308794968256 -0.6861320458199216 -1.467816569525872
Ni 0.31677897117340376 8.385098787123265 11.651142020882746 -1.9161290291260165 0.6872337635245326 1.221032060803323
Ni 7.517249360324115 6.924373752574783 11.042445401701197 -0.5627928847389275 -0.6314901901053254 -0.46142328595048915
Ni 7.391708111118484 1.0169558670714371 3.383706124306806 -0.9638842065685788 -0.22954089115075307 -0.4080656962649553
Ni 8.6604825976349 8.986220814047762 0.45427985767996565 1.4662273706618814 0.7613776938277985 1.3670195554114524
Ni 3.153570462399235 0.7717399737592502 8.468252509969778 -0.4837067799390379 0.24391721447708314 0.12862894872502365
Ni 6.689793410501617 2.936871338853909 13.341371889566869 -0.19095197513396145 0.4364565887028225 -0.291120354525447
Ni 5.576126148380431 4.1701629279476995 1.3883568825440626 -0.5746850081908231 0.5118745006225055 -0.5341749638919187
Ni 4.190634547075197 8.675969093306225 13.088581403997628 0.6532651198885716 0.42516456072877096 -0.047592662177298684
Ni 4.969310830929353 6.6404919372182345 6.258639866664407 1.703959025153543 -0.6900596630091019 0.28430821669962003
Ni 4.441577275669932 7.301742939213164 1.7508368565270813 -0.7096692097099133 -0.5852339873512631 0.13233082305664307
Ni 8.663538897622983 4.014822753858254 12.24344550418309 1.149859554423555 0.12683149050496867 0.6243031854385829
Ni 8.045914714360391 7.731181041502183 2.764535155074635 -0.6389222209033384 -0.3414173030077862 -2.593536550588746
Ni 2.707285438224683 8.207758843912282 11.020419542213908 0.2825724649554359 1.1804160870541736 4.5837061516709445
Ni 9.39597932616961 6.275599536201939 4.720076089492592 1.4048566808638838 -0.5081309744196733 -0.19166005694457958
Ni 5.034499473358107 2.343511195740613 9.782201532986885 0.09513878738737809 -1.048346488078717 -0.6629460946217615
Ni 0.4250008765136377 2.326189056478884 5.074332007471091 0.3317782372561254 0.7431945951608685 -1.7337660812126463
Ni 8.058726947542143 1.380869879372035 9.567188033428891 -1.139101544576103 -0.1685818349688774 0.32361524182935875
Ni 2.71749795281901 7.794077458939874 9.109611471676413 -0.3435567179482922 -0.11916986019465284 -0.9030220809758835
Ni 0.8236644605994777 0.9239604855437857 10.310557529829245 1.5965385921853341 -1.2771980664719296 0.23396961634606803
Ni 6.213196972115981 0.33119389825134576 11.090790849439527 0.3056560862477768 0.05098780390177671 0.8246242604922701
Ni -0.07183982209794268 6.17305508080908 13.196224662297436 -0.37596161664155897 0.5356479488930195 1.8993320121733352
Ni 3.8924403025061594 8.000703837707402 5.045228204474812 -3.310444958359576 2.4806221843855023 0.74717260597201
Ni 8.183569347665134 0.9291068101883541 5.705066599524029 0.7127655892470499 0.43744132121359497 -0.87495437620539
Ni 2.2751637554583213 2.3935487900577095 6.338243436171103 1.9032172061603547 -1.1377051784492083 0.9500701835036218
P 7.900880234742959 3.5787968342168717 8.164811306488271 1.0141461880479243 1.5122694005226085 0.9615470737949698
P 2.227483612046667 1.1551788976300614 4.599149107829944 1.2387505611290086 -0.5481869619002946 -0.3723232485580233
P 5.800652381651337 5.4802906441809265 3.031523458606808 0.5942089371563638 -0.5410850607481907 0.00869469956052051
P 0.26679262578903407 7.7952608433864805 9.624466636040925 -0.2197670995934409 -0.2565318179173002 -0.8121850062876529
P 4.647681847122421 8.542973453885756 7.4615222026755434 -1.1673451128028283 0.3934888268920449 0.5445743048483718
P 4.709394880113506 1.3717755233099334 12.32217691003465 1.2264298347801266 0.6335049065425089 -0.2457254713304155
P 5.995798999488013 0.5002585365250835 8.960345693813284 -0.24207527617233793 0.23483967765584715 -0.059741638835006786
P 7.518516606660638 8.307312225231437 12.58684596641123 -1.6389052300770033 0.6634490024001091 -1.2142664599447153
Ni 5.699813118020122 4.216445373194071 8.544324562112195 0.9208372547804334 -0.9452187689485917 -0.7346767874978444
Ni 2.378435013897126 7.071961360840798 13.122525901639667 -1.6880544381081446 -0.5388420303502849 1.1441103106446038
Ni 9.343053155644265 6.261063475283006 7.764854385700158 -0.7640092179133745 0.12163451968506149 0.3781257141724133
Ni 2.725679146079794 4.880258821825351 2.3994918026564886 0.8026151032110306 0.8062385588962309 0.5536808951353304
Ni 2.227604745887658 4.235482022205212 4.750720155867011 -1.086195954826323 0.929277929348619 0.3069969165463874
Ni 6.375479047092993 9.034739576358584 5.9383694454741285 -1.7647818128678703 -1.440631524470648 -0.0779494200922851
Ni 3.5824494854221416 4.9830269089246535 6.85993148096629 -1.7186248546958336 -1.5965229084560504 0.8483663413042164
Ni 4.285920289996357 6.190926981349154 12.358344679558265 0.35026575453735165 -0.5641486274358736 -1.1867579701118012
Ni 2.768225078230979 7.18647011252847 7.194452832649784 -0.5789445547981256 -0.45050843881019836 -3.350899981050829
Ni 0.4452693635077809 3.0763616157490556 9.873411588058083 0.2528893360687064 1.2814427006808964 0.5659419718908705
Ni 1.2219609159672369 8.79411186022363 5.517887793028236 0.5370723400443719 -1.1500544440431806 0.5653866136080327
Ni 6.9860588316025645 3.514717032332575 3.4098225804244886 -0.11233483955069039 -0.25990073438953304 0.4264920212909429
Ni 2.712503511375069 3.3529474466828324 8.95513600685189 -1.1902006772447633 0.0317963185749904 1.9380695379528492
Ni 8.020933189152917 1.4873651615787573 12.218256187848375 1.8147949115612034 -1.2299355339405398 0.0013948234649975978
Ni 0.38265062210559214 0.45593007331377533 3.5088196778738614 -0.1313741155703286 -0.7893631232971309 -0.5720401143688083
Ni 0.9255305664827858 3.961747495528611 6.7660070960581145 -1.619843842570178 3.2125216662485254 0.6130579515420668
Ni 3.129008246641346 9.44946457596107 1.7008952374840007 1.437326628467131 -2.4549047250147398 -0.3940256732321214
Ni 5.862635636287711 7.029573834481678 13.59062992597305 2.792278196970456 0.48552634964628 0.10040132133789806
Ni 7.18633966069971 5.579042678551986 4.8360514924550335 -0.7427065997808563 0.8579668405084578 -0.28157539114948926
Ni 4.952650268799191 6.340769542655155 8.639939230001584 -0.6672768607866315 1.176400023916245 -0.8396747270674894
Ni 5.049044852264808 7.6867062858829085 10.461787539513985 -0.1088183417569997 -0.1180635145043515 0.7320992565786553
Ni 4.19407288456179 5.452075777217766 4.370906861036942 -0.7340442961201681 -0.4106792226284024 -0.045224419055438246
Ni 7.532064960876106 8.270049592145018 8.8369643541724 -1.190648563415459 -0.7485525170386722 2.113615720054702
Ni 4.726092714194743 0.4503812115976057 3.6652043983921607 -0.11513297112111784 -0.292464013037535 -0.41667143565609527
P 6.018730567386408 8.776314503585706 2.261013459233006 0.26427520930814485 -0.6721614425724424 -0.8733785470778379
P 7.259495182670572 5.262836763626348 13.584220082187066 -0.06003988680171595 -1.394505419536547 0.3704239746527814
P 5.451824191548016 5.267812569094752 10.504978276418752 0.14119367276391168 0.05547592158011736 1.0072890559167749
P 9.127416282704552 4.117926288517225 3.901588702897319 -0.39896836194937746 0.5264961071904223 -0.4814622068792354
P 8.05220435610416 1.6321760094897444 1.3253244224849505 -0.20747645515154592 -0.2755309847276223 -0.15984008422050536
P 6.7248383624991215 6.9816141514369665 7.200549592046744 2.463474726071938 -0.341648959402618 0.6328904128869617
P 8.347034807088752 8.120868607970582 4.674334087536795 0.004151303164212206 2.3125010911031274 2.9805901633784084
P 1.0578525153875895 2.5341572254850817 12.17091987818538 0.0701828887729888 -0.17219500624143244 -0.622423966137999
