# total energy = -340860.51010289276 ev
CRYSTAL
PRIMVEC
9.33293766274987 0.00000000000000 0.00000000000000
0.00000000000000 9.33293766274987 0.00000000000000
0.00000000000000 0.00000000000000 13.65969765723054
PRIMCOORD
 96 1
Ni 3.318811260027748 3.53371148014293 9.835186788439781 2.4676759086374793 0.39945147223338306 1.28592130527754
Ni 6.542585216944539 6.52558993765896 10.798510203699088 1.8660002307904253 -0.41752838433975187 -0.8723202810166525
Ni 5.235647306589744 1.6209445943544167 9.39395163311843 -1.8019944173624256 0.06423952670536033 -1.9734564020925753
Ni 5.727493115678169 8.836695931183774 10.973996495230566 0.8924615318512178 -1.0554450467967114 -0.6442765432367161
Ni 9.755999613176545 3.812840976503777 13.648728668553854 -3.821811151887095 0.27576135557087345 2.2022347040456913
Ni 6.968671148028466 9.254242224405921 6.911575035955217 -1.055738152557098 -0.6409623912618186 -1.2689864771954145
Ni 2.582358490590204 5.194134400350174 7.637901568146822 -1.7657372348026041 -1.604446019957869 -0.3876531940468743
Ni 3.6710176574353195 4.020414840639178 2.6986776912052277 1.4121922952933486 1.3109044575854392 -0.11949639029613614
Ni 2.1112411358089016 2.362577144134353 8.347304684672014 2.0870744792310636 0.25818220903652955 -1.0710809535617554
Ni 4.530217221581231 1.7884148258208816 2.0108308605481873 -1.0401217861760796 -1.302785942243363 -0.9981246158086875
Ni 8.204342747221986 3.756106049113862 6.306832414452767 -2.041647714356832 0.38265728349417966 -0.9874787060590671
Ni -0.06403608443830008 5.882830528324616 12.458682067886135 0.6372054953225478 0.36277288586542683 -1.858044466278458
Ni -0.058114335560375874 3.1737120798778853 11.055845424284161 0.5177903518863083 0.8035579267402742 0.6870442732215458
Ni 4.477840776028969 6.397999348360139 11.3734331564232 -2.0995852101035646 -0.2193626650661706 1.1310907584564842
Ni 5.7424444816394535 6.886289308240543 4.858645160689078 1.6686086706787069 0.4238165313413088 1.6917809950301121
Ni 5.980574383326194 2.269761080161215 -0.24614876163301622 -1.749533628459548 0.44294271064779844 -0.1240896660937734
Ni 4.445119496965135 3.706548150702864 7.55625796371941 1.0182239576617238 0.6859978342349025 1.0662465082875896
Ni 2.6088733661807204 6.070870554159789 3.770199718113946 0.4703092755862094 0.5833892208330403 0.07071716400990402
Ni 0.08710243960266525 0.8777823761094026 10.46864219232668 -0.11882121860598246 -2.0487323891177556 1.7223997483572338
Ni 7.065715032713504 4.31055720331358 0.37944177577724575 3.1802985445487613 -0.7156200279767095 -2.8603221850235707
Ni 1.5278392093171085 8.456873371554332 3.967678143697337 -0.7130262991076042 0.7786333955844525 -2.118961814857964
Ni 7.7472807963967965 4.423924395780318 9.804193036117168 -1.9209791581294657 0.3072985069472063 -0.9508206885164012
Ni 7.821682974576168 0.36983538315305753 3.6218274767639445 0.39913085566917067 -0.9088237752593252 -0.2848293793104127
Ni 4.380750226656162 7.982526820379394 3.404392430809134 -0.9743825349967412 0.5285054243109671 -0.6571348872566232
P 4.958123075488161 8.980479167138542 1.5094103908232566 0.11299149929808282 0.786480145322381 -1.4041259733454463
P 5.900861763678674 -0.01397887386817161 4.910401899187764 0.3483651950805291 -0.047202111607099355 -0.13328907320485434
P 4.444456858398811 5.898705855103733 8.533649849047405 0.20168967326643975 -0.4048284202745802 -0.15121634710723636
P 2.206325103607628 1.4966112002618928 2.4834834835571 0.6415709713800951 -2.03819240881838 -0.9595410991085345
P 1.768647664081806 8.99696113485866 9.091907908475346 -1.4440613760878032 0.4206306774141595 0.912988448159976
P 6.979796009592667 2.8376703303136 8.3967393883073 0.14719668442488199 0.7422628273752185 -1.109084172278406
P 1.3237091991390812 2.3317317855188455 12.502475010770112 1.2700216033281482 -1.7363384699255127 -0.6029368039476648
P 5.156895979510273 1.4489012234865601 11.468559122440917 -0.4777467057008611 0.6098178473382143 1.7581028581857978
Ni 2.3777525005969298 0.4464877325766657 0.4614736304068988 1.652277537618851 1.9878057288357116 2.4230166180568915
Ni 0.1931320765645587 5.699344976015729 4.297941871622028 -1.623276522400811 0.23294014664028917 -1.026831496825077
Ni 3.977632654892284 1.1569482709267096 4.318213011989012 -0.8746057346167194 -0.7666451128743249 0.3556517014396133
Ni 0.7992391735373824 2.539053660340293 6.447800836441291 0.973186200695795 -0.8545827545275734 -2.164588868668459
Ni 6.44236813349119 5.298952622017577 7.367972481626571 -0.5923243185391411 -0.19476852066657424 0.22292827093024187
Ni 9.505970216108635 5.811405557224926 9.931911486660477 -0.9716232270840492 1.1079767981468402 -0.16069600446289742
Ni 0.03493691843911978 0.06489378139949982 1.5127291834174093 0.777262483378855 -1.1106306908299195 0.49928432266232076
Ni 2.4456589542388154 6.194559975561097 9.751234215261544 1.9942111181414233 -0.8910528244291491 0.17574544259685215
Ni 2.306299530684577 2.965316917237744 0.9047769646901874 0.5679906268897832 -0.6899552762207537 -0.33417476251275996
Ni 3.5003275625127728 8.300378674651206 10.307006913418888 0.21352343267657417 0.3057154787308025 -0.7352825394026433
Ni 8.06049418070434 1.7179791461018996 12.631750195297405 1.212804273576892 -0.4446846330395696 0.49041735918999413
Ni 6.117497910178875 2.1495901762177123 6.543554909156385 -0.3434749568677633 0.3849689623464918 -0.42350928451353514
Ni 6.419623764672433 4.426108303167922 4.6036319749674055 0.0017637767686421236 -0.623959428945919 1.722500021380524
Ni 2.083858297025876 2.923048043056312 3.8691503219412358 -0.7885303429831904 0.1608844663246197 3.2901610112995594
Ni -0.09302418848058946 -0.15422305990251609 7.567499487003035 1.0025975639783766 0.2362512132913931 0.11293570635948291
Ni 7.229060105781162 0.20159891751342057 9.129868698681914 1.614998855773051 1.4959099853279787 1.0673541395294712
Ni 7.146360946116409 2.2218364458221433 10.399742714129063 1.5404633464583213 -0.7683458976155155 1.5273026407066472
Ni 1.1751848309069521 7.657059289063631 10.91050545434541 1.5998321753349416 1.06524763470943 -0.3526159999370831
Ni 6.710494096476035 7.75625908232361 2.165007255762934 -1.762460363823545 0.46643179490867415 0.11272641856215426
Ni 4.32832711641613 3.4026863698242886 5.155101255618666 -0.4611371221686381 0.34965280354370104 -1.047611923905538
Ni 1.024056573097296 6.252190864956183 0.8097480612230288 -0.2669923511289918 0.17258709947352857 0.45970090394274377
Ni 6.175987429828916 2.0425413824749374 3.8188961863887214 -0.027636016549713694 0.07125555301187728 0.5098921800851541
Ni 8.034277959115547 7.913687072982121 5.2234136920441445 0.7028789262609573 1.9414145431656824 -1.2767208697251946
Ni 9.394441612340007 2.135282782947645 8.735321563473747 -3.5052679864131697 -0.016961824665319175 -0.5017757216256068
P 1.9946074151983122 7.849607123737318 1.8769788034444814 0.2617429298045944 0.48570709819851837 -0.11156710814673045
P 3.144005339643949 7.876793970831713 5.31206539928075 0.5512198351893474 -0.977721112451671 -0.8021016539097219
P 1.4243089330321388 4.143142969472438 9.72976192583138 -0.7166865215680108 -0.31079006504023243 0.24311940116613615
P 5.5140954985091595 8.430134505462522 8.709586921462732 0.19685085711689967 0.41304335198520475 1.598271772826357
P 8.151079672602107 8.93100526516553 13.257214738050688 -0.09084658776992742 -0.057676785886178084 0.4583292204061977
P 2.4116497297925497 6.758521393128199 12.669779115948119 0.4389716418151923 0.13630677698525556 -0.777660490148222
P 9.490384210393687 6.49096473933414 7.674400820332458 0.8759619915342979 0.29666853803718585 1.0001118214420455
P 8.168765589266672 2.865687808850288 1.6473325419942006 0.5840754482667877 1.0104499701432599 0.6280194579479056
Ni 3.39526668446897 6.239292745256749 1.0095634543699066 -0.13270131902218435 -0.11344761299889496 0.03377092580285796
Ni 1.9154454388664712 4.588258760228687 12.248076865633237 1.9594755144324512 0.6505772886437634 -1.7985828205777155
Ni 7.894218565244769 7.402876734784252 8.727480962634749 -0.5881799573534645 -0.9832430707111648 0.4000628805651368
Ni 1.4807452064203306 4.580540420871644 2.387483021290584 -2.180872179209515 0.5002019493805837 -0.6165615938199511
Ni 0.27239858179700305 4.293729916903971 7.9100714929737554 0.5403926626668564 1.447499198124759 0.8478413220386819
Ni 1.1074463701410358 8.555699847312155 13.024084491011553 -2.183045789822066 -1.6238439648685068 -0.8000116041499125
Ni 5.713848360974426 5.821223807531586 1.0795520863800587 -1.8307192961009437 0.6703799251919874 0.7312772748979922
Ni 7.925558569550632 6.641290364514163 0.4054470729773214 1.453709697810845 0.1404058867552937 1.552180120674617
Ni 6.104562458729224 7.426302408044441 13.17480583274386 -1.3548834342695506 1.9931070864439673 -1.372761857211868
Ni 3.492553225530407 0.5108318039542431 8.0575412392623 0.7751276964240392 -1.2452487672588426 1.0226357135761743
Ni 3.8799167987033694 5.749602844743264 5.865979909571123 0.6116777833650885 0.1438668487207006 -0.15925901490605474
Ni 2.447030896059233 7.549357189692086 7.506372479200272 0.25594020707988824 -0.11238677583454838 2.9488689210157277
Ni 2.4827293822027476 1.2235574462486087 10.648307773294777 0.6111275672885734 0.3401970574474399 0.535435061551265
Ni 5.887394334788454 3.6378390644313465 2.055347106092589 -0.2280280540506525 -0.7721369892268315 1.2514952623891866
Ni 8.421604200538294 8.026914271385552 11.295763516806222 -2.242611822311157 0.4099297460568876 0.10495371659527086
Ni 7.510261514278966 5.203131352152096 2.801727321206174 1.7152441111490588 0.9777486232554968 -1.183630480226413
Ni 3.6357858181694973 2.77802352640688 12.429273048360166 -0.962079292149356 -0.9405676433298253 -0.24268128518745302
Ni 1.9204758922080019 0.05311654750028381 6.139159658241383 -0.16592254296915943 3.242414854263532 0.1278984983169023
Ni 1.0854953010143569 7.191513698001984 5.858958740649354 -1.8050440028220267 -1.2019629599870139 -0.9485848572073471
Ni 5.361959283443687 3.6383897077470246 11.122545129100333 1.1663045873534559 1.3674584427210836 0.1661706544242235
Ni 4.060079825243084 -0.2430343603712931 12.622134469735663 0.01763005437693738 -0.12874721947044276 0.5610316790734466
Ni 8.724467357098607 2.671609372417768 4.0214554631764345 -0.19128827542745766 1.227993836833137 -1.0111570235126133
Ni 4.626579801824836 8.047997377319723 6.897164047078301 1.344637588171826 -0.5972531232993261 -1.3788810827357285
Ni 7.179950188372751 1.0455036635960664 1.3852981873507593 -1.0131357445055391 -1.1784664195269705 -0.08751855183795895
P 4.086968018335755 4.084457458133766 0.36737802069512615 1.567523693010223 0.6641964220890948 0.9969524498774573
P 5.307286935253174 5.6669410168287255 3.2269256899287293 -1.1132156779482765 -0.4976509008239559 -0.8289763668133788
P -0.1962483444137926 1.0150596212953749 5.263067477122985 0.684313247443628 -1.6789290787681084 1.179393302216614
P 7.964243595711381 6.085989912997042 5.970503210411823 -0.8838969301106584 -3.0542527831698822 0.25576151541017883
P 8.616307943786923 7.459704991549707 2.855627835460982 1.6617273701778412 -0.23205388738059393 0.49712768133063406
P 1.5907992060554486 4.526866696999395 5.3421575898356615 1.0227496134462193 -0.1367387223163516 1.058551196525861
P 7.4371472814820265 4.936125341673713 11.986302899947551 -0.8935293109940998 -0.4492704526380392 -0.7806571108827007
P 3.648217290991239 2.009082801344349 6.62693350667506 -0.6698001414291175 -0.4702547681991901 -1.2357331144589234
