# total energy = -340893.3341682922 ev
CRYSTAL
PRIMVEC
9.06623641706047 0.00000000000000 0.00000000000000

0.00000000000000 9.06623641706047 0.00000000000000

0.00000000000000 0.00000000000000 13.26935342559348

PRIMCOORD
 96 1
Ni 6.306446892791086 2.107600794463555 11.450045602661552 0.04424071498593026 -0.49347465795907913 -0.2769463770179101
Ni 4.737770393067417 0.2409733124968521 6.285984397068663 -0.5400622759106312 0.06117785706090109 -1.3183940810942651
Ni 2.740560093914544 1.4164997205030878 4.8010246183247345 -0.3784543011564256 -0.11833245189502202 1.1039692196493438
Ni 3.5196308603848285 4.633472408667443 5.155183546837286 0.3181094815197812 -2.1358025405643866 -1.7464565321961212
Ni 5.062232864008505 4.293923720233175 2.2926925452039644 0.6944511072085782 1.7962120063526938 0.7631638391939437
Ni 7.3967343587135534 5.8843863862045085 2.5374056802464517 -0.4844989368230301 0.6509189882538984 0.15505114747229426
Ni 5.242814162102965 4.6005801027388005 11.224479452429069 -0.5339078262734611 -0.36471226897998477 0.5739332176264632
Ni 5.7440682442922695 7.714088900258814 12.512482496758716 -1.0150303904250906 0.8453972313735634 -0.5525871478505193
Ni 1.7256765167485602 6.6510454749415215 0.4004819571541731 0.23383026255472633 0.04978812716672071 0.14399591809939716
Ni 2.758529374606542 1.700091597418177 0.49693492713296333 -0.2177449269570895 -0.7939160327751359 0.1656212096786567
Ni 0.4574795726205984 9.080198478437925 4.747045152980593 0.34496131160530263 0.564867250769453 0.4164197246566054
Ni 8.796334614428607 2.29995913373809 1.5311241482472526 -0.4081479715661164 0.8704734576159009 -0.4002194607476591
Ni 6.774038038951434 0.7875168723697126 4.8125160730558685 -0.7261368683476334 -0.13962992782121758 0.01168566386804439
Ni 0.904267332567093 7.5723654916930645 2.6946604585162697 -0.9097935953717622 -1.0505681783203842 -0.08791167351131957
Ni 7.560470589438824 3.738498875110122 3.7939334714083834 1.301360779761062 0.43946092274678505 -0.19983719343873327
Ni 7.522111342916199 4.070368461250686 12.371150749608654 1.1966621165993907 -1.272316570009912 0.5899319070475646
Ni 7.805204576825203 8.695028488065141 6.885083116535559 1.0821647221797426 0.9781229758757801 0.5636963703898035
Ni 6.62710154441298 0.5704185870041967 0.4615639121522559 0.9102288831369678 0.3305644194536823 -0.15069312761391468
Ni 1.8723410241927863 6.476855873561418 9.295248700983903 -0.19915996486605053 0.1743205372248675 -1.5902651004717967
Ni 0.140125031075337 4.9011349080972435 1.2999813559594486 -0.11625268654785785 -1.2308138227804348 -0.100639148380317
Ni 6.615859411184888 1.7695842999934377 7.066315370408873 -1.2590496776976767 1.345424859959812 -0.5778819178615661
Ni 3.407816965947687 4.333996485449437 0.45742789507269505 0.0009510510593596526 -0.4300555702724851 -0.21377462945543185
Ni 6.02566554918302 5.59856421511675 4.545350403384858 -0.06910585365872614 0.8025032602235147 0.6557097247743223
Ni 5.39791026946826 3.2116689398269087 9.120106238150354 -0.315157855090625 -0.9041741923024557 -0.551856697442398
P 0.19404375263510096 5.530503977904423 12.47710694865977 -0.09855012706177221 0.18000884585889643 -0.5791900951500283
P 4.050740059283896 5.934531740143683 12.533660318538958 0.16398521673713048 1.4140879696541646 -0.18514385309261663
P 2.563940741159338 8.633740729499092 1.3280368247290697 -0.9801235512455765 -0.6401725483706716 0.07713360905920909
P 6.4016877069532665 7.727570393896051 5.683595540385258 -1.1918554392393668 -0.6046381029094878 -0.3563644112359218
P 4.652148855804434 0.8771882974657507 12.553989540585208 0.541211559023726 0.4960079659038941 -0.2565508440806936
P 3.9875121261123545 6.353727316004391 8.14569796710009 -0.007827466464218778 0.007254110459252024 0.4156383664058907
P 4.633835058126414 1.134331242714459 3.8305574402698346 1.2405547042172829 -0.9472460837912654 0.35728075240260404
P 0.26709948614474893 5.391201254477302 3.52791014753313 0.09650738560013057 1.0892452831756079 0.5981226703884731
Ni 1.415212314923742 1.0459717020362473 2.6611552750019665 0.6171935709769951 0.0074389727765484795 0.2247810078682645
Ni 1.601450944578146 6.6261767882926055 5.040722311349658 1.2575702649386729 -0.2419796311347381 -1.721024465276262
Ni 5.985202935798363 5.774295076697478 9.20157997222636 0.4688373190263732 0.07434164813636875 0.15066330281724372
Ni 8.756388776522984 2.0569749299912448 10.436571825267317 0.15595411890253788 1.5410097058800944 0.28446968197814876
Ni 2.438037915241184 5.213385158507493 6.920312698227268 -1.981989636374567 0.5864943421209254 2.82588997148763
Ni 0.5591338424646759 9.253726244555404 9.233864840311226 0.49622959499639696 -0.3865311646272892 0.2891640021300246
Ni 1.3757832524971523 0.6760910128536696 11.805518228839224 -0.03435636599268277 0.4641993060337296 -0.76066498403149
Ni 4.083006794895814 6.76450942441698 1.4455633547686475 0.5598541138255777 0.36292072429720074 -0.18392206487037355
Ni 5.815428591581229 7.996502166432249 8.112352349347734 -1.0047246376237082 -0.4700881607143388 0.011095595692529278
Ni 5.342615293211702 3.0933273551282943 4.7662057371453095 -0.8189752897366088 -1.051835217958266 -0.08436200848684826
Ni 0.7341230859018087 7.47654443839653 7.063847540840577 -0.36294026468122653 -0.29718018756628173 1.035610014348655
Ni 5.303657675081775 4.880636147428925 7.029280701035137 -0.6683960619927393 -0.48823192150290107 -0.36114794866749417
Ni 8.342823333512795 7.257912145819568 9.172215338909854 -0.4809366733930685 -0.29432754860883503 -0.18058091631228254
Ni 4.74113396679937 0.16478700753263958 10.229119108886774 -0.9034496554316054 0.36714787500467094 0.6252205550465297
Ni 8.362170682148882 7.080440566835781 4.794774354899374 -1.5181353723850821 -0.37981415761842974 -0.3008409242473206
Ni 7.355229128134357 6.132384218721624 7.151239714086984 -0.4574666152955863 0.9376849224653915 -1.4131518309931406
Ni 2.3278468771329366 5.299215219209384 2.5581592021596973 -0.4434667014720685 0.09028300195697356 0.41831514190710534
Ni 2.0791690768802518 5.442271364536851 11.404266548208385 1.5210096086090836 -1.0857426693389882 0.9403089903517998
Ni 1.1526813053383764 3.2961390650576594 3.8872440838251925 -0.020875300787112437 -0.010940043951271482 0.0866970843779281
Ni 3.5762404409301554 2.702762954053323 2.8207591151422675 -1.0151964836893095 0.056416431116515744 -0.16401195621000786
Ni 1.1309042053271858 3.1376159203050915 8.096853618094974 -0.18020656369199933 1.0908385958046567 1.426002975924196
Ni 3.7544191863589353 2.979310365227906 7.182077610830557 0.7007598230354254 -0.5048067951424466 -0.16041883954211084
Ni 3.9519362141873287 6.855452842490358 5.850643667294579 0.9375995618404368 1.4141388774967583 0.29816029209136397
Ni 0.6270209145603438 7.3586833642310525 11.203461196410775 -0.0917924966229645 0.5318666274737163 0.7762422696444566
P 0.18060305706199933 5.54143785909239 7.9481038762616665 1.9116725360165592 0.6637619056548375 1.0382641641420507
P 8.467620078581088 1.7752144328439579 8.10470860537628 1.0166869521919073 -1.0965073640546599 -0.3112518351679995
P 1.7216964389363565 3.311914316522885 10.478304618382017 1.4189838642938852 -0.37199157625021745 -0.7865127983325293
P 4.019806060433695 6.022900347058368 3.7046709335773347 0.6792759421300366 1.026288222727097 -1.197376883278228
P 7.066079648260541 3.910820831776525 10.159083338746704 0.22180135641465026 0.25191025998488875 0.8767965716204512
P 6.529041130707303 7.899148919171564 10.35005635708797 -1.8966033003882627 -0.8172408235440054 -1.843180147572116
P 2.291455003925227 8.488390826343634 5.978095913026186 1.3674149910776578 0.10373424236587296 -1.6562403789213411
P 7.018563502898905 3.9262787649651516 1.3749972097948333 0.4415954525912846 -0.023355644006804937 0.29722158232717844
Ni 5.400222159769198 2.8408961329752627 0.316671853938749 -0.4723435324074188 -0.01596063709431445 -0.04183133421348925
Ni 1.2887745810536066 0.9583374602759773 7.030196390919038 -0.42778888572549556 1.1763491160736514 -0.18119335308530088
Ni 6.951509617935222 0.7835884721054125 9.257788825119524 -0.337299938405303 -0.060290055139309066 0.5617094218667618
Ni 2.8976145083582807 1.8447071354192188 9.216388762883428 -0.11270790661939299 -0.7023922164325258 0.8060246431132119
Ni 6.391089276514848 2.110547321317692 2.5514184553410795 -0.35851668169223416 -1.067532831199181 -0.12086910227394668
Ni 4.1556182828182235 6.842007613799019 10.463880236151459 -0.23124296144352435 -0.24047425023380525 -0.26898752718214963
Ni 8.206004758879622 7.028536363020599 0.3783249818347107 -0.2845522143896261 0.7932254344660146 0.02044258412506802
Ni 7.866093420986384 3.9347103648862203 8.006436041737103 -1.162751579894875 -0.7752616508987422 0.13254833838408786
Ni 3.165394868862247 8.169848607820244 12.400860806534828 0.617245250150537 0.04171512035059913 0.18272598767974338
Ni 0.031928564991428036 4.72078026591464 10.354912233343589 -0.49294732470069946 -0.06999828356600848 -1.1151000394551827
Ni 8.66290681223681 2.4421177216546046 5.806628902459305 0.40105892592981895 -0.26472746635421507 0.06881094812612666
Ni 3.5937020123795946 2.7017112706223076 11.789197189938248 -0.08771035613379087 0.3635213339956772 -1.3378437051784442
Ni 1.0695529831058173 3.065865724847738 12.498762561102208 -0.6971901034062961 0.46300811393910585 1.0336575186079748
Ni 2.9745505910789154 8.574311549410268 8.06168931330588 1.3110947192193743 -0.5480689482651917 0.6942595600230624
Ni 5.398961952899275 7.970482067751101 3.519842103694679 1.0867181458783801 -0.10970794345080462 0.6073806986516314
Ni 3.0503080630578947 8.121035990642788 3.436550589205583 0.02045903918530025 0.3201527372020551 0.8835038084372977
Ni 3.359675250269327 4.518965841997444 9.364886463342751 0.26069931903142846 -0.4817470851095058 0.048059574511388196
Ni 7.3679671903807025 6.22842286169354 11.325964183651077 0.0629460047049174 -0.4371361312683503 0.04264097459897818
Ni 0.47158119683267413 8.91282668688647 0.6800275727307966 -0.1324948594383331 0.7957949949654036 -0.16308353085846752
Ni 4.527179852243131 0.5233113289075499 1.6222978487270767 0.404456124536826 -0.6789434984912823 0.46311455760998305
Ni 6.179075336564101 5.665554636425113 0.25221453910129643 -1.0801903720621915 -0.5737247011600828 0.813309092589767
Ni 7.869475127191286 8.981313037213088 11.451027476071715 1.2326123094417547 -0.023489084260875676 0.7787676071694717
Ni 9.105765265295357 4.891044186901385 5.744926816886383 -0.12520809596893276 -0.65126223052593 0.23475020326583446
Ni 7.8310070858309695 8.863551691648826 2.7851977091956006 -0.00031624568883816505 -0.9413482302495917 -0.8542284565119482
P 8.456586468791905 1.639202753256996 3.670210168738644 0.5227608085177061 0.6389965257846995 0.11952544376185865
P 1.8274903523545847 3.370663528876139 1.5838959908930217 -0.8150139910960157 -0.9387277619076091 0.15665165919019472
P 4.789665530646125 1.2168611933397164 8.238609665112032 0.17989751709201277 -0.2262719905914942 0.24723856554083223
P 8.45485481762532 1.4501445240590949 12.802431618689562 0.35365241162139743 0.8952128693441099 -0.7218516107087181
P 6.361161629913291 7.651314278910986 1.5104504092149802 -0.3494882529413787 -0.014691026353271472 -0.2094330646572845
P 1.9330032124421104 3.1773623010082805 6.156369853937945 -0.672850498219667 -0.47211573266732887 -2.438230092572536
P 6.913857537857589 3.962951691503564 5.870945690631407 0.8287948469301919 0.2095145686274972 0.99300734918678
P 2.4065690084390017 8.428118486262704 10.241764695521082 -0.05307039746241828 0.5764958361473168 0.6376667512296825
