# total energy = -340886.11345343065 ev
CRYSTAL
PRIMVEC
9.12661286728185 0.00000000000000 0.00000000000000

0.00000000000000 9.12661286728185 0.00000000000000

0.00000000000000 0.00000000000000 13.35772046343748

PRIMCOORD
 96 1
Ni 6.5459079844286325 2.1863805244010073 11.381806308559888 0.0829090780904056 0.047485961396105315 -1.3151683750681156
Ni 4.543264431893835 0.9770404225196314 5.943865485355633 1.552853492592558 -0.3128888565507902 -0.4531615601623293
Ni 2.983389379911258 2.2278701068619546 4.562569956262432 -0.11274621605649615 -0.3735272961684535 -0.5051019577853624
Ni 3.7921259330595016 4.609824820122539 4.705337562605723 -1.151652898878552 -0.8265901259693894 0.7075105114956975
Ni 4.21431392141431 2.767754895792296 2.362205635502722 -0.029345285931336555 0.2345511998811509 0.2442512007777342
Ni 5.575749028071683 4.8962544408780095 2.9013237889454437 -0.01934266619266991 -0.400505110308878 -0.5994832981814257
Ni 5.689119814109934 3.007255472769898 0.2641159647592604 -1.5176854293318573 2.0159191992424765 0.7030468192973892
Ni 5.94004691049825 7.950438957425775 12.295474268753503 -0.8656953195009672 0.7158154318169673 -0.1202407246613284
Ni 1.7835227022697553 6.742267062001725 0.25699355601475465 -0.339353478500222 0.7258535327792596 -0.4241240352793986
Ni 1.2673306005520444 9.409355416979185 13.298078334140076 -1.8895695334699327 -0.26485422174006645 -0.5713618573548611
Ni 8.530453463487834 0.30575066036607856 6.801804521567055 -0.38355922648315877 -1.787503422835102 -0.32762050633400996
Ni 9.14094173018278 2.8319606178804535 1.420727060334406 -1.4204576206259343 0.2792953368660609 -0.20790608648979678
Ni 7.260749943569348 0.7993270151990057 4.751648734687021 -0.6837823146408224 -1.1084917901100457 -1.269837255231484
Ni 0.9618446119614534 7.911641725784445 2.597675900202551 0.48738320034936067 1.1265201083666663 -0.1697300896407077
Ni 7.693351397297658 3.8556380325636224 3.917151403832163 0.5414509287280417 0.43968255183928795 -0.27675945781808464
Ni 7.864949973943221 3.7696288321430402 12.735851596713385 0.530068655033029 0.6853416887081423 -1.0458237216568633
Ni 8.255788046822149 7.566409337805948 8.56114991347665 0.3200612059295133 0.7550607504708352 0.48657253152260715
Ni 6.937375793600962 1.1737098049329513 0.02334131261413826 1.868488030209285 -2.036558986980015 0.8967082229427137
Ni 1.9157308174323777 6.72519116917629 9.152095363866353 0.2517657639872245 -0.044143784396749784 -1.4225073040661114
Ni 9.23768382743004 5.314052528404899 1.1229484963782785 -0.347519302140466 -0.4154900137534844 0.5677767111067641
Ni 6.7773771420121225 2.042298685793226 6.637584811489832 -0.6495532182546233 0.265127272895795 0.8300467170594221
Ni 3.7197701456089103 4.5943187047241345 0.49813236001649625 0.7830855178185352 -0.012238965268353117 -0.7059359679197262
Ni 7.098989855681572 6.2254999836683 4.537176981057616 -0.70537186788614 0.18760259904575435 0.7487278662742718
Ni 5.040966015779192 3.014575016354077 9.697384932984415 0.371364998409812 -0.16870499081030302 -0.954055136293299
P 0.31166835620146754 5.712922020677939 12.224492036551563 -1.4323422878786622 -0.05309893670750855 0.1191598328923238
P 4.169885569584154 6.4787726195842135 12.594407349247533 -0.06463573370251449 -0.6569423116298427 -0.7295554071108791
P 2.583725872311755 8.673650020639673 1.3801200213455163 1.1722800882106004 0.3922528976024147 0.5411364828114165
P 6.742568240229005 8.097423058950975 6.012870893193067 0.6739794696177877 -0.06831292544378557 -0.8878659420607354
P 4.911231212725439 1.24926903352824 12.549791901851947 -0.3833273129780108 -0.18026698461628954 -1.1789117345945053
P 4.3197354275749795 6.1687233245196955 8.19186251175149 -0.04071958920654922 2.5749783279705847 -1.0400888760556153
P 5.123160291987572 1.313885453199051 3.749686270190683 -0.3467896230632931 -1.7797816287108121 -0.3817345145695942
P 0.25273872905846484 6.143844177623843 3.3347019174356163 -0.8389699876909809 -2.2620681312635558 1.4292212257511772
Ni 1.3496982824064323 0.14062011431666005 4.765526662335529 0.10119733487663216 1.1610646791107553 -0.4090643127327987
Ni 2.1597308145932717 6.697866090010412 4.703934802195637 0.5715037822493642 0.41004827391262283 0.3636642873314447
Ni 6.323857491407329 5.889074777184481 9.166241613935526 -0.8464706669434003 0.20987760839387082 1.4495902763258324
Ni 8.850176968277077 2.447721086162825 10.210120786378772 0.550446961579065 1.283251471754861 0.316447520436326
Ni 2.6391609193570242 5.41861613294847 6.87699503499925 -0.07925862582201189 0.43749480015934983 0.026080499137135726
Ni 0.7248711941091128 -0.011013083844176203 9.117712674907901 1.129056758745591 1.205646322375872 0.07649006193793924
Ni 1.8407191856139604 1.5366660752561827 11.372363002142745 -0.06402509670170908 -0.012885083492784262 -0.20332540909764982
Ni 3.747195617517214 6.833852622933446 1.3387646000949027 2.455412260778778 1.2449934567149268 1.5874577129299885
Ni 5.798547903354712 8.000598822187186 8.083839008239387 -0.5303645890068931 0.5411477956653261 -0.2818690111305081
Ni 5.591747980569273 3.154686778329542 4.753879278891477 -0.5615068189376523 0.019814463622765875 0.4975953649956721
Ni 1.2443497891493462 7.944689191268627 6.904859496990346 0.8949896975897104 -0.9995330661204398 0.5435360933918445
Ni 5.388407044091071 4.501647076851618 7.4753010987314 0.013355338260983451 -1.7470466003716365 -1.114954515016254
Ni 0.9359159045765985 7.509377133494804 11.057640881248926 -0.4138067125137906 0.7474464284586869 0.5075295933902484
Ni 4.825431924402658 0.2675329686469372 10.173507553215863 0.9646015443505775 1.0003169954743159 0.07209116153929519
Ni 9.007647548079362 7.5957513984333005 5.049753118725387 -1.8117401838952796 -0.2090764526488141 -0.3644399891552046
Ni 7.204475248132876 6.208597496488873 7.083946459559623 0.7765603151055078 -1.010208543556415 -1.7644871644455868
Ni 2.297204985426806 5.493280953474869 2.6054499491115335 0.025054886086098786 -0.06084284231898554 -0.259726670705514
Ni 2.3157137564850556 5.598958004798078 11.518883471730193 1.4417021318270073 -0.6782608706019609 -1.0474604859293382
Ni 0.912622050349789 3.728212262585676 3.57566183982358 0.8715525496126925 -0.36442147721244333 0.23766609136104877
Ni 1.5969564803897105 1.338490801706467 2.239154251110682 2.0485701525082787 -0.0487422024007096 0.814316707918675
Ni 1.2561870061427138 3.8132175355819937 7.989679742456373 -0.7097208888834551 -1.0919631963274032 0.8162092969556975
Ni 3.591833285305884 2.825216050911989 7.063054729860689 1.7318678357486692 2.8091137804705557 0.29919387556220084
Ni 4.779114363692295 6.453656180751718 5.995465529640213 0.07557680609505049 1.3486559653025998 -0.16243638419277187
Ni 8.599961747698694 7.623505428407726 13.029187325486497 -0.6890929282204584 -0.06904877516854559 0.8575600919883424
P 0.4675198748668022 5.820506534107249 7.579130923593962 0.0317693219917969 2.1028844496801264 1.3043229477131792
P 9.000537916592984 1.9229590948870785 7.974024863266917 0.6935411937997991 0.40227480061479104 0.4865159672530588
P 1.9436673796657606 3.3394824372977028 10.111073306700884 0.07798747241907214 0.5071603829762878 0.5858716209352619
P 4.2157011665823845 6.370147672278848 3.7159305795417477 0.10711395747138326 1.7015213622463279 -0.8148491833833773
P 6.962473979207562 4.081028865923841 10.288864290231567 0.5984209183551823 -0.09164542952213894 0.8621181436726701
P 6.76058417418807 7.996628745554868 10.217788053916264 0.2975314002581134 0.4091784697131598 -0.49582644602070736
P 3.1694718913050663 8.517594065844307 5.789583744117328 -1.5435252732130966 -1.1673327715076542 -0.3476997935823883
P 7.213802646565584 4.288723196778169 1.4067952856695058 0.35533391308887835 -1.1779324014003711 1.3951032010215456
Ni 3.1379394435702284 1.8905413656962988 0.320051150194072 0.08823331851679643 -0.07809083076615583 -0.3801576570007776
Ni 1.9518630780929342 1.4694576975081812 6.815135765099986 -2.362819636852021 -1.7230990884171034 0.10973853957842392
Ni 7.4514687743406665 0.8166767064128774 9.142398337609258 -1.8219868013239524 -0.32235540128032864 -0.21494756671761048
Ni 2.8835351076487803 1.6272385821506923 9.101937324427533 0.0691729594512357 0.6814647222512392 0.6625010366645429
Ni 6.759863171765189 2.1672146372105128 2.605503796127926 0.4922341006837587 -0.31541599384801805 -1.1032793926711708
Ni 4.0708253126481395 7.098852956487355 10.312841727768172 0.4927388082343191 -0.2161595847478406 0.5191229546548027
Ni 7.264856919395883 6.14586115908532 11.36510917017179 1.4055462507317407 -0.0569278235352955 1.197355028901357
Ni 7.50233138829906 3.4885200267361696 8.280036544763304 0.4311652583968961 1.0065233813953438 0.15068849962822434
Ni 3.337191657447791 8.603877064653325 12.59027938221122 1.2290243349801802 -0.16465653177254225 -1.2158273766739318
Ni 8.669387892393026 5.502663111585264 9.544719514899176 1.3721154818771208 -1.428131078010792 0.23565548868892316
Ni 9.107091122759186 2.2331270359199187 5.567378098675912 -0.0662231327942924 1.4618865771946823 -0.5967723270081657
Ni 3.625875551601381 3.282057788629801 11.618130824231638 -0.9870657868913647 -0.8537260629542328 0.18692537047307162
Ni 1.4406176005929603 3.8959320287284003 13.013959571783001 -0.47760940879204844 -0.8347058130979884 -1.53731348797543
Ni 3.438296275684125 8.892633971710499 7.843934122308196 0.5520037645432236 -1.1232046708401884 0.9915788442703697
Ni 5.726310761872442 8.06064280877112 3.137942181554113 0.7216325527193767 -0.4210173713296168 0.25367660785669216
Ni 3.487890290442767 8.708586695004062 3.5825141008248296 -0.15453692684003706 0.4314344528978828 -0.43562612238172715
Ni 3.501288158250218 4.808730222708083 9.426877601177772 -0.6900511783686696 -1.3526769135365349 1.1145174274788352
Ni 5.328801134928633 4.7832487193576725 11.600271868015275 -0.3497451061471912 0.031525324301790864 -0.042693682213784535
Ni 8.595225035578759 0.3863915870507327 1.5472511209531046 -1.0397718590358285 -0.45449596270303666 0.38529806355113644
Ni 4.880155095637994 0.24398904522535658 1.2750079073637797 -0.2578075993059302 0.19023695134480786 0.132164729792424
Ni 6.054640662671513 5.76005184994066 0.43800075794826115 -0.6762232713466418 1.0263350168046323 -1.1330309129019904
Ni 8.537398815941152 0.22182415302019678 11.327119643776344 -0.6491320715568046 0.2609109208216023 0.15281351639102714
Ni 0.1597485823940686 5.138036671092574 5.613715737934759 -0.2393409079603104 -0.5765143480900781 -0.7882169255078296
Ni 7.4402521670277535 6.498896801134233 2.2123457382376537 0.8265140213158153 0.5003826979328221 0.26859054885404715
P 9.049785120059607 1.4187867424216922 3.497999839605106 -1.277327392960942 0.6471698056241112 0.044186978929859386
P 2.235810260126588 3.558165210141248 1.5795374269174354 -0.8358219289803024 -1.1403508436021714 1.9568907844244106
P 5.074396799007185 1.5453637373954883 8.113372727738646 0.46346679874307917 -0.7434555621317389 0.07878837105381269
P 9.145961367304098 1.9899119274725403 12.561747764813637 -0.6538338479078482 -0.25868408837361256 0.3898789980535995
P 6.7774684081416 8.132998596221713 0.9207566004702119 0.2826935639143325 0.29514053142843366 1.224291448280885
P 1.7822723562958993 3.5593973028892085 5.8163785670709345 1.02632987459831 0.07566885158822452 -1.0170890727263322
P 7.082333787051737 4.321889308230673 5.960094428499508 -0.22433286458725232 -0.698469741449668 0.13839708385538102
P 2.6565379904097397 8.833995483520532 10.266943991253411 -0.6661471180575624 -0.3530111784929727 -0.24851203293661717
