# total energy = -340897.99596475187 ev
CRYSTAL
PRIMVEC
8.99657191085771 0.00000000000000 0.00000000000000
0.00000000000000 8.99657191085771 0.00000000000000
0.00000000000000 0.00000000000000 13.16739237897114
PRIMCOORD
 96 1
Ni 6.305607266598866 1.9093604437284175 11.292790314930715 0.7729381449718882 0.3647192109585203 -0.055566167301078495
Ni 4.626792973926766 0.3358888105407724 5.821238134055105 -0.7905954530423351 -1.0482475006070076 0.6309566861993585
Ni 2.7089487629133218 1.6329677623598 4.940339697854986 0.46944307093117216 -0.2998232816160836 -0.7695157495539005
Ni 3.226359605009277 4.230655920804478 4.916217189666924 0.4458226032987548 -0.31503907012457355 -0.2046058184719702
Ni 5.132616231438294 4.577581725730479 2.568273866675434 -0.11822909354793831 -0.13346236555792498 0.01049010089804645
Ni 7.294645396481653 6.157991515153769 2.45953680061978 0.331681563777261 -0.7281179033334041 0.6244193993014729
Ni 5.113156646456837 4.5294860524475995 11.598734935618374 -0.19956259962110792 0.2791942925118224 -0.09462353831385639
Ni 5.614544594030381 7.885063419402631 12.301622702268979 -0.7292949543606408 0.26985296050623847 0.17434624825648037
Ni 1.8059088636536262 6.655097094511329 0.38538614972291746 -0.0381086339462634 -0.46253194563363564 -0.05325808799319215
Ni 2.6437146201946233 1.6705914259716599 0.45332826057819386 0.41235918143398653 -0.0672870552824325 0.13608823321654628
Ni 0.7438752484892646 9.114337008258993 4.755337792295723 -0.6696525601076596 -0.6418753899943913 0.2598516263191525
Ni 8.549838108930977 2.3954362259582545 1.4095558928061616 0.9449961114148241 0.30574993151316376 -0.10076127578047807
Ni 6.70622461251855 0.8258511118237709 4.821833254392322 0.5336414599859519 -0.7616795413389335 -0.9307203182221003
Ni 0.9824526392649288 7.444564270328624 2.8131740481699925 0.21102432040380428 0.055164818097601764 -0.38840678438344717
Ni 7.614716434338931 3.847689848917904 3.856690019428976 -0.33765577908282496 -0.08228918511821957 -0.8296394543186744
Ni 7.422531665788823 3.7062997252153713 12.521096772309726 0.5321157673700448 -0.07229453579935291 0.2440344567812378
Ni 7.888698034443087 8.725073336054795 6.6266220448466 0.006108941111215286 0.4032327936526862 0.7475153340234094
Ni 6.935403284648755 0.8270899397719663 0.33567109350122026 -1.026941797150696 -0.6838941576283384 0.41306160681764986
Ni 1.6927769722334594 6.414789662962695 9.141817936730726 0.565381214291394 0.49799799975072945 -0.14118184568936976
Ni 0.25905088940825866 5.063495569666434 1.3134095290998138 -1.052005424987543 -1.1152141964355438 -0.37280378773886763
Ni 6.403885817841323 1.806601599688565 7.090192902512815 0.3555038630078393 0.9040615779839914 -0.864587431148769
Ni 3.3569448458811433 4.34621688663287 0.5491372528389546 0.7255732825346793 0.2800255301638661 -0.7141077050972411
Ni 6.119108331478384 5.595615806789981 4.595025178953108 -0.8867606248116986 0.4261606060934532 0.73202855124172
Ni 5.24842010470751 2.7208692206573946 9.096613761650824 0.9623243182806265 0.12238476758752471 0.5096931767004705
P 0.4056572254881596 5.607482285102761 12.20270989270882 -0.9679159534357911 0.11261868933969638 -0.105537871233515
P 3.8617694839137333 6.134483472825268 12.592148098407533 0.7641755682879098 0.8739048518949529 -0.229660704558069
P 2.3602686264702673 8.58685000565484 1.3706727091307769 -0.41343235989350735 0.5178973097778178 0.5903931629546993
P 6.251816763314478 7.62696976524265 5.607702701113878 0.09639579972293076 0.27978436068733753 0.1458787369444068
P 4.687438864985482 1.0882253348853583 12.452586977768675 -0.5043745927010346 -0.8756321189987047 0.7169829697625072
P 3.9638086022030006 6.118136701715094 8.245091831618042 -0.8320526917458573 -0.9908095702045129 0.07916143812251528
P 4.651110707724675 1.1368608024811773 3.5854280830048455 0.15660769332613672 -0.1320606001143919 0.7841293857020173
P 0.2111459434492841 5.496203687490351 3.500985359660207 0.22027694935032383 -0.05343832232479829 0.8758267515080143
Ni 1.4982800847095956 1.1341618309164816 2.729981848316996 -0.12222613052247337 -0.17533895118705287 -1.2980448280139516
Ni 1.9447349643696974 6.268991219037826 4.8981385784694025 -0.6008647519099845 0.8817716562375395 -0.8192578539740342
Ni 5.878773910214103 5.50384177701844 9.169271875486812 -0.1856552455113964 0.6359492543179435 0.7226849052432909
Ni 8.65640250287705 2.3797641977392536 10.196630903302339 -0.7292409611942537 -0.7160244625039797 0.04057175077477529
Ni 2.4064660230859776 5.069739190552763 7.044581182726644 -0.6522361644034251 0.18433986913408254 0.2781879627344951
Ni 0.5430213832733538 0.011995129290696497 9.194513557217036 0.5773941795918701 0.7948390588100376 0.32971878362393536
Ni 1.6027932602665007 1.2054776562276275 11.451154270803617 -0.27459201785312065 0.24699328229924558 -0.8386799672543879
Ni 3.8570102973879865 6.945443458869423 1.5665505704385767 0.9980773075105197 -0.6279510666038153 0.10773462177451767
Ni 5.556696636827068 7.595166883638651 7.831991742211639 0.16354247277275705 1.502639333632012 0.35055834607710595
Ni 5.193972851675712 2.794875020961354 5.000040948866059 -0.3180675725382522 0.27896006501382925 -0.32340389714950113
Ni 0.8120251801550225 7.381786191733799 6.814178077163254 -0.006489721489401727 -0.4276883555918892 0.6680168242764495
Ni 5.0259888614890444 4.4895952527213945 7.057959085115652 -0.2504061646355365 -0.22736368099377616 -0.21672239922984612
Ni 8.043376094815805 7.393022910014817 8.830553643089049 -0.34052538732113613 -1.1431299490092055 0.15509151379192646
Ni 4.654439439321133 0.45627283855527695 10.323841530061147 -0.40765843352420766 -1.5733115033365936 0.633001227433213
Ni 8.249496553211626 7.1010931490054325 4.756088106390708 -0.035050306735913826 0.1599408714644278 -0.3045476836749465
Ni 7.045773228501051 6.023924600963444 7.005013359931014 0.9929590124473481 -0.8135368923298569 -1.0536514452313983
Ni 2.2999736017149623 5.197445528422287 2.647738786797585 -0.0017640338789582522 -0.07026439274320156 0.0765885351890165
Ni 2.5134352627667558 5.143349141693902 11.17827295144067 -1.1199136587937424 -0.41338530870565576 0.6910914467077259
Ni 0.9514054696990445 3.198209331589499 3.75031005520649 0.8037366184099834 1.163213864243274 0.2468225610493362
Ni 3.5266651744410993 2.8603610676927578 2.7886952757353893 -0.3784206197050128 -0.46623587684778417 -0.22573385869983703
Ni 1.0511324690145554 3.364232069105822 8.30726803955394 -0.4338047529022722 -0.15725612554341303 -0.8492091489204858
Ni 3.620355474023574 2.5435647820006433 7.099766154652791 0.40837371442367726 -0.19540821113310217 -0.6281477559956536
Ni 4.077435305076695 6.64125137038444 5.931515413217013 0.8436236844129084 0.655071062749059 0.07635225080849431
Ni 0.8554786223466253 7.5751405146286075 11.36359153633019 0.21315782180703932 -0.682647686815747 -0.5039174505589579
P 0.04939927654862777 5.5588828037944715 7.954645605312053 0.5479771598823336 0.2664596185539734 -0.060486230310515185
P 8.456282757926738 1.5657183875394622 7.978293994161918 -0.25391469200942723 -0.09802819312003118 0.2874040820161244
P 1.7788201857159627 3.1478285290485104 10.335639634427618 0.40185493946855305 0.1946019131817229 0.5630993602357528
P 3.9625490821394758 6.098146318992581 3.715047991713739 0.5302869416914222 0.1524923856061825 0.3822338228035159
P 6.7754172468654685 3.8948048958656103 10.358774319023006 0.6317051343296088 -0.11114698989017632 -0.29490938925423404
P 6.341134728962145 7.571460916728739 10.172758499812604 -0.7784703876440271 0.08853182359382172 -0.19796902988174292
P 2.5077674224808946 8.331770203075436 5.813785373907792 0.057079518621811376 0.48126603170802923 -0.13745143211266006
P 6.909331219333794 3.889038093289044 1.4996214735772497 -0.05987687886129042 0.6546689422146338 0.3222826390608643
Ni 5.18302402369493 2.7656901417751105 0.48644734064857637 0.21564896366000924 0.5421471834641179 0.49718733092397593
Ni 1.4432840407929772 1.0442320983808164 7.034363776039893 -0.15194834017725445 -0.29294378088743095 0.3069107845904843
Ni 6.778242170436518 0.6109194109264069 9.173853829546475 0.7735207569482356 -0.503189828364314 -0.16820671101764578
Ni 2.9142415366959686 1.5814713849054034 9.161107486503607 -1.1585617101832433 -0.6766061086073573 0.22273980906851962
Ni 6.452179415705614 1.946777186186984 2.6707160313850284 -0.5224931566786163 0.3000225421110833 -0.9075891315212756
Ni 3.9871457096657372 6.929024715184191 10.407388194846305 0.487763980727547 0.16708776692185418 -0.39066112763526273
Ni 8.267228796391677 7.124151362739817 0.322730424505692 -0.6360754954831627 -0.4096484673710429 -0.3187208898515349
Ni 7.560907937910779 3.8883093709665757 8.237744331361752 -0.027176560414791905 -0.831229938734246 -0.5139203274079407
Ni 3.0290557870581294 8.36421184128308 12.386697884616945 1.2314758818444662 0.23471960713821516 -0.16599479096799155
Ni 0.05760325044811485 4.777404583808676 10.11522992091111 -0.1339860992718789 0.47856380228551776 0.6563959522080695
Ni 8.50485524951938 2.268134733823434 5.729145625638932 0.48041191123785004 0.368297672338398 0.8038217219246221
Ni 3.6547043854702697 2.766238932659932 11.44624304221306 -0.3839623754588484 -0.4010332148982061 -0.11960849039396819
Ni 0.9045423267640426 3.4757715673028184 12.49099694176305 0.5011833394572465 -0.30235658956089867 -0.1722770244322775
Ni 3.167360086605026 8.181923301803524 8.020324178681738 -0.4314100274178506 0.43159617528672767 -0.06392148124430927
Ni 5.610163263523691 7.873574797108908 3.4388352417827677 0.019147519462728312 0.1421645213176132 0.0649712626650623
Ni 3.203247411843598 8.449787233027703 3.563504336984821 -0.41594252790987074 -0.4782814951584086 0.5558892156405588
Ni 3.422349923465606 4.025048267005949 9.139355575006533 -0.41211595507492893 1.66328880112769 -0.06273928801075002
Ni 7.18304292228148 5.961218494943679 11.433312269446601 0.8077660512843509 0.2967693252811083 -0.24771961894230882
Ni 0.49363740089692604 0.06289773300085984 0.17487896287727805 1.012527935718211 -0.32089192936092475 1.3704599485515687
Ni 4.600397032024041 0.291428651955538 1.4991338593812278 0.2920446661119293 0.30844444762619133 -0.4742816299703961
Ni 5.974281517316807 5.675559344536272 0.44924111797205607 -0.508688132474724 -0.006583309644472534 -0.30785849321573433
Ni 7.815519918752301 8.733773021064998 11.325734861506579 0.10959712890455318 0.10939761129923739 -0.13120750808547726
Ni 0.035122616628575055 4.835459462165283 5.702244976053607 -0.01740045486463455 -0.4028003341009579 0.8248644015275342
Ni 8.015783608852733 8.663644743242319 2.3790318767880327 -0.2604044134988289 0.9300171215074886 0.4534762631892707
P 8.429454980573661 1.6068597107573088 3.5983192708550207 -0.03760109818222556 -0.752547240020362 -0.25651124909200984
P 1.7294559957976758 3.391473688765485 1.4898907814293327 -0.6372319776851091 -1.3105766419323752 0.7874185979762504
P 4.797233028237308 0.7965384813167978 8.12254322840865 -0.3322862872407955 0.24700845180789718 -0.7216083843496605
P 8.543567498329 1.5754076954567202 12.30833864317913 -0.5422322869787565 1.6478259296054008 -0.5349383244205045
P 6.32648830993773 7.718230990416899 1.2521698642968655 -0.09139089030917165 0.4278824738805663 0.429515381498299
P 1.686227467903131 3.0861480322233286 6.191150180140434 -0.13497031756201916 0.68087028320035 -1.2708487272151339
P 6.81052187035028 3.8864380840150536 5.98365774453256 0.6874996155914095 0.23847367486400864 -0.08744913205260423
P 2.4390516064437384 8.563557881051514 10.163370577053403 0.05691213980601166 -0.19796234501352356 -0.056776385559095775
