# total energy = -340889.7415121387 ev
CRYSTAL
PRIMVEC
9.07420111000392 0.00000000000000 0.00000000000000

0.00000000000000 9.07420111000392 0.00000000000000

0.00000000000000 0.00000000000000 13.28101055879590

PRIMCOORD
 96 1
Ni 6.314437111070597 1.7475278001747427 11.37317991915524 -0.648077147929729 2.2335391705859275 -0.4282743100023463
Ni 4.805733210184464 -0.0781089084044415 6.138695243130996 -0.9987285679412736 2.2401458772691676 0.10262532557241036
Ni 2.7914420454713063 1.6533829635502766 4.676443085200458 0.19821431312332957 -0.09322125864969108 1.2198388118261703
Ni 3.749341938347309 4.442329603713464 5.071406763168316 -0.6858523097959737 0.6142077488757939 -0.24713469297311635
Ni 4.912963044824592 4.946809815003797 2.7695559797889397 -0.26232862710473537 -1.3018464611482288 -1.2472683687920327
Ni 7.208627037880057 6.378301338556187 2.4942138655112696 1.624558731547344 -0.21335991051551642 1.7136189168408098
Ni 5.076997378478613 4.601300533142286 11.822237632262318 0.4501153171368377 -1.071898307256728 -1.1896453189619254
Ni 5.3888141515799655 7.959290325567668 12.719502805831494 -0.9563714431313015 0.0528222860073542 -0.9068088017118254
Ni 1.8643944364047669 6.8104964637211705 0.22797478442902314 1.0313576668302042 -0.5630021725362563 -0.32765084535131317
Ni 2.56787187826614 1.8063830686418547 0.3823033525646325 0.36699463725625825 -1.7896796045508145 -0.35424633645165443
Ni 0.5817134592866525 9.002433263768996 4.7510030735467 0.8620366397024573 0.4489979157029429 0.09802896445097956
Ni 8.802120274035493 2.1607850676013878 1.061802217965268 0.0771238388671962 0.8492826824708987 0.7679244938073807
Ni 7.015219515199202 0.17218387368028043 4.8656837347268125 0.33087423738461724 1.4291343224643258 -0.28468436909211614
Ni 0.8143142714468711 7.491134141362419 2.268210904985716 -1.0827882146963546 -0.09098285623747555 1.097307748468768
Ni 8.074913796244195 3.7874082120475143 3.680791793403129 -0.15475778460159154 0.16630897977430067 0.40037089872385884
Ni 7.81111769547216 3.8972514166103256 12.7227432030516 -0.609795478740711 0.5115729102216867 -0.008753834933230085
Ni 7.767171339445914 8.448235504539824 7.212943635353046 -0.0762892587810428 1.0569193173493927 -0.03421958330450236
Ni 6.703502558310174 0.7981703602335132 0.3083722063560371 0.6376988900191985 0.4121648060349934 -0.16761201485644037
Ni 1.929828500684191 6.342576208745053 9.391175669448685 -1.3989971367593133 -0.4178474582420675 -0.8251050567834305
Ni 0.15812249162406133 5.052651296872497 1.490302328434012 -1.5299591044928877 -0.9358928635619752 -0.23589074462818083
Ni 6.477772731238346 1.970825741346296 6.9113053936484805 0.2251155083895478 -1.0792745451161414 0.10212961688291444
Ni 3.3431081025878773 4.190629413034964 0.5903784139365515 1.6577632433237706 0.33882948767595195 -2.4777163235926167
Ni 6.199857173522921 5.422724441167014 4.734202190172223 0.4341366823203943 0.5969690164000042 1.0428690099039135
Ni 5.3670269946898115 2.7762790553990664 9.230567754137738 0.28404005063989796 -0.11571249777367168 0.286913515532951
P 0.0699176270530289 5.770320789286225 12.728374652266938 -0.26306936192550173 -0.10010693002593082 -1.3860092091400775
P 4.00568811999947 6.0546881039982745 12.777182057833398 -1.250728045205859 2.1151283000444865 0.7225869462128459
P 2.396832261347146 8.69265818591974 1.4622657692322178 0.8600077821978868 -0.2615099878581819 -1.484843700211488
P 6.172525679748185 7.434610942583258 5.995247549558894 1.6842592327317703 -0.8471566372668314 -1.1948692863650259
P 4.651616978355072 1.3267389458181407 12.668954968490135 -0.6561928350583279 -0.8059338831716184 0.8424129519342589
P 4.01263895805772 6.128978588571238 8.343807783205687 -0.34222642917264284 -1.1900862631540858 0.33614371331367265
P 4.7437745649341645 1.1994642009029826 3.8946561950898824 1.0047742599147211 -0.4533189116757999 -0.6130147570089571
P 0.27742282859458495 5.705730625710999 3.580255089509431 0.021458169873775947 0.781401702358209 -0.011020262369903602
Ni 1.5093935401712855 1.108685892894196 2.689988847264445 0.08652739156928323 0.8542994189591997 -0.8272609267841688
Ni 1.8525344555403642 6.5200585084595515 4.947946812404187 0.9294064845066832 0.4209942314011653 -1.265112596062305
Ni 6.000977907566447 5.474529055363552 9.527544578726738 -0.7721282474760831 0.35266973599315393 -1.214724116307424
Ni 8.332103878600556 1.933830223378301 9.853062488099829 0.6021891271483629 1.2076183585005782 -0.5427735041942071
Ni 2.3313256034587577 5.33980439132852 7.052043530766022 -1.135495315282083 -1.045191230279187 0.9056132387418274
Ni 0.5911406468306677 8.790577890210306 8.886204543877739 -0.5954669779331809 1.2375187456044365 0.9272621844701708
Ni 1.1905896322072016 0.9620286543857987 11.15339278639718 -0.027541399953378374 1.3222972728034128 -0.09004568913518686
Ni 4.317150999257126 7.21541454031814 1.7992843211053422 -1.5969224578873142 -0.968933338956712 -0.9742629786997413
Ni 5.697364212277963 7.458966098390493 8.163783799757354 -0.6553919364235874 0.5707193386748558 0.16021932193679503
Ni 5.446997929164165 2.976936864775146 5.016795498565229 0.6640061604551597 -0.723016834661413 -0.9085311837195708
Ni 0.9042559381123539 7.565224993510734 7.001204411568698 -0.1457013308262781 -1.0778077307626277 -0.6395801662023114
Ni 5.398224098141852 4.510168331289802 7.17861230283401 -0.2767386318824782 0.13431288648367834 -0.22728449101640855
Ni 8.091955145948363 7.155706296945707 9.585981526522199 -0.5655419082389744 -0.6723203367478099 -1.0739832148102149
Ni 4.5545774715731895 0.3162213903252096 10.5932795554576 -0.8784546760491645 0.29097200187304084 -0.2894277973143725
Ni 8.331423313516522 7.151024009167565 4.997112648914903 -0.782177404181969 -0.5871304330430275 -0.6227350696205146
Ni 7.521496418311379 6.0875730088587146 7.121769692175408 -1.0464929798097462 -1.2885433162814195 -0.09995240672593754
Ni 2.334147680007212 5.32567586018401 2.2255784932817093 0.5391965854762262 1.853541693312098 2.010199266039564
Ni 2.587181778250416 5.079728713015863 11.273984382187141 -0.8033455536191519 0.5018495122863357 1.4856564259207703
Ni 1.4901743821982139 3.6797065189491254 3.8004278758151084 -0.152883193286698 -0.2980448495594222 0.34169549636983737
Ni 3.4890847760122425 2.8286371958639505 2.4855017250155442 1.458972745981997 -0.6093637905199312 1.337665013508735
Ni 1.088704502027008 3.2866484232165587 8.18229789230337 -0.621178266656356 0.7414141062216779 -0.4699853165878874
Ni 3.818550870292832 2.5188439696124543 7.0991114119776935 0.6267706731424689 1.119795388048323 -0.7364799021448543
Ni 4.001405097070626 6.667305570040777 6.245461386093869 1.7681898101081546 0.2958707247262389 -0.8692660675713608
Ni 0.5761455294791563 7.550470342488914 11.417127182601597 -0.04754278277596973 -1.1077479699654857 0.34354746197691155
P 0.1998375015947923 5.573655628403134 8.04899606300402 1.7288874129641065 -0.4076928863065688 1.7490194078272912
P 8.551626952106009 1.365413190993415 7.637789565030593 -0.37768914085562694 0.5397074636743737 0.6356710609558923
P 1.7002058413316978 3.1709069879254677 10.30173454765929 -0.3277495757127065 0.44907402035651695 0.4438659937930162
P 3.813832285710208 6.287278027117148 3.878387059901063 -0.9059721647431429 0.2988033249920015 0.09104584826492707
P 6.79006136279796 3.89629862549268 10.634689672270687 1.3213585630392277 -0.8284647172842828 -0.2651311295505369
P 6.088199128736024 7.769040624876724 10.46863723628748 1.4493547632762587 -0.5401095842087988 0.20470532016431198
P 2.6550023574245136 8.351912859646456 5.947236858850809 -1.6583579394849763 1.6742779531493421 -0.4031062953771509
P 6.801340594790656 4.2899102474935935 2.007398401542079 0.308951469169597 -1.026842038348038 -1.2937976227018233
Ni 5.706275077778226 3.1252093110829797 0.3640115779460687 -0.7051152717906437 -0.17066365719857063 0.7266737146877098
Ni 1.5364528079124093 1.1062086359883185 6.985479728447103 0.9059138007013817 -0.6037125057714249 -0.36445258756069493
Ni 6.525593771143014 0.4868009452473978 9.160908741816641 -0.002843897206698328 0.17441721070373187 -0.9928543685486836
Ni 2.6801741913325876 1.600035735163266 9.216304017396535 -0.14421677586095163 -0.5716225672154155 0.24426174230069547
Ni 6.6268437072447774 2.0966849108866668 2.542290797887534 -0.7111653346394655 0.10684939095608696 0.7524544231962396
Ni 4.066757493539967 6.980038837455293 10.380424204935439 0.12435628949159876 -0.40379817923785294 0.8774524600368954
Ni 7.777225554287352 7.538102206361767 -0.03620969215096579 1.1185265486382285 0.23744369093759754 0.7365241251192284
Ni 7.505026743277798 3.6503061073189307 8.183188071433282 1.0514788630601117 0.9281055063070727 0.5190105974466546
Ni 2.9068568095220613 8.674564228885602 12.285067260409877 0.494154200524607 0.18083108464987566 1.034124173831748
Ni -0.029732527391202513 4.755643619999688 10.433402113336848 0.2506198233082394 -0.14004644653334591 -0.3944825582638819
Ni 9.12537961474971 2.447366487386823 5.612302650975048 -0.37441226987656806 0.1032814710991705 0.5623737949236379
Ni 3.5098646965780276 2.886085963157396 11.60648761158274 0.04094044696810369 -1.2608803031485123 -0.5375202262150679
Ni 1.0755287620001432 3.373334266520031 12.430229070573626 -0.05902121572921448 0.22285062361477104 0.10307269752247411
Ni 3.0147762834473406 8.245690261330695 8.290113012915763 1.3774152968234794 0.6076702048675922 -1.2939837705707005
Ni 5.442288418782662 7.75253465303866 3.8849613186128145 0.4260181669783179 0.1960072781696818 -0.08824463137070608
Ni 3.0738947037469457 8.417020252685543 3.671176769895921 -0.12992529893894397 0.5143437880986046 0.04974261864076595
Ni 3.4958632042492037 4.235837083016948 9.180737686105006 -0.21247982190340825 -0.4951188784307215 -0.2615470117437044
Ni 7.12205008499003 5.993827437083547 11.605929548213833 0.2313020968162339 0.49873822035086374 -0.32421019510088034
Ni 0.5371917989093724 0.15647189444025503 0.023892371550093452 0.15039102299246357 -0.5926251376090116 0.6896824821753411
Ni 4.6705548360934115 0.5010292926042328 1.6549337445217582 -0.8634759432521452 0.9999069045200908 0.1899998956333373
Ni 5.96963561689648 5.836036153800381 0.548567217433944 -0.1444098657083642 -0.9940054514339913 -0.14311325838412772
Ni 7.82441140011359 9.064528022036102 11.157615919598628 0.31777086723343984 -1.4176132091986036 0.4774304600120229
Ni 0.26254567585763916 5.0142946487364375 5.688960594620333 -0.47965215025368996 -1.2830203295806613 0.9043932502917973
Ni 7.937875210923453 0.051441646151720394 2.263974160482587 1.4695849742802045 -0.4778107261695771 0.6465517124241381
P 8.761703782245096 1.5837566183532135 3.6136436125320555 -1.7886457639696616 0.38844535093086646 0.26950894690325844
P 1.6197993452035633 3.34379774187303 1.522362388412605 -0.7635759870306978 -0.32060576557907366 0.35096072372184717
P 4.483825925437193 0.9684168919745817 8.251425156438808 1.8965079124609787 -1.6317256816094285 0.42078674337604943
P 8.306224257005088 1.832689177689983 12.18001523403865 1.4313192459307866 -0.6203051200227833 1.2119630086225193
P 6.317159371406726 8.000042562799521 1.538193239687308 -0.9647768935861771 0.5910896748010916 -0.43097885341770287
P 2.189459543141948 3.3495235627800217 6.063896603295287 -2.04309833076043 -0.20316137271595977 -0.3104169979715299
P 7.3846937622197695 3.9600085915592227 5.922348140017692 -1.358877128809976 -0.38546749924946516 0.24782966215761185
P 2.2123446783676735 8.320543346373126 10.245834746497103 0.513984862097289 0.6210818502878077 0.9962795921801487
