# total energy = -340862.71500187094 ev
CRYSTAL
PRIMVEC
9.29595002359899 0.00000000000000 0.00000000000000

0.00000000000000 9.29595002359899 0.00000000000000

0.00000000000000 0.00000000000000 13.60556250856742

PRIMCOORD
 96 1
Ni 5.172954582527051 0.17893681549111898 2.6227305673849566 -0.19452040921151015 -1.2034264319064176 0.28983788826859763
Ni 1.6013761543461238 9.0577693480981 12.693241630676686 -0.8967516745861395 -0.34825592319617443 1.1485259232137963
Ni 6.305015395898645 5.482333100590937 9.891189395463005 -1.9825560504009985 1.4830632112722975 2.589155133691599
Ni 3.6252532445416397 0.5548418010446895 0.393198241680317 -1.269653421355452 -1.834219081724086 1.2996468823937488
Ni 7.474520296610202 2.2252738509254844 5.576674910220304 0.4310199910682835 -0.4084025107790837 -1.249694718845338
Ni 1.1271804395251486 2.8054898775916146 5.95486948830412 1.3490614282711348 -0.8502278199929872 0.07451622604102005
Ni 7.658208272240213 2.020995345638567 12.672901162079723 -0.4791214745612006 -0.032039287823731916 0.49758996567903335
Ni 5.203798545236584 8.130888747181244 -0.14237677301362564 1.8803935233976197 -0.2727865892132657 0.5642985227501766
Ni 1.9847876196730363 1.3544292377160008 2.106929897921791 0.485916385995847 -1.7169533805306816 0.21074586993143704
Ni 6.854210836801752 2.9429862767587953 1.380488574865981 0.16846330711314214 0.06557778590080963 -1.179153418291666
Ni 2.440726088333215 3.3985064276607075 2.985101579066071 -0.2699118387686319 -0.3286155232574276 -0.16593642692623037
Ni 7.441687000561355 6.915610587765123 12.191563368732607 0.009850410431518518 -0.9662264815485101 0.42460277468803
Ni 6.321999096884274 1.1340780345614576 9.101237211157105 -0.28401228272575607 -1.9604517623027913 -1.4006575551808718
Ni 9.164784326612914 6.8812248680355985 8.606090283812096 0.6076936019063598 1.4669300531558607 -0.02815975026366763
Ni 1.1723773493183223 4.327766791824593 12.157727039658939 0.2834594955460796 -2.029739650065337 -0.03595096417331228
Ni 3.8982567095366876 9.080786120752954 11.782104650990954 1.0860386033128522 1.6159805029600298 -0.24951630583141543
Ni 1.6597268336492401 6.143888691364486 5.337652791121789 0.6230875678639269 -0.7357437953097781 -0.8468990127300704
Ni 6.557502698838256 6.010473214327951 0.6396803608012547 -0.42809484700168854 -0.26295700471735356 0.12993429780000848
Ni 1.1432252495422233 8.41984406269153 3.716522742635292 0.2574034218889761 -0.1761028259362709 -0.21195403130692528
Ni 2.058374361327245 3.034384058964983 8.240372730064848 0.3002133179656507 -0.4908346492330708 -0.507864608132164
Ni 3.878419151844661 8.366764187142573 8.860499989249698 1.6966789465523617 0.7485471177220334 0.3675679932612251
Ni 5.033282931016883 4.784244425595427 2.5859957610440096 -1.0205713748479777 0.9007319993901262 -1.1568971779966268
Ni 0.5720560415948744 6.726540256978748 12.291115558439941 0.7027696543766025 0.9343229479716941 0.7576069139314565
Ni 5.742517450282655 7.185128071441282 2.7714666999192548 0.2479502468958762 -0.37667561198944804 0.46557561755596594
P 7.394156807272073 3.7947648961415 6.8791899845403846 0.32659643594486976 1.5231546799765445 0.9615141636745053
P 7.773422278817052 7.042723410577104 10.076442809103954 -1.016667154697565 1.161762219398412 0.5033199261842751
P 0.9426558283786045 9.10159975321427 10.45308589310211 -1.3710685286698452 0.2381782551107769 1.0177225925452729
P 0.6075238099257825 3.531735985693567 9.786970638763453 0.21784597131132807 0.06035227583581218 1.2685205933025896
P 3.2323041343262457 4.57098603243105 6.9269730276746655 -1.1409385977848414 -0.0929878024826463 0.6877194449116995
P 3.0502150621278323 2.3057860754665533 11.534265323143195 -0.30011715870741856 -0.6223167511361734 -0.04779372244451124
P 4.58872270538156 2.3179637702072067 8.392890455133877 -0.4870430434011224 0.5975997080054676 0.12334378906668435
P 7.281118053038219 4.253771028362301 12.41612377813033 -0.5863963830904805 0.578959467196461 0.12837672350490148
Ni 3.19430228997526 6.563331259603438 2.835957354318708 0.22739067757696968 -0.8835400609918718 -0.6142835964190517
Ni 8.247199675879761 9.15837941693634 11.672960899884073 0.28536134055448276 -0.1851687927932811 -1.0518722418437885
Ni 4.556456462293919 3.0188598221581953 6.0038489202270435 0.09360949522704523 0.8779209150328816 0.9285269101152073
Ni 8.883470282153633 5.018260675520016 13.803387241490196 -0.6684562258067134 0.5304571487206993 0.17264623484623814
Ni 1.8327802422690922 8.43562858610346 6.179728297702742 -0.32489925074810494 -0.0318557110580161 -0.9427661936430409
Ni 9.085210993040398 0.36540706901111253 5.931848067674175 -1.540011603632883 -0.965328652324589 -0.443563632061249
Ni 7.063695074191544 5.945141276436874 6.329579944259085 2.0946846874781535 -0.04964517383095321 3.7130881980573793
Ni 5.655107630705277 3.250514900736124 4.045559406552659 1.7342959855741873 -0.5388332885995365 -0.0990113829689069
Ni 3.0595481961122726 2.8325782764269314 0.16855416873093887 -0.4736501670339842 1.0132743269659323 -0.5823867477104551
Ni 3.36004908175072 4.0485908159075645 9.901543224777617 0.4301846396511817 0.23243749597225777 -0.6799014915291774
Ni 5.063383217711721 1.9658052893979105 12.952822673201485 2.1957514103141924 -1.5966293521269277 0.4664467073070096
Ni 4.509270219161433 3.7411179676313386 11.851479397616925 0.28327463322878316 1.8938596762048547 0.7344767556718964
Ni 8.525473944628969 8.284894753874683 13.90855883308358 -1.1407799607197902 -0.7358939477343971 -1.0413893400345935
Ni 4.6063478269298646 5.829797126557462 5.7827038429268125 -0.7952941440695852 -0.10370441756920204 -0.8345800861534014
Ni 2.2010300128463816 0.9579476664307993 4.83281855409034 1.4073941025737569 0.7117554028149807 -1.2538483360023955
Ni 3.0198637847780354 7.170626389154703 0.08352783078066281 0.06502011362512673 1.0073458772966393 -0.07958824124728874
Ni 1.4925205776949384 5.861830970890509 9.642166693156861 -1.13538527206678 -2.7932953253810604 1.6737300510656723
Ni 3.8332501299020385 8.420122941197041 4.334405959445795 -0.22730146029727308 -0.5242471632552456 0.7976104509075876
Ni 4.941596974355001 6.393243259092189 8.022288809160111 -0.25186243746608883 2.523803861979298 0.2476136894920639
Ni 8.269156710213672 1.9089233702238197 10.306826201696751 -0.4044617809637809 0.36135106581723575 -0.07461958438810375
Ni 5.207860875466863 5.871601014533583 12.122733364787399 0.5473354125332768 0.877673832019082 0.8635996133142031
Ni 1.0345369999943446 5.526098434055819 2.8834949843681383 -0.5119428919665957 -0.02234288647157442 0.04373600743536984
Ni 3.382377954091979 1.2112437170363928 6.728767566642763 -0.33313577972528435 -1.2988704092390404 2.065748464059778
Ni 8.200385270754623 4.816083054974616 9.021590439578139 -1.507929635496674 -2.4238339717518644 -6.190746157608236
P 8.457901682743618 6.902986687415652 1.9344937403941371 -0.08244267997694835 -1.2322328146151489 0.0658868325007962
P 8.230699364303685 9.109064401211786 3.548493795089732 0.15680438271797512 -0.9402948492844128 1.4500600168733995
P 5.903802185969938 0.8900528350740732 11.319229544303694 1.5339543416952097 0.026403172583877105 -0.6348400804141647
P 1.1219747074222737 2.0213950714964666 0.29408110244158087 -1.6625151561864595 -0.3576779878410227 -0.8811548485891469
P 3.1273435608020326 4.843097086208463 4.230037537948284 0.48191214993246034 1.259626119026437 0.46139963180140536
P 6.347851134345157 5.917095394732635 4.535196624223786 -0.20510538381620805 -0.04482589806543893 -4.68582908368564
P 4.238600037662494 5.568543742594617 0.6677392568357499 0.6556634449174191 -0.4259256072645116 -0.14116281952597623
P 3.9781925851663673 8.148802043185244 6.612276296510682 0.49024638082976857 -0.2017475230875687 -0.06946400832909327
Ni 8.879863453482354 0.6506644555383205 1.696178113509584 -0.15826862596832744 1.6664954809904462 -0.13085398140080046
Ni 1.6966689396792838 8.80412934733571 8.448360319475062 -2.225098753128058 -0.47176272020328436 -0.08308288466410853
Ni 0.3237063660820303 1.5751708707782595 3.926797135790699 -2.3308430839454246 1.292217165588581 -0.9964230597365485
Ni 4.703518394200132 2.2006581748390333 1.7470632152201668 -0.5033983448306942 1.588859992594154 0.7512596315571901
Ni 2.000925389191948 4.747999515829161 0.9123807778203141 0.5568765192544926 1.0468159103668035 -0.6952121537443189
Ni 5.39904138694494 0.8232177420382893 5.002901906626499 -0.5132587825645418 1.3321109164597251 0.32864200561998885
Ni 0.8421610293226435 1.7060857372153768 11.630865119072183 0.5870365877776407 1.3985196829022624 0.5476087207993214
Ni 2.830226401030454 5.791200341394719 11.898473214580608 1.33254491867335 -2.8023587211349095 0.3556504158880327
Ni 9.272961298900688 4.094299002960843 4.60583654966976 -1.1416880743563564 0.6155688908893785 -0.9758110399131518
Ni 2.4032262252921486 6.722217640143325 7.654666515220221 0.3918268658085897 -1.5451314413579518 -0.9883168856896463
Ni 6.088596379671809 3.0199009685787703 10.2419004968287 0.09264224621776948 1.2641024096302358 0.3823135270015158
Ni 6.339029277620821 8.106849420006183 5.33831931074996 0.26019589703244866 -1.2688039288709632 -0.6083191513055007
Ni 5.664608091793024 4.41765863010102 8.080915578183683 0.3675937042928379 -3.7398844923146175 -1.2588776708961869
Ni 7.293751249337874 8.304881046769651 7.761034495602248 0.5361354300523992 -1.877555282617876 1.2121388720787512
Ni 8.764872549709924 5.142045548166232 10.879905727406852 0.11324706695231464 0.8484879544837451 5.430965118843596
Ni 8.801489297483538 6.68675359019249 4.254105682568914 -1.7070975707825242 0.6794672322052363 0.8193822953670404
Ni 5.9680650895898895 8.130433245622243 10.698312129353228 -0.4502652124511406 -0.13083881189214885 -0.3879079903701577
Ni 0.08698685384401944 3.28026194132398 1.8179206659004397 0.8363713737258692 -0.15451070158779195 0.11448839555858346
Ni 0.45970797645967104 4.666650655771559 7.18610414621057 0.28172040136778576 1.082541388792871 -0.21200571048046715
Ni 1.1946411500082956 7.6515523719086795 1.3658483829216639 -0.13691561421384807 -0.11995276110726437 0.2043908742476867
Ni 8.796962169744074 2.609717166722788 8.148562207670503 -0.4020968802760301 -0.8408201535258423 -1.3137357563866472
Ni 2.732107646841448 0.9148953323450063 9.83879463144259 0.7973183735884655 2.135313773853426 0.8111269973367836
Ni 2.4538426740424226 7.629195611716869 10.996491816230805 -0.8333896653897259 1.9658050561949048 -1.5684847713719117
Ni 7.5554043591586195 4.966733223651739 2.6477106447186087 -0.035008654864701 1.115882426147162 0.8045861108944724
P 6.62164475510582 0.5779115606155901 6.736971242679883 0.4452361346676655 1.375832782827708 0.02913934056811756
P 9.335457971985738 6.739656842687955 6.630779885351347 -0.2705379023884051 0.9614902524151054 -2.8373856308320553
P 3.4375029386813494 6.346057015959702 9.601363979015526 2.5979213099200034 -0.5264040616972483 0.5524074277395454
P 7.798047250853687 2.9282336038172554 3.271661328214016 0.48062068481454645 -0.5401108697603795 1.7804634852691854
P 6.548513515010613 0.711203401514681 1.0955035596791556 0.6481136575946193 0.28762082601262073 -1.5392690690399038
P 1.0114923394889401 1.221385598686815 7.369520680095217 1.089964677840136 -0.4273494841952318 0.4888453867171839
P 3.945210553914581 1.9238433702686664 3.8363605548335062 -0.6559843185919476 -0.22962856576855292 -0.15052189214337305
P 3.1129162461169226 8.545859963381835 2.2027953137862673 -0.41624051876626383 1.3917677088904095 -0.6804061990797379
