# total energy = -381162.32688046 ev
CRYSTAL
PRIMVEC
9.38364680936279 0.00000000000000 0.00000000000000
0.00000000000000 9.38364680936279 0.00000000000000
0.00000000000000 0.00000000000000 13.73391561906279
PRIMCOORD
 96 1
Ni 6.1791409451349875 7.122253772346696 12.283930563121228 0.7292551022616409 1.358261606713164 0.5341438535436672
Ni 4.35110328587146 6.477766127842342 7.981066729840956 -0.1860365401102151 -0.24286717594601398 -0.1458237153367553
Ni 9.007137565246508 7.802784005047974 13.366917909515703 0.6673388243728183 -2.2213973930170714 -0.43134729250071513
Ni 1.8944081946232911 4.122939908623806 4.808133813893133 -1.2114675570433393 0.47492209176787237 3.9272919446304297
Ni 9.325796834337732 8.908656189790447 11.426727839455292 0.09878975387640405 2.764088107689485 -1.2647883799536668
Ni 4.818925007964069 6.21248104299067 3.7881989452727844 -0.11841549852713155 2.03815255671938 0.01686258008329354
Ni 3.056488425004812 0.6496627258348935 1.02349220920495 0.7273715120856827 0.8375664224752349 -0.3274821809839328
Ni 7.543485686993916 0.5154221483218568 8.189424043327284 -0.8776522347525272 1.3432468784718865 1.8074891219284097
Ni 2.1007264416125633 2.321232762893362 12.32746693182689 -0.3280437099143576 0.22218959299200444 0.9654062996400598
Ni 6.199015509519545 4.2675700601154 3.6220727351918875 0.5676283584543579 -0.45764299297245054 1.3838692799789394
Ni 5.78899705305908 1.9858518348156986 3.119466771967495 0.0110184625976907 -0.4967800681832283 -0.056171147874929064
Ni 3.255262219791448 7.798139099773962 2.187606814260018 1.6728108816855125 0.44667749509988236 1.8652458691229037
Ni 1.0975958080724166 7.012183592823151 2.987552400550271 2.6122346412188815 -2.233418585847663 0.6775095942582332
Ni 5.841019992128008 4.222706843721362 1.3377599314916524 -0.2288487501797349 -0.02242207644894203 -1.1393995354324957
Ni 7.005314763205825 6.277425264003666 2.7580724976259634 0.8880101809480836 -0.048885412846793236 0.2934322904880753
Ni 1.0119231107962052 1.5276295836227136 7.889186750062201 0.4547980673244877 -2.077251836713687 0.44718940173929433
Ni 7.537254945373828 1.6752437348660958 1.372944854351114 1.0519244352379626 0.18256786483532428 1.2807497883789298
Ni 3.3335406032173136 5.579150554790962 1.6308337486230373 2.1902330515991246 -0.6027686538009167 0.6269902453524427
Ni 4.0261851242190945 0.8160376025617728 4.521576001251189 0.24544470686520312 -1.278348635136605 -0.6276098812143127
Ni 8.769187044158867 7.7734976427041556 2.117412442740336 -1.7782405094759375 1.2365635807800186 -1.2848288435443098
Ni 1.6193641168726853 7.125068866452157 12.03151421179032 0.04412295846114336 -1.745827640362871 -0.4281848356123335
Ni 2.2468016747449604 6.385421657536187 6.775449192389069 0.5824577101577066 -0.9900292403950626 0.4299231584596789
Ni 8.747773561663323 3.8976479273637232 1.9527566501471914 -1.0732586779393645 1.2738386630813932 -0.8422095776742011
Ni 1.9007890745956704 0.3620558214563149 2.997606039965576 -0.026133720972574343 0.4700855896111776 0.3525908031261024
P 2.1192685281205366 5.499154963960764 10.236876705723391 0.08370174919503004 0.4524341950780015 -1.1648017775556845
Ni 3.7274754886885764 1.0384131463285977 6.79186119102391 -0.05039207929930675 -0.1405796933289966 1.3156435149323213
P -0.00756134276726956 0.14408308487043178 0.7664037400236795 0.35854444960637605 0.6732701022555889 1.0963325290396926
Ni 4.238996854944966 4.148529114042451 10.045219468835365 -1.2859066499895209 -0.4378346999972717 0.32430918257258984
P 8.849098182165902 9.324145312462527 6.840066862485832 2.544878423261411 -0.3727737058318806 -2.8201672100712396
P 3.638602967779157 5.369989062755173 5.5101160020427296 1.3717830382383664 0.15989664849005367 0.26970692184667744
P 8.11907859509061 7.365918934468423 11.140389604153574 -1.0423972124738177 -1.894994818250562 0.5829770729962863
Ni 8.750166391652964 5.265567838736588 11.990958089377639 0.044751593184077766 0.5426758022740784 0.9632820542082056
Ni 3.270257287726539 3.045237432229984 1.0123547585590424 0.2743634467820823 0.44684718790852723 -0.03242032531223449
Ni 5.3455540459197675 6.95792734576389 1.316847535746881 0.4024357516726876 -2.4155521913590468 -0.46849999029161243
Ni 0.06510937320051696 3.3953976043613205 8.377455439007479 0.4504567596366565 1.6661316698931241 0.9353940695486859
Ni 0.28100644706597316 8.674646800450452 4.282509764533083 0.9711460303373144 -0.3376310964924766 2.3479090382887757
Ni 6.195515409181755 5.139301484459622 9.501356424766028 0.5292451306904692 1.934287702312914 -1.8987427153287686
Ni 2.0294482588622786 8.042939683184894 0.4573157908910262 -1.407642214028821 0.11954138460145862 -1.3318592054602352
Ni 6.610394594797651 8.006540516401277 9.686036920096024 0.9928859931175674 -0.46721263893875664 1.550154091383524
Ni 2.6073307768314136 2.9664523318651357 6.898916404760504 -0.7572222768985282 -0.3679114926435728 -1.2049189572915442
Ni 8.23919866057065 6.789368894375874 5.975969973355621 1.205090449872402 0.908661538649848 -0.3396681815271634
Ni 0.8576005902995082 2.232003663397251 1.2163927793228912 0.2636375757241459 -1.35399486101701 -1.8271876287986017
Ni 4.81447715927744 4.1604369621085535 7.744527509264853 -0.422519152686124 -0.8999601542211081 -0.7436442811037773
Ni 1.6806111809605093 0.9775508117685204 5.594455283077655 -0.7817359457691764 -0.3119511752278692 -0.8233669910464013
Ni 0.7718969269881367 3.9264932582976853 10.697457067412053 -0.2167632797701106 -1.35468288822297 -0.39169882487115765
Ni 8.494959343698845 5.712595399036855 9.75748025503383 1.0542278865601586 0.23274320013813463 -0.8826651145860862
Ni 7.181201842915059 8.74841164966056 0.5808458736974836 -0.6571670260461392 0.29486362361796314 -0.7181885600348341
Ni 5.996563325101773 8.10564121256054 4.4065681466666655 0.027646815182991096 -0.3772818781148793 1.3062137369779891
Ni 1.414021769173306 5.6492651653109895 0.8604091158520568 -2.9531572639784365 -0.1758796541818713 -1.559647632696256
Ni 6.682132576251828 7.971361223730026 7.347837585029045 -1.082745277273561 -0.8603050017233312 -1.351798881806956
Ni 7.7104020001537465 5.751584452397496 0.2568501245470081 -0.6772802518562464 0.586501284099461 1.5717899244857447
Ni 5.587304944049782 1.771247827509351 0.23529119552268218 -0.8230453460409244 -0.10394867236952421 -0.15112995804101714
Ni 5.8200381573953015 8.838729252210785 2.285391923107328 -1.0716800205983348 1.9092122474015245 1.1934448952136736
Ni 7.736056891101518 9.365414592048593 3.7838177204799845 -1.3714832476097605 2.109833113083818 -0.8367668093920749
Ni 4.4053407656366845 8.92129596232397 11.080880391493523 0.7992837248449525 -0.509729943475677 -0.4565286768623492
Ni 1.7901089580159428 7.406118478294414 9.491660302302117 -0.7528128349769229 -0.23720406412296566 -0.24886993049666817
P 1.2251289546968402 1.6387507316122967 10.499565335445128 -0.4017572375484242 -0.4702110594454483 -0.905634578898066
Ni 8.399067854819808 4.4925617646709 4.466681666194691 1.0723755040034628 0.9270863210139388 -0.035893628572815604
P 3.325226691959184 2.2734981505117533 3.153856899924514 -0.5570544395932536 -0.9623186618536717 -0.7005600483197935
Ni 1.645713397699805 3.8118063244411844 2.7804449888467677 -0.4630855041442605 0.1839161513331026 -2.9041839194035273
P 4.8250619131139745 8.409690143244417 8.749657797984579 -1.6960965916863304 0.5561033885338938 -0.24766125490054766
P 7.551077057431645 2.501351867407806 4.505507444097216 -0.7967804988071245 -0.9924285938651747 -0.3125816097230165
P 7.693539586462031 5.002262703405757 7.793873293839487 -1.0566627212538964 -0.031014446103643362 -1.046151023089295
Ni 3.168970201812035 2.1683919202608397 9.363015193506037 -0.39116892050961666 0.8688847729725424 -0.012233565951714416
Ni 4.377649623285962 1.768048003876143 11.793464224044286 0.12334584594921337 0.8923093225440698 0.26177686836632336
Ni 2.7820542843103895 9.403821859294107 8.980772332219459 1.6623989423235692 -0.2104568779361085 0.7831341116682836
Ni 8.488212501492756 1.426145441120827 12.982231546545584 0.6519561712691611 -0.36091783493455903 -0.6484936666418574
Ni 7.309889178122722 2.7612132042829565 8.571817981330858 -1.2919268880416719 1.4040629813179948 0.008233443653385821
Ni 2.4722062597692616 4.543186540334116 8.291109934240062 -0.4489194970565237 1.3650788867453136 2.144101547348385
Ni 6.312961135261608 5.761427898119593 5.747176953393046 -1.7243537867598109 0.08851125476853143 0.3428617487637966
Ni 4.023904897993671 6.674897784400792 10.517556601873133 0.14103657836075711 -0.19592705975104965 -0.17990574462212888
Ni 0.06587226370309703 2.115524452960273 3.391151504085583 -0.5170676147876708 -0.5984710548668274 1.626841871154566
Ni 6.547336486835314 0.09361783120652546 12.14409170179713 0.09096897228040463 0.7091400766793207 -0.7079463134815356
Ni 2.5981348027535724 7.518084154515635 4.897432352377178 0.15802051451326335 1.0971483400727684 -1.748311840237305
Ni 8.347335808808444 1.8038747681916494 10.378143758123661 0.6151030069965535 -0.26125364887300173 0.9874416821735446
Ni 0.32803165573300547 5.546486079520591 7.532943159568964 -0.1763375676548963 0.2975164878597779 0.005135778564668575
Ni 6.390976776570964 0.9113566889726988 5.985680171290059 0.11194403187017495 -0.1619620156595146 -1.3785537813032966
Ni 3.8564067987187123 6.4242793398385745 13.173833419916205 -0.09142971396690705 0.24127592019949415 0.007573441471883732
Ni 6.653146490612593 3.5347166116406097 6.470528520897201 0.7456098894705804 -0.8051227001242328 -1.7538219714222567
Ni 8.969527907997543 7.896207594761222 8.390585037915352 -0.16799973721316228 -0.7889211506637058 0.7508991628939778
Ni 1.6734233073445641 8.499613632619875 7.329557302272879 -0.767681267448323 0.5720146604475116 -1.619282056529437
Ni 4.380004918687532 3.2129607390333796 5.257343072125132 0.9904146487589395 -1.1886508162591398 2.114703810912558
Ni 2.142962236841504 9.213746705293346 11.422112961851738 1.2570629862849512 1.5188411402028552 -0.02683794612845055
Ni 3.809760689391216 4.340115035213142 3.5277896034117706 -0.31151537324203127 -0.5004423475261639 -2.831716862582052
Ni 5.895144868129014 1.12439550395641 9.881153907639666 -0.5528036347366996 0.8147825918115 0.0018625071300355023
Ni 7.3895844922483365 3.505458400237847 13.080950328271204 -0.36605078528575025 0.2590640974208506 -0.29812018288204784
Ni 4.5005190973423375 8.389036736157347 6.211753810346758 -0.03385860042065782 -1.0676436457454324 0.5394552384542516
Ni 9.112347015614622 2.655299980388477 6.101168468601915 0.30009864676465736 -0.4361917650772101 -0.3966294294035556
P 5.4630654575287485 1.8940516160365992 7.647882513530254 0.21777012376807012 0.8787889194601317 0.7084785318359218
Ni 2.6787121796988984 4.70934277808547 12.00664285536857 0.4543113574960563 -0.9390213818886279 2.3483826354910846
P 4.556201658748366 3.7719821264959226 13.134952278496273 0.35664903235587614 -0.6624370161958268 0.338519669745017
Ni 5.455971420382985 5.158828853904507 11.711542170481254 0.3284815687827246 -1.9206739681842209 1.5193779865429315
P 6.636415447979133 3.4338048716068337 10.555489056579525 0.171822196283046 -1.7017936420711077 1.9694588508974082
P 0.6872648761662444 6.050153333222742 5.073034169217059 0.44154454474869115 0.3440048612293043 -0.4045029186143614
P 0.46692089197886083 3.8957148960779726 13.378811682111277 -0.1649609503868385 -0.2192289677017837 0.2722559135207763
Ni 4.709080035968961 8.590569323167337 -0.03581925739789199 -0.6488734185787793 1.8085669283736208 -0.8369069345143652
