# total energy = -340889.18115559395 ev
CRYSTAL
PRIMVEC
9.09045854532561 0.00000000000000 0.00000000000000
0.00000000000000 9.09045854532561 0.00000000000000
0.00000000000000 0.00000000000000 13.30480495871418
PRIMCOORD
 96 1
Ni 6.287024733625326 1.9840107491150245 11.405264673330134 0.2903778199324677 1.1350142618806067 -0.3702375696735882
Ni 5.0030883747144985 0.4172884071045218 5.953553990098413 -0.8728609840114709 -1.030883555407263 0.6630119148626904
Ni 3.046876247700503 1.5681131821614043 4.879550861755518 -0.21891143646136493 1.2125160529125119 -0.44326512698422366
Ni 3.519298285623448 4.2739608791359105 4.900825261789213 0.2852266147488314 -0.19746072278675672 0.09314721087864603
Ni 4.814543174911543 4.263043238474258 2.7943287657639613 -0.039324508631235496 0.6604513532243658 0.0648049122905271
Ni 7.695327655310574 6.139804758175306 2.66316981239638 0.4520544431410795 -0.7913752686311532 -1.1174430857660627
Ni 4.780726669281775 4.518603298358569 11.369208278725319 0.9493908980484103 1.2902921806517262 0.7448370158602978
Ni 5.537061907158721 7.90987156643104 12.611438523071952 0.3416510162851471 -0.5196816553717502 0.18241668396944066
Ni 1.741059155173855 6.737811480312023 0.26004620115535687 -0.2718787326870156 -0.130661148663704 -0.18907506982622277
Ni 2.5998438603753904 1.4640183418478396 0.30745021510899817 0.034740231694662754 0.22533353793762484 0.917873029945787
Ni 0.41484761899656686 0.28348958458777784 5.009166255269354 1.2745693705998309 -1.2179480225613606 -0.8553481719386882
Ni 8.657852672944072 2.572399766155964 1.5017001104329228 0.10792231230529155 -0.5486708435152485 0.5894994474958365
Ni 7.071022236725762 0.5541598045951531 4.75612152525272 0.12390326111458017 0.7767832297495912 -0.18305765998754925
Ni 0.9568980238203725 7.44602183087607 3.2576012572040147 0.9705878438409996 2.3821859571937747 -2.45294220197173
Ni 7.87064623799221 3.8625358177655826 3.958139260791845 0.49606350173217795 -0.7031617476086987 -0.8464513836696906
Ni 7.773260156053583 3.849754633110891 12.933348021475227 -0.779998137142463 -0.46406817977250403 -0.3160040051410042
Ni 7.802104180882414 8.897522611365794 7.111963843729887 0.43131926747625715 0.2777202790694572 0.7612722785981858
Ni 6.878068164549033 1.029103535706727 0.3453356099645403 0.39602522016065345 -0.08097689406469925 0.21935135221226093
Ni 1.7271962059573511 6.412045809411936 8.977683183487796 0.609219551632583 0.46853675706681885 -0.09543369291997758
Ni 0.5979049090014877 4.860822699148409 1.3772335526149744 -0.7841221866131657 0.2890591011210441 -0.13404909129933043
Ni 6.3074509938807255 2.080751408499965 7.321780716428987 1.4927200176357711 0.16641465211422954 -1.126725539509253
Ni 3.3403526099992646 4.590999709873478 0.6772173413451947 0.3803587172679901 -0.9384634525026289 -1.2410804948137657
Ni 6.4761517227724505 5.5441161029567585 4.719254261749471 -1.575023600931694 0.7731093804424297 0.6271108300907071
Ni 5.14369958683311 2.8980108992615072 9.23522405427983 0.727153996758238 -0.7171958571042616 1.3361202947294344
P -0.04588681642955309 5.52026273984587 12.522894730118828 1.1168373338612638 0.7615178189500884 -0.2630225678479664
P 3.674081522547653 6.165421670235705 12.468704688892977 0.912604582457996 0.16633649057812644 1.0469431799732873
P 2.299376935488109 8.442481530099869 1.4469510060091602 -0.27515586077639065 0.9668348045564703 -0.16025454605010467
P 6.590691499905532 7.765560537701859 5.870119943869616 -1.5740350117661794 -1.0029336071615564 -0.5110944279233713
P 4.656314654214843 1.1613878878369337 12.727123697976364 0.46630452530219046 -0.6406407462563418 0.5042650637063638
P 4.0878701031286635 6.3402857299922095 8.222675152552235 -1.3065202124748143 -0.5152539586176996 -0.19107873051981286
P 5.119800771429707 0.7437658609053653 3.7661778666836025 -0.15899804793518424 0.5479290802532176 0.10008327587684698
P 0.5102901609073327 5.50368174353708 3.675492361707261 -1.1022974883738759 -1.0714085121045032 0.5666755076227854
Ni 1.5352057223819002 1.0758375828687248 2.7364125455978843 -0.5117433743612798 -0.23670809832315362 -0.671922587088759
Ni 2.2637786999918275 6.55432966589503 5.005320991322743 -0.2991033727309236 1.1376969509190924 -0.152123432302538
Ni 5.774686492417352 5.522326273925965 9.44283285460864 0.45928901321630583 0.7760833754690892 -0.643548149711124
Ni 8.491360925468486 2.267478516602396 9.95410933026351 0.3613886039233905 0.29029914417573227 0.6411922478844376
Ni 2.517893376974221 5.138963457953242 6.93747158372614 0.1987125929159868 0.901079612537532 0.8542230571953094
Ni 0.6253680931837696 -0.16537089394221266 9.10023347265339 -0.4811673013466358 0.1575050083294255 -0.2836348447816793
Ni 1.3143166712266026 1.236802331574715 11.469114235760875 -0.47049825166856396 0.9181918467377863 0.2180984536417663
Ni 4.016864531764656 6.59431859284808 1.565736027262968 0.768289076235651 2.0140561778918085 0.1954992281850117
Ni 5.557733609793692 8.046646605061543 8.020482447399287 -0.582690652104119 -0.8030568187341396 -0.11446859806424159
Ni 5.365679493008722 2.776444197705896 5.060641885586321 0.5847652752449607 -0.008469985144224123 -0.36145570971590013
Ni 0.5355270918023216 7.4970556649098095 6.63005045808435 1.9558086071038248 -0.0018565935927645446 0.6021883558174145
Ni 5.188306466705493 4.459015342873859 7.315846465118472 -0.5578324554098587 0.8448732405492934 -0.2591119199396505
Ni 7.912453256645785 7.246049924735313 9.438268535394474 0.03208582479095119 1.0270412988430377 0.9746782118602891
Ni 4.53661149665227 0.36184206451360773 10.603104434141452 0.10546999411005706 -0.20841105115067332 -1.2043713123181905
Ni 8.349640677412555 7.200070385629033 4.739876875908528 -0.6945498375699716 -0.16572405380510813 0.25357942015719553
Ni 7.053241299894626 6.181266339405782 7.3492684448492245 -1.0390316384356946 -0.03545011327749378 -1.5437073073169156
Ni 2.461641619759974 5.311682169503127 2.874662965643364 0.7761175711411342 -0.06818231340319225 -0.4612309674340251
Ni 2.061352370055362 5.492364122701312 11.107888504333745 -0.18139647023504243 -0.7208167416863005 1.124573783273573
Ni 1.3762136031709797 3.3293804265865963 3.8166426380150775 -0.8752215138238475 -0.17680627976119873 -0.12915011133581628
Ni 3.853199916883386 2.0604069623710894 2.6057326593933907 -1.7899210311376592 0.5621398245359609 -0.6930395715730322
Ni 1.2530651618359119 3.441656679552524 8.20168073864042 -1.294032364420449 -0.22161083767039896 0.26308633120636626
Ni 3.6127572894889415 2.848813337845298 7.249974275670897 -0.48584208111448585 -1.6829675105035404 -0.9286423526471491
Ni 4.369528869374013 6.482687762435838 5.964370726670688 1.7252624146170092 1.1163552520185225 1.3364162287032986
Ni 0.5692263305174047 7.359207952175995 11.28365888280296 -0.4008933468862322 0.6634358897739865 -0.017933444549969115
P -0.12006586685682757 6.136704911825911 8.07901045542259 1.3979324429402247 -2.175348935398441 -0.20056764384685458
P 8.698677922079364 1.5335967112269353 7.942382682219829 -0.14689637957564378 0.8459973268514075 0.07783269200876272
P 1.8503537377509216 3.4174487885600318 10.510077227054833 -0.7841615244915334 -0.5415314042569899 -1.1737291619523011
P 4.320567659878872 6.243208723642672 3.8518736189878533 -0.4461056817568124 -0.7051525527864824 -1.0382824189744955
P 6.914320913057503 3.8824711932618405 10.413232027397113 -0.6377544258474823 0.4097441124086427 0.016095620010281957
P 6.141395588413267 7.872673410238296 10.437858988526575 -0.8266544035484215 -1.0010284197190438 0.15169945739124194
P 2.68380333510564 8.806399855335476 5.7324149513342935 -0.8232669751334273 -2.528141055902072 0.2980520486482738
P 6.784363718303969 4.204518866634355 1.9518150722362757 0.6210296568936337 -0.15753766133957384 -1.1931944697657644
Ni 5.354889118766106 3.0332405599465644 0.24519057387036627 -0.4646608190511804 0.5443385346884819 0.32454366718089916
Ni 1.6117110211399965 1.1677330278717661 6.917368034747583 -0.6153814574689208 0.8652368918073098 0.8942322505983954
Ni 6.821843678710294 0.5487509817860909 9.289015933423265 -0.07166718662799916 0.7658871516623776 0.150511864841044
Ni 2.5667364105088284 1.6763078192596534 9.340186124334545 0.5453736608212156 -0.6315346701900156 -0.4221082904009504
Ni 6.103279295911758 2.1517569798639733 2.433183030371655 2.399995217461054 0.18900385026865515 0.4748590997404209
Ni 3.9195875353280605 6.860005423504316 10.421653428153945 0.4412486107748272 1.624191320905596 -0.28153836726396675
Ni 8.064073014011075 7.2999381627388775 0.19296134454353134 0.07899380219639944 -0.8233441082282659 -0.30010378897097995
Ni 7.778678069321148 3.989874960470361 8.194708356968906 0.35852696610487933 -0.6007163992575782 -0.13897506784603808
Ni 3.196477923278211 8.537404097784284 12.388862282818566 -0.7022132676525004 -1.083831054138572 1.3230907152389857
Ni -0.17192965975185695 4.837387497128641 10.094009668527216 0.8881657326893414 0.6976611295054437 0.7867570531328515
Ni 8.688269347093858 2.2887229181230317 5.718045663579193 -0.3363236905349627 1.6997280177913305 1.3971796239346
Ni 3.718279331787418 2.6128704874096527 11.354679907946423 -0.8991178608254708 -0.9182957193055025 0.6374744327132182
Ni 1.3588144655969545 3.524143500005348 12.592864898259387 -0.8472954768375407 0.0476350853794599 0.9424021254354028
Ni 2.920346155802458 8.490797317041324 8.127666225512042 1.0750149985088386 -0.3538393308212229 -0.16190905093439212
Ni 6.0880527779198585 7.715181216680309 3.622884969306716 -1.773932883239519 0.4207708025364495 0.1042597758520398
Ni 3.4111491008177124 8.470434689995441 3.3999496559424776 -0.15588649888939604 -0.6449648275529923 0.5077959596777577
Ni 3.3510066273643417 4.319640433111604 9.128799329452043 -0.21408676137921195 1.3482265910746651 0.9634496901343215
Ni 7.055886623318891 5.97653103300965 11.474835770342429 0.3122463378707848 -0.130221232912808 0.41764485531295814
Ni 0.32771739234060177 9.094367399781646 13.376251522548445 1.0563852992227936 0.8994420769341089 0.7448498713761043
Ni 4.966890168957044 0.08222228811039754 1.4184251472279212 -1.267747462581991 -0.04706969979429313 0.5545365582674062
Ni 5.913534155586455 5.4816373816682145 0.29821430927033066 -0.16034993397738836 0.5554045626946564 0.6929148730697099
Ni 7.595923491584365 9.044560777645762 11.616411480108166 1.108160632022872 -1.5277520695392397 -0.7313950314227792
Ni 9.413624302393854 4.949054689374893 5.807640313535221 -1.1416927023420467 0.12665948370347863 0.45784739567377275
Ni 8.02163875372082 -0.21990546354531337 2.470210285944549 0.6258733581391801 0.19020095590054986 -0.27926782606223516
P 8.569666135010102 1.6694808849241818 3.5411535659554607 0.284030280447885 0.18759899950132852 -0.2659495116867742
P 2.0220724988655174 3.2345851253212174 1.6444203089241436 -0.17986049320649025 -1.6440559210400074 0.22307379536917066
P 4.68909484757531 0.9603614885098729 8.198579983245175 -0.8644802161469435 0.5108851401260427 0.5469057811950259
P 8.439090789078389 1.827163978110724 12.262785804799803 0.6120179403133266 0.16340414742267986 1.2246560307091554
P 6.4434715244555125 7.595823496540836 1.4943686556505555 -0.6588379859906589 -0.3904636669124759 -1.1396677014922179
P 1.7470224959515772 3.3238079755244865 6.005309606537262 0.8892551090987783 -1.283719669640531 0.0004424868540573025
P 6.921556918025593 4.107978197336472 6.246725822037337 1.0058883189145063 -1.2485899158169336 -1.7522937077031886
P 2.319430486944901 8.790100663240269 10.471692766027497 0.11506637954924055 -1.2628261140209736 -1.754170098790295
