# total energy = -340872.82090819854 ev
CRYSTAL
PRIMVEC
9.18363880136846 0.00000000000000 0.00000000000000

0.00000000000000 9.18363880136846 0.00000000000000

0.00000000000000 0.00000000000000 13.44118368223907

PRIMCOORD
 96 1
Ni 8.486040294243393 1.9921240842297467 9.158634378347944 -0.0074199466131549645 -0.5093123963222842 0.8422599712961625
Ni 2.4313224200487933 0.23911531845002715 7.094243323049411 -0.5996576189757608 1.710893547489847 1.2731879168712719
Ni 0.2715950933390206 1.3949579796246634 6.412250703128591 0.24501738951979737 0.10404688851028532 -0.2503930520094139
Ni 8.723005722880455 5.975481439738118 1.5284908409978168 0.24096327405508178 1.0376774384006453 -0.20978582001101292
Ni 2.31306470487771 5.391907120366645 4.330050735718559 0.24332946029441319 -0.6021256209002791 -1.2511826162447743
Ni 5.72042424291848 6.115192134845494 7.882931457054073 1.2582233251416395 1.6398151434857824 0.3622563512403245
Ni 0.01287086959790887 1.4330425291947868 13.27854509398848 1.5495213428955315 -0.9461752193245897 0.4758988538588449
Ni 0.9107432837663519 6.333468858786342 10.298070469036197 -0.3530849691537016 1.265100511877447 -0.7016694793338883
Ni 3.691850296802112 8.333940870568354 3.152373973602768 -1.3923837452078536 -1.3734079754362991 0.22537210448504413
Ni 5.021861583742927 2.0589075046478653 6.566098691606657 -0.14956338488484563 -0.6458680560935522 -0.006367594089240647
Ni 4.5914244392163575 5.569720732321488 0.31346973058881367 -1.094819949049908 -1.1911769251151034 1.5037881025244746
Ni 7.544616310403766 6.805177275501998 11.252810728949296 0.13009319197537592 -0.1611588030319289 0.6370985374310382
Ni 3.486586788858579 7.3276528467929225 12.8279966991355 -0.8136335658087214 0.1634486275073701 -0.5684817075935886
Ni 0.7668301556029621 8.191447532943556 2.0985716400694625 -0.1273778499267419 -0.3370459134129679 0.7513293084528608
Ni 1.4167415705531254 2.752465080747527 8.21146051833618 1.8420177518328988 -1.1144220395515518 -0.929010277509529
Ni 6.947413471243998 3.2278102183770407 5.439902652790899 0.24034518085510867 -0.13463658837168424 -0.2082254175024285
Ni 5.4184845706815565 6.169990906797491 10.213700380562429 -0.7711576560326977 0.6813551932565685 0.769306718866888
Ni 9.022474996314783 4.377849738275245 4.8126022746134876 -0.13410334157603354 0.10219800822700464 0.6966434868742067
Ni 6.755806034004775 6.4172971125785025 0.07507991959382387 -0.8294805601433068 -1.520652482379981 0.0985213307063658
Ni 2.382483829594509 6.272177254293696 1.5504406557862305 -0.29633378040558644 -0.42812801423246916 -0.07531969577892189
Ni 5.219374100647834 4.3289560459889325 4.202479892570851 -0.46419236405519415 -0.4482615517575506 0.8007348554691822
Ni 7.647950612733891 0.3143486048096627 11.505236813289589 -1.4698420845963331 -0.048643472039316224 -0.31141510021874114
Ni 3.0130416444086516 2.8369086383306676 3.4998957180211114 -0.81647412058131 0.2794411184153058 -0.866204912147534
Ni 3.5320274330044605 4.917847692151122 6.276064688543282 -0.18608359129806662 -0.1693703923084438 0.6839010996068738
P 4.066662141896264 5.7235834146214275 2.9368183618002437 -0.38447608187047333 -0.20985575401699988 -1.3992593892817642
P 3.164883926200892 7.152704530103544 10.507564879315625 0.2319757258444908 -0.9096277592178593 0.4824541384788594
P 0.40737519109505527 6.224853964220186 3.528525711579072 0.2696958661030839 1.5554284524085857 0.97367599584802
P 7.706588145650516 5.757480224957412 9.231149307660859 -0.01602054379797241 0.44973967896497374 -1.5014306580358916
P 2.216544662441733 4.493196239987507 0.15860695003756328 0.7189421503714069 -0.08262214297760609 1.191033971779336
P 7.878156883308834 4.828757213400275 12.431966056891174 -0.740372552331041 -0.8445564806398229 0.5441732127552112
P 0.36997114915047946 1.5545237015395166 11.144165528375522 0.15665551584493667 -0.046184726086178525 -0.42433409440767567
P 5.896704187215206 4.957309787521949 6.213940128023143 -0.7490978480191809 -0.5975410868533902 -1.35336262674965
Ni 6.9564960898899715 6.070320876297237 4.452190374956025 -0.6303763882158563 -0.8492194333331309 -0.7225797471239943
Ni 4.540289939094234 6.619465734289787 4.774806091297645 -0.26678126355945025 0.4560612503076275 0.9979400106017071
Ni 0.13614193311968623 0.8932227379091343 4.071266818326083 -0.4949712971092637 1.681209390161853 -0.7331312973875955
Ni 1.1347303942330502 5.431543704872229 7.914962152012037 -0.36460839641226883 -0.9175153894960522 0.06556313061279032
Ni 7.178730962098174 0.8564092039311267 5.556638639034138 -0.5673303675979648 -0.26335475437640454 -0.32678129826216623
Ni 5.4861404367734545 2.092565540378394 11.472426427408426 -1.2791410491309132 -1.316862989161719 3.5897071279948567
Ni 5.170829386631033 8.001722741631962 1.2632544990748447 0.2696801823738001 -0.43272746067769347 -0.2569208258256027
Ni 4.235145176961006 8.863350089056155 5.495441626019806 0.6698057978560723 0.8070579694737325 0.6929295283577293
Ni 8.131937554353152 7.964437168626246 4.158607813910038 1.7348516009673411 0.46264378862115163 -1.0393887646647972
Ni 2.30906982205567 7.458391126918382 8.585582672166113 -1.3583086579010157 1.550836462162529 0.04776518319942096
Ni 5.833869731425771 8.608008199437704 3.801153045904753 1.4595255331616734 0.4208353372257978 -0.5382612181461504
Ni 2.552142370409185 5.261747409477482 11.535089149154706 1.4123257355474192 -0.8293358070353265 0.1830409478170009
Ni 5.3670561941219495 8.205030134538495 12.030558394204768 2.5713055071046877 0.12516258744297798 0.4578509952181986
Ni 6.511631449010696 3.1482615402057337 0.5107352076134604 -1.040564273030137 -0.6344037642076945 -0.742837983152398
Ni 6.652802342666819 4.038789798528691 10.047486622613379 1.014348790977034 0.21964471508296365 -1.8913659632487234
Ni 7.983502402507987 0.44194057032631423 2.0905745275144434 0.04578671931681147 0.45834644679737835 1.3360562742607185
Ni 1.5799899315751935 0.6225708042616622 9.670891314889248 0.3463353091346938 -0.7583239946031393 -0.6456369139193525
Ni 5.623582773129005 4.3417855892128205 12.048528938356883 -0.19688633834052544 1.4773504771582362 1.4359176639347464
Ni 0.7419792293582661 4.279750109987795 2.6877929788599535 2.3130824175278937 0.2400533606463027 -0.3252810595675559
Ni 6.988831681651824 0.3550403893985849 8.119711376189974 -0.3201427098997261 -1.032462469858609 -1.010076388853925
Ni 1.6236397661801603 8.451978178411323 4.62837756450217 0.6080746393948624 -0.8937599389476671 0.9177406181329807
Ni 7.742569641964898 2.798374090465648 11.680294415279155 0.6469288932578987 -0.25653721723393885 0.7418527364209934
Ni 8.8144380294925 3.592510877294027 0.8361115257396904 -1.1554748437278035 0.5593540342607076 -1.4790245224265495
Ni 8.602020467023978 8.226850460021643 6.4339580698560805 0.6369231881954386 -0.20747876914439103 0.17016074942022308
P 8.438514964119113 2.841886170490544 2.9887545935783772 0.5441783549615339 -1.25363750554317 0.8842602269873481
P 6.931103328963665 2.516987401575225 7.661931784247168 -0.29784198951999674 -0.25932455017108885 -0.5948689393378659
P 6.227939666813762 8.347587757633992 10.02165212866698 -0.6949288181759451 0.9095645100800916 -0.7298919645146914
P 6.492786622457069 7.9763116134283125 6.038277324245133 -0.9141423592587611 -0.1832566633722328 -0.23038421298765482
P 1.6934354200824844 4.28391029830592 9.560727140479234 3.7010333237753748 0.7098900674714678 1.4327845176224032
P 3.6739422013929626 1.7787055051460476 8.308896169547692 -0.9101036704130133 -0.653779340520829 0.41426951108282206
P 6.950765499359043 7.051877361130699 2.353860264583619 -0.2959864243684967 0.44777715592196426 -0.5484831529844748
P 4.590827502702719 3.844271147830648 10.22371330180581 -1.8645814960660274 0.1680807269627428 0.7241303794405658
Ni 1.0049380288907412 3.3545995338738153 12.214635247733476 -0.05637272236277389 0.7736498263269321 -0.3781660804920455
Ni 4.605704997350319 1.0683510539164713 2.052710385272433 -0.67019711975722 0.5635444181929714 -0.24871026499035231
Ni 1.617945910203918 2.564466813506148 1.2716814059196833 2.0437879006282866 -0.8551250001842886 0.18888506530260374
Ni 2.7817057862771324 1.7124731030482105 5.351607477148991 -0.2854011926534827 -0.1222919507634023 0.8904509291790923
Ni 3.7127522584181234 9.172884630474291 10.79388869235577 -0.20990743319054173 1.2362691894680515 -0.7903943927751226
Ni 8.240267756120497 7.875273220766027 9.31339613887381 1.4752390872421883 0.19070977721616833 -0.6253740499052585
Ni 8.987990433103832 4.237165577468705 10.055617816293001 -1.9809419118363432 -0.28324892219717024 0.8137736909310115
Ni 2.7793823256932786 9.10054510866 1.1205095297504517 0.16037950166374315 0.24186804525753827 -0.7416845862742453
Ni 4.895770224785177 3.9207341234083786 8.110544268068223 0.9396340757719623 -1.843592038298554 -0.934466415528094
Ni 4.625045740392201 8.455321022887698 8.102049402297217 0.2683182690292669 0.3076042111130831 0.5348671048629369
Ni 7.87542934262344 5.906741904283001 6.571139590873365 0.23115760081856962 -0.13919309739411512 1.4976789043029433
Ni 7.078454811445611 4.452466802480033 2.4136200381458823 -0.6755902657483333 0.8760244693411171 0.564729182529692
Ni 4.564103114169066 3.628327068112325 2.1619341550825 0.8362752144676372 0.6453525499097144 -2.194275082878982
Ni 8.685756884429425 3.547290640476258 7.138666420030506 0.2602275216013325 1.142144959388117 -0.2379975065585385
Ni 3.6077189829337972 5.590889019458969 8.686055352686244 -1.9169574385645827 0.5226973022696224 1.4068896521335126
Ni 0.35154142306479735 6.188661244216362 12.612251904376347 0.44127535024770453 -0.5113744210576354 0.42254306394552393
Ni 5.666396896614878 1.9363610302172583 9.393048592162103 -0.38272258951447635 -1.3912280343368555 -2.6762921338204233
Ni 2.3011627091596303 1.0806112115427349 12.499171924688174 -0.02082876381989316 -0.25531722878390867 -0.06305913324401398
Ni 0.9479994691283189 6.415680792172343 5.9615948597031565 0.34603346162355886 1.0056710606973776 -1.1439596439993525
Ni 6.4708469096711925 2.0732339809751847 2.7088418786947073 0.30439753125032737 1.0732244822673194 0.7406679720842727
Ni 8.114617211818972 8.155548689377214 0.4020477623018002 1.069444960620229 0.015714325411463257 -1.36410418153687
Ni 0.5825503436596163 8.549416584714438 11.580278161600994 0.7586939763480482 -1.1463109178403483 0.2249357882785739
Ni 2.707006069324303 2.4617294476896614 10.540321081728628 1.3372749771591679 1.4036271793321569 -0.5431116042599162
Ni 3.9035974536476234 2.9060889884420114 13.368654956631849 -0.2517259118882245 0.18206187173318322 -0.17891561279471768
P 5.180756900034772 1.8360481450100097 4.386181135277901 -0.8993299768362769 -0.30232985008802127 0.3742513188186716
P 1.5198095473617814 7.778679709220679 0.003959066631222629 -1.630437044704992 1.068055022251238 0.586761479739383
P 7.268914293850914 1.0318736411138356 0.1657095761859919 -2.4496930989068133 0.3044749214554821 -0.1063184581532814
P 4.399201698186154 0.7318147780768067 13.164349302201739 -0.15839281025101754 -0.36437931112059824 -0.021690083378923936
P 1.6232540533559632 3.5668150562915666 5.947723891853938 -0.062147420063022 0.2501282283838015 0.31812773635222635
P 2.9228307617398976 7.506981759128539 6.539955627400899 0.30022900169493455 -2.5344883382763386 -1.5812724100548832
P 0.36843748149236255 -0.019345334861216576 8.057881610471185 -0.12841708982453368 0.5368383696566948 0.39779876712130846
P 2.162232623339319 0.7425265742230792 3.0363368622624196 -0.046525654365365036 0.788959460100809 0.3351828920623002
