# total energy = -340861.3696321403 ev
CRYSTAL
PRIMVEC
9.34386809146249 0.00000000000000 0.00000000000000

0.00000000000000 9.34386809146249 0.00000000000000

0.00000000000000 0.00000000000000 13.67569544451584

PRIMCOORD
 96 1
Ni 5.610843375192817 4.15947900947791 7.962318452876838 0.0799044869361269 1.7752390036454524 0.9455728098539005
Ni 5.461537704613408 6.867771186737442 12.107366792247555 -1.0374694361548973 -1.3483075808242455 0.7272457851410958
Ni 8.240899343693265 1.8081225989205154 9.904513413987901 0.10836917003472303 0.21327506411119396 -0.9495348798254419
Ni 4.025254342235078 0.7271986926725253 9.29047457200184 0.972926519276505 0.2538115907726597 -2.462037736515095
Ni 7.9159476379707465 8.65999986578465 9.893094272613906 -1.2426686652364922 0.9313813488448669 1.0812941466493313
Ni 5.384955360532499 6.9613406832755365 2.6494743954732325 0.6159332162073328 0.24362693693017398 0.5313156400662528
Ni 0.894483834516025 5.523132484040122 11.918860791248107 -0.7092781449190817 -0.5249511313008056 0.7549869598101062
Ni 7.554564189987191 0.48013747258427447 4.810275694726526 1.217012912341601 -1.4390832061469216 -0.26877721094355644
Ni 6.240676157662037 6.20098340538584 4.621318384891169 -0.8591117527461786 -0.8371375624679325 0.35947441761981314
Ni 7.147713479156185 4.643921202159559 6.206044044423691 0.6206522189495569 1.57131272773901 -0.9033157009569023
Ni 2.320904743968854 2.4168382391712324 8.662718931441988 -1.4548229854796817 -0.8336588598907128 0.014854034293697
Ni 9.23439547799618 8.856809762487453 8.225247430007329 0.8941643734749375 0.3820746715178323 -2.45702459957122
Ni 6.439130575174777 0.3959492197574093 7.958926628706344 1.840922718996507 1.5105382767641145 0.5654516625180133
Ni 3.603808509215886 3.151677412902196 6.995624270228594 -0.476006840191619 0.4131299981617402 -2.6796661924989786
Ni 1.1265247864112475 2.466753183300101 10.693204103536521 0.6979174684906237 0.1412846898158212 0.917675055002368
Ni 7.260811660312275 6.5634881175579896 10.710640696055968 0.3901674758282958 -1.957283391877139 -2.205013552342409
Ni 5.310064256602718 3.578196966374772 0.6376947132049051 0.7980169423173868 2.222947254002694 -2.529382127398024
Ni 2.450037003021826 4.893738863378101 0.16413532386037688 0.9696306221340526 1.9897487114946957 -1.2035596150501724
Ni 1.437086935046821 3.3848723325248455 5.610809737267159 0.3522532172810256 -0.10621304292366869 -0.48687052237900025
Ni 4.772380702699375 1.6766356850714983 1.0922710998365524 -1.3663675236497501 -2.7577256558065666 0.3751290934379346
Ni 7.091547487175909 4.787022544228753 13.387384236595784 0.8555919125183781 2.0833147550783155 0.902970916022974
Ni 0.32346789944627996 0.8706831333394888 1.6764347919043754 -0.46965647249355885 2.6168207179276672 1.0419482978618573
Ni 6.0618718950543915 1.879696629625708 5.909568711544142 0.4680780722628455 1.6365380153964075 1.5141010544147087
Ni 2.083953589314418 5.284574184048702 6.51021872473158 0.8435082418809667 0.2331589475193146 -1.4874695678701093
P 0.796123736732167 8.312594844685554 11.84613372720231 1.3785244707272581 -0.551636868122108 0.9422450310322482
P 0.6218951664008046 1.85123520697192 3.6477452464459064 0.3950224899277519 0.7227903204729036 0.9725452246776862
P 5.780359832771617 1.3828738115283445 3.9402008472093493 -0.6008004743309524 -0.15874222317063627 -2.1702254981289464
P 1.9860111624408106 4.574963454561083 2.394081248076911 -0.5663433210943473 1.2767306399172078 0.2589077743486444
P 9.10248809007644 6.167448262278669 0.14493928095166303 0.03446563787703741 -0.6899781590388891 0.267598617254423
P 6.514348714492897 7.987232008760553 0.9208101832773671 -0.3948178301161136 0.40949831494642375 0.3893642632007101
P 6.1514328721182645 8.628062524146223 11.09357390735746 -0.5040750591827448 0.5861927517201067 -0.25930912355212116
P 5.196293316933472 2.1562657856104344 7.857125184250329 0.8072520877624098 -1.8177956460607403 0.8016486255327032
Ni 4.15959113589677 4.969573697999948 3.3374307103186474 -1.2038043840711268 -0.04498942022649671 0.5768236518003808
Ni 9.336038076692144 4.038896389862961 9.286276372002382 -0.5234884307123501 0.5999049590998765 0.4261071271476984
Ni 1.191408607457835 1.0991098770001464 5.894156000885107 0.2057774701825682 -1.2152036270470037 0.524555952744916
Ni 0.5294805719769614 7.271435638499196 6.296549686566455 0.2246750784180195 0.14674931247481823 0.09795028869424421
Ni 5.929310436357972 2.187352835239178 9.897005615858447 0.39357932972332216 1.5079041815753773 -0.47290403289657906
Ni 8.109029331246479 7.23385460044485 4.831869374225182 -0.7199893606889988 -0.4613158138383474 -0.28227678809188805
Ni 5.481823242558704 8.078194566060168 9.103596272849499 -0.22549988831216003 -1.3023336851972926 0.05293824275992818
Ni 8.243216623016357 8.602133289785009 2.591886266747091 -0.26607703840357405 -2.2155535326417843 -0.4729726813509854
Ni 2.286313743750757 6.910126941461546 3.988188151320662 0.13209582422770152 -0.9183348000735538 0.4081772821421551
Ni 7.959536783302303 6.602816458972893 8.048584781999896 -0.2633601536930432 -0.04597569539916598 -0.01651933781126187
Ni 8.666185506558389 2.5530344626123402 5.323100821568761 -1.3143785321769685 0.11053301045526125 0.016010259385327266
Ni 0.7420918842575132 8.346372928366922 0.5252094898052455 0.41287545894877287 -1.9388015310228675 -1.1524774516623764
Ni 7.6595238619077435 5.635314966108861 2.678548775883452 -1.2455894384277126 0.4538963814458248 -0.20999099404328353
Ni 2.9846651120112537 2.001148228986817 3.1550243865051457 -0.6447311142756315 -1.5522911923311848 -0.8033594375762229
Ni 5.328107266170829 4.086708963638218 11.677772171737763 3.443362764267941 -0.20957730354463264 1.5012583941240856
Ni 5.364211973043527 1.4375447845904967 11.956031633486793 -0.7419465816863803 -0.23334123873344975 0.5948694535584981
Ni 1.4124845299754407 0.23531224016544292 9.784754923551569 0.27063586141885004 -0.03537246596202295 1.0853096955666277
Ni 6.442774683787705 3.7326604522217095 4.10864369432757 0.5138483365194247 -1.1759467384289102 0.7781230316069373
Ni 2.9190431253738427 6.719596124214864 1.4670330983636712 -0.0027119996145243616 1.007495001279994 1.502222814919884
Ni 2.922107914155997 7.982466635959032 8.613062812463319 -0.092563313350718 -0.38152754076511064 0.36728774301664485
Ni 3.9676307068096315 8.375768737844538 11.081101712033009 -0.7296821624967305 0.49137098135251506 -0.8555548886328556
Ni 1.2747745998797317 6.1157392954480505 8.302624002888491 -0.9505342676242339 0.5822854462459004 1.37326579343148
Ni 4.632203991388761 9.12172711477905 2.4040782527050424 -0.27870372602864907 0.36905409088844826 1.0711740274961938
Ni 2.461324395853663 6.273921640853823 10.296212108083719 1.5330457138380111 -0.3505809717849253 0.1759796700948453
P 3.5612098139175865 5.154283285334183 11.830529467244391 -0.47295905450423065 2.4914066765955156 1.5681849807433057
P 5.952922391396095 4.433702854534829 2.258828755327869 0.5563052201320549 1.8136055192387928 0.35885812419205293
P 7.755896518917321 8.397409136684384 6.638606277485961 -0.007519962526128986 0.3454372228004567 0.21449762366438543
P 3.3038516510307554 1.1483707503523364 11.112227071521527 -1.422466680636163 1.105513167097696 2.3093723156661583
P 4.4751055346986295 7.5059760751481575 4.542368304598682 -1.4557346986606736 0.181517569193939 -0.017494300130021484
P 3.4359085408423073 4.878452294940281 8.363261970207605 -0.9848664652472006 0.24111496914159766 0.6257602296000837
P 2.8124202449068774 0.22220933373490873 1.0501181070532184 0.7380593308168321 0.7541739769905076 -1.5199780820207758
P 3.083999775252364 0.3574599577103036 7.254286837121488 -0.8806722525257735 0.10578186892352104 -0.04726587496549924
Ni 0.3800805283283455 6.387729955996022 2.203865319189859 1.722646317150401 0.23285298624312153 0.2499626493402147
Ni 7.61153375463596 3.009174078400251 1.621321853874553 0.3743999285813939 1.4594535422731574 -0.2333481807119852
Ni 2.847104683807357 7.751504900845331 6.23825048946738 0.9785613489647792 0.13884779823955443 -0.6820067107976383
Ni 5.0826625352878 5.699086866835094 9.89249252749936 -0.5106892220651528 0.3730202746250479 -0.7332472541401694
Ni 7.752205690963201 3.0377569713411368 7.642484383788424 -0.15181824235729335 -1.6096262786072277 0.8674313283554672
Ni 4.489280182816094 8.774910757378965 13.465596151297447 0.7240154511292562 -0.05943696311039442 1.0517902236529435
Ni 3.586083191167877 3.6185531332958853 10.422589794780048 -1.7162165023646572 -1.564974187115492 -2.2525650768691268
Ni 0.3171635915459153 7.161794688591267 10.196339238032085 -0.4269404216822712 -0.2553547668900635 -0.7274085359712053
Ni 5.199750548181634 6.133408550286631 0.6594014535092436 -0.29941524754438753 -0.7982881937009026 -1.350297614671081
Ni 0.18139251410964846 3.9971666743108214 0.5124205373475175 -0.7687405619507728 0.49832607251410954 -0.4171589168154751
Ni 2.041392269489071 8.958433673446942 2.8253848620874846 -0.3182012699026391 -0.30670046835189113 1.4006632116078264
Ni 4.453427760385829 5.301103486962212 5.904577217131256 -0.061439595362719986 0.14732678224484305 0.14048019163665484
Ni 1.4629601061986068 1.120002766380931 13.184806370029493 1.2589879712218057 0.3181601322520585 -0.42738676519107044
Ni 9.191217462867106 4.4079978730113325 3.8608816841214493 1.126397723856189 -0.4504068802353275 -0.275166659409668
Ni 3.7317447531343584 2.9262192161808382 12.960853470481322 -1.1910673961204326 -1.0483878828396138 -2.5024192256559354
Ni 2.789527767723101 7.184313411045512 12.77937686155753 -0.788931435076351 -0.5999211570497925 -0.5392040416753939
Ni 5.464817402365043 8.370592234840533 6.4327057313741385 -0.7678237065634582 -0.1343293415439106 -1.4601279426323626
Ni 7.038904133521464 0.03635699131513121 12.860733922308196 -0.7872512191604507 2.4024807028870687 1.7526711456472654
Ni 7.721931557871187 3.138119460088457 12.073642903001971 0.22960491161946905 -1.4895416199077893 -0.8198985728818265
Ni 9.0499194873679 0.7662317678510988 11.750513251585916 -1.0229151924898061 -0.3011671972384877 -0.4799910216503475
Ni 6.954529003329832 0.9628389026131318 2.0668627199197873 -1.5447293208235267 -0.8651805846480777 -0.14695628627930174
Ni 7.819528261619978 7.404501666080481 12.66741396039239 1.6654863229996413 -1.666059679004608 1.2246593731432651
Ni 3.8706974177057583 0.9113158787604552 5.330361941576725 -0.051110959743202296 0.1586738318265461 -0.728579673461171
Ni 2.3121775710343044 2.8798362542460367 1.0427140258612086 -0.5960508754611089 -2.368301743012515 2.0337063480225686
P 0.16370363714776853 1.9037570903392687 8.132129242305144 1.2366862224008122 -1.1391691645892446 -0.16623724599610082
P 7.02494439437348 4.332265820940107 10.252614553270748 0.24606999915402783 -0.3534827188127525 -0.48455472976163005
P 3.4040833256227403 3.317923516597599 4.640477986713754 0.5341042585549834 1.1321886195063533 2.1279354791114837
P 1.5821037701048617 3.3574480792455055 12.578152921498964 -1.1011934566764194 -0.16816120249169103 0.06477740148670134
P 0.3370333273546088 8.29993390322269 4.09848317200527 2.4822139543526545 0.05439245870795149 0.27140307860217777
P 9.131603583506907 4.771997604101605 7.214531480928096 0.3195863231756238 0.5417777159398411 -0.8768366808297673
P 8.463675850230237 1.6163397033299043 13.653117308584582 -0.275728445450409 0.9146210986673926 0.7448809817243558
P 5.5202826042274475 6.546444901891374 7.5290171198369205 0.825625705173591 -1.611132173728793 0.29295457952070836
