# total energy = -340862.53057141055 ev
CRYSTAL
PRIMVEC
9.35210460777233 0.00000000000000 0.00000000000000

0.00000000000000 9.35210460777233 0.00000000000000

0.00000000000000 0.00000000000000 13.68775041869724

PRIMCOORD
 96 1
Ni 8.582379403626746 6.039158793945249 9.579891687635872 -0.5033867748664685 0.21716154364979376 -0.19330427741622191
Ni 4.41351055068989 1.30463726136106 2.6843868840384277 -0.1910152242717291 0.5119362070983763 0.12204101109486079
Ni 5.185788623897971 4.2952999516762285 9.55253023593221 -0.9092240960215374 0.46893527805681817 -1.7227607312410782
Ni 6.9141510292551525 4.769096262374814 11.070966890102701 -0.1439504095734424 -0.1057795549306759 -1.742363078853038
Ni 8.05398550771916 4.65789038952106 4.205903186172147 -0.900459719565346 0.4464316976376634 1.074935294310839
Ni 5.867267115949117 1.620401712713692 12.2510977158001 -1.9323899710695684 0.4819010941888669 -1.2998772532370002
Ni 3.972530774163689 5.10014205223918 5.169206407670825 2.103149273305739 0.727753835125766 0.11088088071298323
Ni 2.559371693897999 5.702801008808749 10.641623001811691 0.44636536317610226 1.0432137948378422 -0.13213850454017886
Ni 4.159872128549897 7.875257441441463 10.449474665788378 0.09862597460503014 -0.5835856531145626 0.8163807895365554
Ni 7.52999645296153 9.211617040765683 8.940796932509558 0.6116433305827272 0.17133600067524685 0.9257915134619152
Ni 6.657744384226865 2.1044666339911537 9.602668737786011 -0.5220401283015977 0.1845563560202628 0.09011279492769642
Ni 6.992671297397455 7.783214030405668 10.756162899867057 1.1935184287640865 -1.982240833153425 -2.0462553883321726
Ni 1.3866271602180833 6.361067577857372 6.708229849152137 -0.9858221442922507 1.3798532168410107 1.1097793985732178
Ni 7.070948410826595 8.265894840238982 0.10941120402853852 0.35138624129504 1.4779544292908222 2.111554723760615
Ni -0.13954274904136413 5.161987518321248 2.3360883320648522 0.7927657212207766 -0.42672702011988445 0.41122403938827884
Ni 5.459001000447425 7.007728185404733 6.440059192059033 -1.298399897360525 0.5189697169063902 -1.2708104177780306
Ni 2.2481897736780168 6.736395581830099 4.729774404414937 2.225980898622695 1.0450523907084777 -2.130459531084918
Ni 0.5277738513890243 8.150817196183358 8.558635345886572 -1.04629680463854 0.2671005945720819 -0.7859157881784787
Ni 0.40172992976983724 2.567536080997597 3.6225039533058 0.2538187898615113 0.6403844072711616 -1.2246747997622327
Ni 0.372903003314164 7.281464279797919 1.607078704853339 -0.8453841187474409 -0.2191487492831516 1.3231526788251728
Ni 6.531462919157128 7.168500211325923 8.329721082022877 1.9577947842959185 -0.8992528437414384 1.6815122661142523
Ni 9.44618652213124 4.668495675856621 7.553516060197247 -0.12081228089408225 -0.673990268251065 1.4729184095288115
Ni 7.549224379509955 1.8502390292769628 -0.00875356967379645 1.567279695320217 1.3789191350625156 1.760855995450903
Ni 2.5004160280608057 4.638232266172428 3.553175868531419 -0.4269491634330196 -0.8557253527724488 -1.199487501863328
P 0.7938346737402393 5.270369055660593 4.636218758105367 -2.7861911102361114 -0.2488503901126424 0.6048196227926745
P 1.443413137845532 6.11930632824486 8.910054695082525 -2.293857250749695 -1.199226277782141 -0.48937451974777657
P 6.422538959765347 5.573882250311651 2.1190549815703794 -0.05060059576568705 0.059075208895601486 0.9152163090492303
P 7.82224036186801 8.382599750451917 2.358084481501572 0.14230233244705814 -0.0008546346908114314 0.782695224358652
P 2.416060046802639 7.427843417120848 12.511602452955588 0.9859535276637922 0.27344324896065814 -0.6244479385465632
P 7.546203649804148 2.60807745336502 3.8462165767287195 0.6569533673734363 -1.9806061257634795 -2.4449792383709115
P 8.50189519357045 7.423691082788406 12.29395373399473 -0.29954997335003897 0.5728788082200198 0.30369150632223824
P 4.7715652179238335 7.749172370563126 4.453952790751178 -1.0996132566734933 -0.09754662549792233 1.4262901681473112
Ni 5.8222460855969205 4.951911198254486 0.15138251315143497 -2.0189664707092327 -1.1521637770766995 -1.4051644419122895
Ni 2.272720343394222 1.4622669802198627 5.480246175904651 -0.3470930132363248 1.1456748269182462 0.8779350561002687
Ni 4.2350536954384115 0.724066104850863 10.607527099763905 -0.2433338311697874 1.3330470551207494 0.8699872620081016
Ni 7.772150490956841 6.1573880971676145 0.34021833381314776 1.1563189368956537 0.3680179363144501 0.07876394557378047
Ni 1.8231179266551576 1.6306142106664545 10.913051932061153 -0.4673579062673692 0.09893347854311994 -0.4881550455183787
Ni 4.796993589657864 1.206991939818209 5.717728837775965 -0.8300554588101704 -0.3355492742627834 0.42122074558967454
Ni 2.5154635639637313 0.7280239154127761 8.128922049473642 -0.010110348961124524 0.2715565734609065 -0.1387871202049481
Ni 4.4458314233316 6.117061823200296 2.9732256917502182 -0.43356486897732427 -1.3455073923712892 -0.12519266934996504
Ni 3.83970283604731 4.0793785663892494 1.497494486894282 0.11230552897465175 -0.4134030493174687 -0.23772265563059705
Ni 7.022233299255221 4.166502770535711 8.127580957709515 0.6722750853321713 0.056038993172438975 -0.758039630593501
Ni 0.41179559968426793 0.3046896893785829 2.3044146250443247 -0.408621054547793 0.7412467274058783 0.003221592261091226
Ni 7.744664656265295 4.072224206559704 1.053018893761174 -0.516943944725613 -2.603257377420936 0.07691377973891915
Ni 5.4643316999282625 3.695979696360447 3.9568136275891357 0.1401058390163716 -0.26207820165682605 -0.9188863017016498
Ni 4.979181934545929 7.203664123690746 0.2198174719601667 -0.6803933435639314 0.3121409226411721 -0.16398238852365307
Ni 7.090522365236057 7.606665004442068 4.5275650745293685 -0.4014602751332957 -1.0160801718458436 -0.5213826972232569
Ni 0.6917732885222101 4.194213055731714 9.956469132750073 1.5240807913352399 1.8308810184897888 1.3649770710601268
Ni 3.524368581494886 5.4373789351848 7.388784353293272 0.0921712201186219 -0.20261758439734784 1.0222456772266073
Ni 2.1365630561284075 9.07155992598494 3.9988625591781566 -0.22324297395718326 -0.6031154956173742 0.18698013497040702
Ni 0.5999244012569434 5.87887307745038 12.632615877643646 1.9283242856406273 2.5285514039666133 1.9601658556312562
Ni 9.230957192566336 2.369598792380181 9.318415266838176 -1.5026197932479863 -2.022792272213226 -2.003728827823872
Ni 3.301021625352144 3.4757095825496265 10.703382428533718 0.3325102303261435 -0.48848748915713297 0.3024584052460856
Ni 2.3068181158628778 2.0810489646928776 1.2328046830411208 -1.3148449302904257 0.5871582009571694 1.117724107341591
Ni 4.794833253552471 8.799750365088338 8.313200589684458 1.1738232643280042 2.014910298361988 -1.1785564081376154
Ni 2.1076369973665994 4.152455909798486 5.984133817567346 -0.9768754766219241 -1.983313240281997 0.22604573351330104
P 5.7216548511830805 8.591142325404894 12.088199956559622 -3.040017870517423 1.010060448014325 1.1565500790698533
P 5.326360104418093 2.41522770951528 0.5184395160349471 -0.0721613526555983 0.349988589616565 0.9990666680069825
P 4.357182826175706 1.8217618715240673 8.850143244180522 0.4160960227685995 1.160468183177337 -0.8012089668921233
P 5.098093941386016 4.141570060332355 11.703696603006808 -2.2558170081475213 -1.4613474168617606 1.7979927524022004
P 1.8115493735713046 5.365769872158881 1.6747916812060697 1.573586354264535 0.4714505882795042 -1.8973658895859
P 9.189705060268135 0.45026641614808105 10.358629259320116 -0.016505710964507057 -0.5652963678870716 -0.18235137794914402
P 0.019328929275430024 2.655558087161884 1.3008225379957379 0.009072651725229535 -0.8640824664878924 0.72396274351445
P 5.962621171925643 4.941492954005972 5.936732676657478 -0.7650098912637471 -2.2782131164545345 0.06438685091650201
Ni 7.668248611602271 5.891002756795373 6.366295404190334 1.9783114161920317 0.6522312793074186 0.5434725871437608
Ni 3.3095039839997225 2.487790687185137 12.84849891930278 2.586369857636978 -0.5080954931960475 0.2993651110327425
Ni 2.852083208022096 7.641632522615492 8.531916383751918 -0.5601449055931192 -0.17901280049421428 -1.2081030114464806
Ni 2.8647740136282303 7.257448075821093 1.4725832865309363 0.035034365896313854 0.9295615220273089 -0.43628638167354533
Ni 6.612171579717879 0.8409776965699836 1.8381009330380522 0.4754818209260844 0.36396279240846996 0.3661209764020533
Ni 0.7483862522191405 8.460680469689658 13.49078367722368 -0.24085554483262392 1.352260651934723 -1.7539309861962953
Ni 8.476476173940771 2.4583876711013595 11.47594667613498 -0.043667873201595764 0.4477856405623965 0.8379202062702279
Ni 9.282309597565071 2.994291306803879 5.9558549244267205 -1.0485452343530843 0.6232863141382943 -2.1156165525348145
Ni 2.5016318016266106 3.406083165646406 8.545809869977763 0.15944156323050604 -0.614058110671807 -1.4196117276858713
Ni 3.00398008691291 5.385792727577256 12.922427304208082 1.524635635397445 0.03773505265692856 1.7322326752872554
Ni 3.04359560094945 0.045666325552508616 13.620748936197804 0.3013831699040358 -0.46707019982362147 -0.9984107795905386
Ni 6.878706553759758 2.8263275126357335 5.698456956337084 -1.1401541542103333 0.04870286452234193 2.6779543520141944
Ni 0.0304925362408262 7.7031787213582845 4.521693823416966 0.7054019497931272 -0.9277046713242281 -0.5099094064763348
Ni 9.130478183404724 0.6453840453032651 4.901720324616312 -0.058530649246041136 0.29398482055743563 0.5807160448762515
Ni 5.47711602657792 8.096921018800783 2.571887615152744 1.1711326048697188 1.1770726245032375 -1.8881790808803094
Ni 6.4811485977415035 0.4357603670871562 4.336375329202171 0.29129878908484025 1.378124407075362 -1.158367077673934
Ni 7.698222106051542 0.2708098209413367 12.11876450400396 1.9103044520244388 -0.4738113752021969 -2.053666336084263
Ni 5.232343399363952 6.295359692677785 11.640787802659878 -0.1666761333057323 -0.5368571387097721 0.7135970840094098
Ni 3.351205017306836 8.40509156141931 6.07473326369114 0.4887338008399841 0.5461488484243432 0.23365337065722988
Ni 7.966272120998501 1.3239680610573608 7.257231107000118 2.5093213520924076 3.3922227510590157 1.170285683488391
Ni 4.790671567115678 3.1314773255484516 7.103722860529395 -0.2972110408042172 0.913683931565104 0.4963586643750936
Ni 1.5076433905374484 3.719444126180485 12.298470800396913 -2.0266165310553226 -0.3887448844491563 -0.3195421002012497
Ni 1.902040335284611 8.68187644183136 10.3909866051688 -0.22411329237727853 -0.045504412189702276 1.769524469759178
Ni 8.189974457106631 8.307277901998116 6.693377772230176 2.2618796694018335 -2.3742767296490275 0.2728130715758269
P 0.9046084793729148 2.160597964313938 7.464696319531705 1.7783204707842535 -0.14162947474974963 0.7110097828982077
P 6.651010869093175 0.13610117463970056 6.4929210267002375 -5.09977797820425 -0.2571488826760087 -1.038404546374657
P 8.750698577760279 4.675949303025441 11.692144883710789 1.4450695056373435 -2.2789854758441845 -0.7890057399577122
P 3.38374098834865 2.7471525971887667 4.013317171665143 0.5114708374261836 -0.5170763565384192 0.6814521238457489
P 1.1845936498943388 8.641727857846737 6.371565314992881 -0.4992172168698112 0.10303104565126128 -0.46307213440782186
P 2.6620203912693556 9.481069871365493 2.024993386415347 0.30121039177159736 -1.1506810218835861 0.06391556770703831
P 1.2702776299705387 1.5218492370486632 13.024537320368744 -0.22656535346219692 -0.17807023407528688 -0.2122381382062474
P 4.601562665006877 6.448575218282279 8.851676054083871 1.5600047589253585 -0.49720995663179535 1.0468750457395133
