# total energy = -381169.29526742443 ev
CRYSTAL
PRIMVEC
9.23631786733101 0.00000000000000 0.00000000000000
0.00000000000000 9.23631786733101 0.00000000000000
0.00000000000000 0.00000000000000 13.51828482015725
PRIMCOORD
 96 1
Ni 1.012402023061769 3.73955414225884 2.59705211850151 0.025537739259788274 0.30465644133866887 0.9550946333014069
Ni 1.729648276639071 4.445846123004481 7.471366402993651 0.9212638007948909 -0.6235166849815454 0.5877780939293555
Ni 5.452290721128289 1.4123161082770161 12.019417923507435 -0.2157266109754801 -1.1532832353931235 1.305233118232275
Ni 7.510576419034941 8.098578878570557 10.756255415777948 0.5428794336444521 -2.607996177657502 0.14139781835491777
Ni 1.5714578628213074 6.517506008988912 4.463589089370098 1.0152067681019548 1.571916936981912 -0.6562059476844505
Ni 3.998780635760876 5.959613945263765 13.152925621056106 -0.06873895723761066 0.7308376162574123 -0.2498379508368923
Ni 7.910093342587657 6.672315930516298 12.624780042222739 -1.4938392188418788 -1.0426167846837913 1.1761048612733294
Ni 2.2362972495800193 0.2791630853293049 5.0962990212618475 -0.10603229437143029 0.20774744942474543 0.44432493570730575
Ni 1.0811386996327854 8.93038318099364 7.474813396771709 -0.35496547400586614 0.01094955703296824 0.03698017676877502
Ni 5.8684699618718295 5.418199472374779 11.644041963614175 -0.8936671221235449 0.8693164611933222 1.3243652110760353
Ni 2.749134555402261 2.7690388201174634 10.009843641694292 -0.7109367635684273 0.9382816755091261 0.6780631527688581
Ni 3.0110580536824116 1.226823139239698 2.95228551668205 -0.67408025686171 1.2296272586715018 -0.8807118475144574
Ni 4.716581068402174 3.7885897531047856 13.500684067295108 0.00828615126819218 0.10981207312883669 -0.8006659499044597
Ni 5.797313370054696 4.734425634262858 8.884676339058768 0.5950023795919366 -0.8631733244100618 0.0008361227480501729
Ni 8.017613317320686 1.7153504567879647 7.762171866825747 1.2045055239032094 0.6403576677982843 -0.19680586281157716
Ni 7.255053688943947 5.833298063943527 2.747132121717687 1.4479753664302288 0.8226295986597445 -0.7220213035173629
Ni 8.161856891361207 4.537368795423482 8.519899053764437 1.712653210493431 0.023460030795153144 -3.163962526392899
Ni 5.192316085889858 2.763349248393767 4.375409040338769 -1.1785605219026734 2.124829072272018 2.460066471721337
Ni 3.882818666619635 5.445077156978602 10.343961893904797 -1.092682848102247 -0.6646589635478101 -0.20875969273934372
Ni 5.513407435569355 7.2302264668769105 3.682962299875304 -0.3326218162033433 1.5081044705116415 -0.8644588759907048
Ni 8.523698874879905 6.402994141731795 4.747338006453973 -0.866091012277489 -0.45989245112825955 -0.9601753902584238
Ni 8.968538409549792 7.006116453396778 8.868670724058779 0.8498269850101429 0.17716263465935295 1.2160451491116928
Ni 4.790157575465426 2.6595976912959136 8.887096254304884 0.5635804136372293 -1.7099154998472939 -1.5909523563468084
Ni 6.653039735406957 2.1686319858660625 0.3519110946918817 -0.09039175962069594 -0.2523072383129913 -0.7340985463968712
P 2.7336267779280954 2.996612452747573 5.267237400815074 -1.0282728572572934 -0.6308085906572685 0.07512891992435447
Ni 0.03299766873389054 2.604318329662276 13.300099878713395 0.3651773815418614 -0.7604688088602839 -0.26994911976447056
P 0.1797849246781558 6.796378150309619 11.225908318038273 1.633815731369238 -0.3744150980900455 -1.5682112059955509
Ni 3.360560316709456 6.50161030616995 6.295532355800486 0.03213441864069949 0.0020450554544868002 -0.35627005174990256
P 4.102698446577928 5.665991404523022 8.075931427488571 -0.4071917783004342 -0.4225410070629949 0.45092752862548796
P 6.011457396700627 6.787871501677274 1.0563096303022015 1.2216573530921477 1.9836019751670095 -1.1226197448709956
P 0.48296428337751673 8.294259506067675 5.343669777321454 0.6654110112224862 0.3542375947009061 -0.06258476471075672
Ni 0.508479611115683 4.322624408124888 4.785540340230563 1.381523405454582 0.3729868502839512 -0.14916512100516247
Ni 1.6463736359558832 6.266703037259622 13.025300029881288 -1.1673055178141445 1.804762724136182 0.3858773330933742
Ni 0.8368621100138254 6.476053415001983 6.846971004325394 -0.6075064255962181 0.4700840469492807 -0.4420032295526645
Ni 1.8109001637386724 8.958840275929855 0.46586693562145537 1.3247799300159506 0.5260348512832876 0.45041202244165013
Ni 8.898859628569982 0.5669833712700064 10.156273452142278 0.05627656310454178 0.9768626211061177 -0.8405954391095459
Ni 6.467870037490304 3.3616686748374485 6.80172505464541 1.1946157755933233 0.08702284314846304 -0.014602580404523238
Ni 7.909308255580329 8.785677791066457 3.568908553977758 0.3940213023567472 -0.0613542347377653 -0.2451354031549004
Ni 1.7255658242009646 1.2746395561448514 11.850114372193 -2.6789303427742186 1.7332336057479438 -0.0872465291234949
Ni 7.701278671273825 5.4877119996353905 10.455500590483574 0.9554013659085482 0.9007296853972809 0.05239239755878719
Ni 2.446007843713979 1.8052844825568424 7.814258233418991 0.05928501091356242 0.45348294805748995 -0.3973809628575995
Ni 2.7534848610546323 7.1894850693554435 8.90729238666046 -1.166488421229488 -0.8592863306508298 -0.9755786121873715
Ni 3.371255972644586 3.5112416042100687 1.9426987232653825 1.082499222701026 -0.27437450252567586 2.836967055237398
Ni 4.26113824097449 7.969011813408205 0.9851031623693078 -0.9479744773168578 0.5236390973576014 -0.32196305093791644
Ni 5.465415528627269 8.47655670916928 6.338845144178895 0.1930412535628224 -0.4419230111340325 1.006389426920641
Ni 6.109325419402385 -0.0741713259252742 1.8462863442383872 0.21748910219254156 0.2787271230674167 -0.0603137092883929
Ni 3.1658587388920645 4.889429518462642 4.090160145255011 0.9353074233721506 -1.3376285038438447 0.24843464273146246
Ni 0.31907506151832343 8.724293223411124 12.363214913070637 -1.023487005832876 -0.5136413627149412 -1.733984882091672
Ni 5.53083636713204 6.889350924612742 9.651960343956075 1.1024471265778626 1.3303833922456572 -0.2882312059031101
Ni 8.80544351101566 7.937026445097881 0.8676818550262102 0.12112544125912687 -1.8411237792637196 1.7261404463465886
Ni 5.952658998010611 6.039803655824041 5.614792648063944 -0.004592761577004993 -0.8541158421934838 0.6819349770194384
Ni 7.1229835816758795 8.966515655966205 13.103003323707764 0.9824516851581209 0.9877661553924989 0.8074323220940158
Ni 2.5960795342441965 6.004770302661736 1.8609674712754243 -3.8001670912547585 0.6450154782852697 -0.29694107497228217
Ni 4.275897876712261 3.8138049005166206 6.553583066055076 -1.48285983701224 1.2553058943845283 0.665232576663093
Ni 1.9019333113178094 0.48007885771764225 9.721930992576258 1.0774981699420088 -0.9770073742140979 -0.8439625558095659
Ni 0.8094404062955117 1.7638595975231137 3.9185050274456814 -0.7437252708533579 0.3066400474276009 -0.10450145954920068
P 0.2167652936186336 5.753995039885646 2.844747069313554 0.9698136846791363 0.04432247606645915 -0.8925075545978047
Ni 4.9126773301972895 0.6176824429397143 4.0071579759449545 0.45287668193205877 -2.299131868885073 -0.736629283238525
P 3.9219529448555117 8.143624400155728 4.955789690480888 -0.38052121098778335 -0.6484666700586639 0.4672856582685372
Ni 1.3784834764200378 5.163868227271378 9.858790130589027 -0.06764341018058674 1.0223909445552197 -0.29850327725307946
P 7.989802764625802 1.3290137586406285 11.969264718215763 -0.13813663110514274 1.0328851592183244 -0.27613879351495024
P 4.509124135795133 8.583531741156047 10.36892950800138 -0.77152609511571 0.8319845575120832 0.646903439336602
P 3.308218104114999 2.571335439036758 12.212405240753531 1.6029367824021943 -0.40668192854355123 0.40172689853112103
Ni 3.4519906259511237 0.11385978322514759 12.305532261562803 1.5053703594099301 0.8932115226433649 1.1213804731472559
Ni 4.1736795483581295 1.3042327181622575 6.203216283688197 0.3392002407518093 0.6063111197365364 0.5039979260879062
Ni 3.973519306760374 -0.240469379449305 8.376321418232484 0.6645504629944038 1.6159393653094491 -1.0158999375142375
Ni 0.40076752097380175 2.594038308025143 8.95586341072442 1.8205737230265098 0.5381074661771056 0.19275380422939062
Ni 7.540188053687813 3.546302666325573 4.371461438139568 -0.4948375997448768 -0.43714281613656975 -0.6252676062343812
Ni 1.8594739586979543 3.8292664964021195 0.5922160676855345 -0.4998931598909133 0.48410607225998553 -3.0741281819375703
Ni 1.01121977439191 8.742414878803805 2.5421135769922296 -1.1639291451427438 0.427663930111857 1.8143051164089787
Ni 8.096057363829374 3.099671286015431 1.8796904109525416 -0.2989635047189496 1.2273849996045443 1.5815629447121085
Ni 0.5874473568398457 2.6693050612335836 6.300467320365374 0.28637332675876487 -1.268767676316389 0.8171809168403474
Ni 2.7150433066487505 7.592945900580268 11.218269883272855 -1.1604260170854919 -1.3203671456602357 -0.050703439892138484
Ni 6.925021583698642 6.571806320942823 7.5543150016608545 0.29491041769549853 -1.135384757846148 1.0662868746072216
Ni 5.31926003681596 8.111500487079406 12.298813764043619 0.006690781756614284 -2.549243899318958 -0.4716125677786652
Ni 7.385202642123496 3.069468527027629 10.049911711653001 -0.7601476780754393 -1.5216750101072245 0.029338601063117215
Ni 6.430315169586817 0.6244997690586431 10.178471094550654 -1.1286073299129982 1.4070030377829252 -2.2682102396055517
Ni 8.45934021291446 0.9564207012804024 1.289716921212646 0.6540688467367897 -1.0795087726141346 0.9801641746755249
Ni 4.231369588920153 1.6676448756956106 0.7229210471926251 -0.3532644321543593 -1.7610064049858383 -0.09064115662734067
Ni 6.7545191583424256 4.824119515770669 0.7450106246835203 -0.592507895304857 -0.25773637974836255 -1.2259125288240758
Ni 4.622564590195189 5.554241196268154 2.008884328878469 1.9408985227612123 -1.2435320416780518 0.5245376979124707
Ni 3.0995235049316987 8.124024933925723 3.0196736908640087 0.9467159223194083 -0.8174583388714503 0.0504913238813324
Ni 2.407049055515034 4.483280918777436 12.010617559971175 0.37824475624878084 -0.6392024711479185 -1.909334374801686
Ni 7.617985557955171 8.702615585691133 7.994524370251051 -0.16520906184190257 0.539062373891207 1.4539529241699025
Ni 5.139327331054072 3.3312996621304474 11.06821758900988 -0.7312487356529019 1.1423809866583228 -0.5317743248702261
Ni 7.601350949717546 3.8572063575452695 12.311413025063578 -1.3596266053814907 0.09081933407641779 0.2509558664914194
Ni 6.798779592920269 1.1900718309790053 5.496102270664295 0.7809083076615584 -0.046147187980023756 0.591930168424516
Ni 0.21040331796395526 3.653961185824601 11.052982282908845 0.8342746390978406 -0.6141977215734647 0.31246359608791346
P 1.3940004902119363 1.733361276367847 1.5321490181802715 -0.5157517241897246 -0.42506557325706146 0.12627818910465996
Ni 9.058500144271868 5.097690010712478 0.5317191101643707 0.43798613797347147 -0.15957268949173165 1.1491884964984593
P 8.054992695187241 4.82513551072133 6.078997046493411 -0.28206415786044975 -0.6024943170936076 2.4891327929596745
Ni 5.6206595570881195 3.170578497253767 2.2760466665769323 1.1577045043892706 0.22033788449524636 -1.4153598943880528
P 6.865031700021035 1.4736729669791477 3.3357044620574454 0.6078242139469532 0.5303856720528155 -0.9730990402986271
P 5.714943888509369 4.986900379501871 3.8213214158879576 -1.7924548533031066 -2.1352613233489355 0.47245871782904447
P 6.109722581064916 1.0637190043878328 7.814379229181297 -2.7892548367630994 -0.10460636055818114 -0.23763266701995203
Ni 7.721995731949556 8.07341914906512 5.846414558756547 -0.9817490026641416 1.2821515538224628 0.545416341133693
