# total energy = -340871.2489993435 ev
CRYSTAL
PRIMVEC
9.24313303987692 0.00000000000000 0.00000000000000

0.00000000000000 9.24313303987692 0.00000000000000

0.00000000000000 0.00000000000000 13.52825951406708

PRIMCOORD
 96 1
Ni 5.37375418107576 6.299832920133931 9.63052472691619 0.05716539346739832 -0.05695096346374708 -0.4496964844318643
Ni 2.817732124511456 7.990485135227014 6.0213336253937015 0.5708921168072942 0.285765775081753 -0.348135081347594
Ni 3.0234472927049927 5.673749305935997 4.912868461537198 -0.5954047572366779 0.10241063845844296 -1.0526749402507418
Ni 1.9973116388510346 1.9938731933726017 11.309205236139203 -0.12520835307924888 0.9684350591640547 0.6972153002172766
Ni 7.704521086270703 5.852372851287368 8.509789303993506 0.9435894608752846 -1.6631476475641356 1.1300540896618538
Ni 5.221630698054137 6.607148606335348 0.11887963085030356 -1.3026373324806404 -0.23612934300154817 -0.9965752690436966
Ni 6.314215235092107 7.312566031128409 7.615341490397012 0.34609079722405556 1.2391215713151822 -2.0300232427440266
Ni 4.216255120932867 4.2313584002655515 12.605997386377343 0.11623057506067079 1.852014458034294 -0.3940444422851988
Ni 7.0686305079528315 1.0395936555114795 2.7844808778337313 2.552850385723294 -0.6014651044981448 0.09458522887675322
Ni 8.789461552312265 7.905836523153128 7.8575919904254965 0.37405000144114287 -0.024196394740545427 -2.143112443962238
Ni 6.081778169376665 2.762245597073201 6.715265533112837 -1.0515289995717567 -0.48986097246589183 0.6725789897258352
Ni 4.248227118002486 2.3275133223766415 11.318702555303423 0.5392215251768906 -0.36165805553469327 -1.3682112617267082
Ni 8.445228792882732 3.989576527080499 10.26379580134001 0.8649059908304524 -0.15360027395838063 0.01552483510847649
Ni 7.578287618800398 6.219279015981941 10.929291210364527 -1.5758702652027055 0.3073830962412125 -0.6026269860167299
Ni 6.433765917398684 5.367089882178045 1.8842024959367134 -0.30600909871182136 -0.7762494687333082 1.109088028933148
Ni 7.660828796548793 2.9481157587016984 0.7272700398471204 -0.7002098640692264 0.8462089286415813 0.7628388517543572
Ni 0.49238261957164503 5.676069332320639 1.128808375290596 0.12343197790511647 0.37454339613779364 -0.6341975617341593
Ni 4.667708223238255 3.6592454396928 1.349478008375413 -0.0033051531138330176 0.2597271849261462 1.5752202903235322
Ni 2.3761969039220836 6.13240280885348 12.715522042311727 0.6868920639143977 -0.36933434113302843 -0.2528201733936678
Ni 5.5239828218310425 6.622972850042543 5.214440464888351 -1.4984507494719612 0.06736830214232914 -0.8697190959483796
Ni 9.253115590186285 7.957967793310009 10.009884164710474 -0.2681850858855124 0.6499627949882162 -0.2986549723395953
Ni 7.365695559649995 0.537204420146955 8.116617852547549 0.38057957502954454 -1.2738648883336383 -1.0346507357591794
Ni 6.506001001844789 8.304548308523204 1.9005582197917845 -1.1257361790127902 -1.3971842519202904 -0.8177367893438174
Ni 8.914456439959695 8.560056234222968 3.3352431254746784 -0.24264014753687246 -0.39430978013144347 0.4959866257476554
P 1.7165699600434186 9.332698965372588 10.53267022168053 0.18225110492585386 -1.8013927792226847 -0.007445143424135565
P 2.5830027618103926 6.352389374409113 7.416719502472693 -1.2020539770389234 1.4617893894951857 0.6814112433054845
P 9.070489768243084 1.5360515724257076 1.5419912096957096 -0.14438801133149326 -0.23663996408937954 0.8441278777428366
P 5.7385713977108574 8.586140355567421 9.320727259502519 0.4130988878134885 0.21387233137556072 1.0973378303757553
P 2.2679598164155097 3.7263320990542614 1.335725150774983 -0.3855135219960522 0.9327365773211808 -0.6731628872537632
P 1.607500990566256 8.8681021279319 4.381938280075082 -0.2839238367770078 -0.49003143660548504 -1.3094317296946545
P 0.8613897483986058 4.756950672416391 4.34009554126778 0.19798214250786547 0.06864794018570113 0.8079743106404149
P 2.008181563266725 1.6879901927871994 7.682130520875663 -1.7636515559181691 -0.7399778879957837 -0.5277659750417814
Ni 0.7620889218827537 8.094544326614633 12.246767643644699 -0.24222594281758927 0.24544213576204182 -0.799326662267746
Ni 7.721454505938683 5.483202119006192 4.102160660040048 0.36925206583186726 0.037845867203179985 0.858388758537225
Ni 8.417859876050368 4.7792913248931965 12.590629753440671 -0.6161867269790355 -0.9314168300684926 0.6121935466592425
Ni 3.6924098009202626 2.9539851481608506 7.7066978440937435 1.3132300203948222 2.046157686412044 -0.8575276960885102
Ni 0.7981121841491391 0.45737425330937775 6.394956774844128 -0.8207357240711413 -2.805917899241077 0.7773455300109644
Ni 4.968766308394244 1.575362617102519 4.743332764557857 0.14947211072262 0.4525223839164335 0.5293785709445399
Ni 4.146903893984803 8.683128550205037 3.9487505329039156 -0.4464396680574634 -0.765629784235933 -0.8099743717895793
Ni 2.007811837946463 8.563929106952708 8.469082546232707 -1.5650176387589174 0.03222672124418966 -0.6338077824949084
Ni 4.92118265967658 4.386726222972469 3.981921364324483 1.914767630002115 0.8379500310668988 -0.9755935245857069
Ni 6.601990938117699 5.022154644640015 6.43874796608921 -0.48742973731657985 -0.78882524851579 0.34226756682322346
Ni 7.334851224807174 2.473406933751857 11.943896980106128 2.172593741250807 1.0520421917627494 -1.205558390647756
Ni 7.279910042216305 3.112652769351103 4.555641705727072 0.34699171177177013 -0.4116930086048974 -0.05408212655638428
Ni 0.2646235034708127 2.530353876205145 5.88173551190924 1.3668524337059684 1.1435204995794048 -0.5615075902686008
Ni 9.050016228633599 0.9511461157719056 11.254348166058694 -1.3401168174833373 -0.3333406966472388 1.8849060665559925
Ni 3.830936635289266 0.7548765051977512 7.185846374861958 1.014210979847589 0.7610552774913731 -1.6410225335303221
Ni 5.997351392494935 0.665588764667883 11.32259853586568 0.05691882467423101 -1.9437197942600914 -0.3250961972502594
Ni 8.095801392703523 3.0601979895389926 8.095039758543782 -0.2718309101682157 -0.44822015699665385 -0.6251297951049364
Ni 3.5786083473437516 8.544555500171 12.389396580442003 -0.5383499212052147 -0.21180156488946106 -0.40369996309709183
Ni 3.873325643257255 8.225732113376443 1.3448804740179603 -1.736033022869952 -0.16096854139799377 1.3018030095048032
Ni 2.4360369470064187 1.414864855576972 5.0000450704883725 1.1647141029378842 1.1606916120420525 0.08395783106989411
Ni 3.267752541200831 2.2805119910383898 -0.0166496554846791 -1.3618254128050225 -0.6925361495740525 0.45398662716678584
Ni 4.872249513539961 1.099784937650063 1.6998528296877917 -0.8289411427000691 0.6092038679032993 1.1840986781120835
Ni 5.478349474177759 1.5532900154829032 8.956708649559186 -0.3203748805151902 1.7473193944170486 0.16268732386131338
Ni 6.6491771321160815 8.251557426996715 4.275511922324489 1.7160627503956125 1.1455976938234076 -0.5684459692596467
P 7.906492785596592 6.7285756446422536 2.425617163168147 2.597800725181739 1.0752561679853676 -0.9886351882610135
P 5.826224028011867 2.5508828746126686 3.028286997147217 -1.3683745267774496 2.880729545035329 -0.6225990582632827
P 1.7939719558401783 7.840838811851144 0.4553111860223182 1.6024652420824144 -0.43709293673524086 2.4051088845385356
P 7.776608280588703 1.4771820583070594 6.136973538125213 -0.6157447543456105 -0.041858587906998874 0.14768467980489403
P 1.72324350207414 4.207085932990379 11.635967549873078 -0.4540005111238568 -0.1492473963063236 -0.12021938450508973
P 5.316936642484564 -0.22801052931861018 0.07934675098133531 1.2939133223440813 0.6671596184824768 -1.613411713791589
P 3.723734778679424 3.377644149515576 5.327090224092247 -0.9047362354535128 -0.20478759546547312 2.193844937320099
P 0.34009276015590484 4.72493245968174 8.403903669523794 0.11503475498035672 -0.4099731977003132 0.18301009457906547
Ni 0.1846972080499674 1.671352553375429 3.6756150282473805 0.5501286590076978 -0.1724217775402579 -0.2760452053598794
Ni 1.4013329088553985 6.608479617488289 3.1831723283111932 -1.3995614939032155 0.6730554151416215 0.6199459369111516
Ni 3.551673857762696 4.560848362549655 10.213943887782541 0.22769792440474335 0.1364751842423198 0.5328333622623598
Ni 2.774760799164055 3.1679267047302075 3.3369207541153654 -0.6926243384124846 0.3184753494996322 -0.1198584016212452
Ni 0.5870803658502407 6.032650917446909 10.997352095944876 1.1944900486487366 -1.8725038362368975 0.11300718302736666
Ni 2.749416128460125 7.084750531916235 10.311293488920713 -0.12768124009977364 0.32372837036845536 -0.25052160716747823
Ni 5.62929907930755 2.1160304391870244 13.192514845427484 -1.4410786393103956 0.2250805413865543 0.9936375265716113
Ni 7.511016096778805 6.837413535794252 -0.037375532625242 0.3828472880177987 -0.3225394922666768 -0.25484543135381266
Ni 0.6388835047853897 7.1360037044374955 5.264887636211441 -0.3013052654782489 -0.5492565408153895 1.397477100570361
Ni 9.11109485154081 3.9024969710258923 2.629663945854004 0.23740255328701695 -0.3934235208717482 -0.07271028318053284
Ni 3.785497393429119 9.584851633790977 9.937399515673194 -0.22181986835741155 -0.2160369431270473 0.6706514336858191
Ni 1.8602359763640577 3.223043506848201 9.14449491265994 -1.393989913352709 0.8541160993038 1.1463021760896002
Ni 1.7197311115316551 4.491192112212376 6.54590545566062 2.8631177454908365 -0.4355613305820628 0.8608446762768853
Ni 6.058845956387441 4.092988699157659 10.775245155677544 -0.3815013155128656 0.6264228028847469 -0.5558115683250879
Ni 4.367454290653835 5.4400366878656525 6.861831120257627 -0.2697994815604837 -1.1341380299232402 0.7488978161932328
Ni 7.437819726500021 0.4977427124021372 13.576420056034385 -0.36706817080667103 0.12949103961500277 -1.0519223783554335
Ni 1.3484621880579941 0.8700431695193279 13.769603384497657 0.24903550954025497 -2.32557489356795 -1.229278359972515
Ni 2.368672993654761 0.949315975436611 2.25468760173142 0.38672965379134044 -0.21015657308687033 1.5316087242811687
Ni 8.806810912965538 4.595963024841498 6.297986142159225 -0.942994507603763 1.416596080787999 -0.6644890136288492
Ni 0.5897691932418428 2.9022698189892635 13.282748158463923 0.37937449897784986 1.6911667584848808 -0.5060663785811608
Ni 0.34304224389829147 1.1327551930843882 9.05113649635399 0.08080720125605438 0.16645913219891975 -1.392694591580053
Ni 4.137836380505388 8.050639444833571 8.032782636178238 0.4743790747802088 -3.1816835978217464 0.36394093803159905
Ni 2.958542012733074 6.094792500649872 1.829508104997119 1.0340190157124514 -1.9020648377234661 -1.939337091811363
Ni -0.2897666738752007 8.318755003954255 1.0383291949161848 1.352627034135206 -0.191688853299986 0.30199972044211215
P 6.211477811724423 4.587237507283325 13.433413075097112 0.9484539880564377 -0.43611103243794574 -1.2421996960198736
P 7.478637401856898 1.8299185001026093 9.817376509269982 0.9017966932092146 1.1977628058627372 1.1583146271694438
P 4.433977118901898 6.417276168115019 11.506636708532278 -0.634750606024152 -0.16864585543759342 1.3400365990647052
P 4.815219382889615 6.597979418392861 2.8431932586912687 -0.3459151908781397 0.35252472577485744 1.0307704268681668
P 5.174333586459677 4.292963881754136 8.611711483030012 0.8798757247664072 -0.2940257010977001 0.05121380386965373
P 5.3478826517904565 8.840548348439407 5.859563084453155 -1.2123494454276604 -0.3227387527616764 0.7548805161392289
P 8.001160953849567 6.634055366517384 6.082251417786599 -1.312182038746282 1.3085760665625785 0.9236693249125899
P 7.809291998899826 8.178129978392766 11.734953185553406 -0.14859279344146023 0.9869565150070098 0.527465413082227
