# total energy = -340865.76808009227 ev
CRYSTAL
PRIMVEC
9.23799245044887 0.00000000000000 0.00000000000000
0.00000000000000 9.23799245044887 0.00000000000000
0.00000000000000 0.00000000000000 13.52073574181912
PRIMCOORD
 96 1
Ni 3.4341405993610703 2.808940975582797 5.6399044016749995 0.6718251422789462 0.20568388202749738 -0.9763180614565574
Ni 8.788730524028672 3.310490068689318 9.763444978042315 -1.773686571556668 -0.4036189733475113 -0.4468132493467983
Ni 6.501144897642067 2.680117169066728 10.003316845753679 0.7810841711177903 -0.2499461942799824 0.6397809693592078
Ni 7.466422742236121 0.1988089906970975 0.5358876353224322 -0.29856086996389225 -0.4733809725329976 -0.5463180270123559
Ni 6.260624522851649 7.00321131833302 1.4316292621748041 0.9933297655232054 -0.19963819005404973 0.10508792818028997
Ni 3.1811489345888173 6.519454598933917 8.940883957004095 -0.5406014362435528 -0.1324030710554752 1.3280022936079903
Ni 0.9740446995516554 4.965421011286286 0.6272948004952218 -1.4021027722678303 0.8878620854059935 -1.7822293189203564
Ni 5.033893012282851 8.859179455437173 1.0369702098037068 0.02878812787628591 0.3271494802348624 0.9186561879687146
Ni 0.7893236475377422 8.375376546075175 6.53324692185457 -1.53324240322985 -0.9506718216433626 0.98929621888378
Ni 6.394473797330769 8.410610249772006 7.820353332924318 -1.9208210352850468 0.4330290510785123 0.5436165689207928
Ni 8.166681055719886 5.591174914619308 10.25691175144135 -0.5909634336358726 0.11560631121311059 -0.4920250699967463
Ni 1.9270914419709317 7.621990537268793 2.273863512209555 -1.1285535938569273 0.05422739388499693 0.6330202535966066
Ni 0.3209731283628668 1.7037906853480256 0.77367171671091 -0.07595810069386918 -0.6668829677823225 0.30197992294777026
Ni 1.2352951296896575 6.934979505143512 4.509206442962624 -1.0629570389030405 1.1085311279884134 2.537084895358921
Ni 6.3447456832772735 0.4591439357705072 10.954905832943966 -4.229179050754078 -1.1615138508330318 0.2586298380969094
Ni 6.229815817600226 5.741717241688929 5.325425582095266 0.7351588693405855 0.7353807555434045 0.14766462520023602
Ni 1.2972358699327728 5.463561285131106 11.216220929030024 0.20787986123755167 -2.668739518284146 0.8769359254117929
Ni 3.377012853251686 1.794674056341578 9.885239596004919 -1.1529050261180984 0.6254046460328778 1.2458959139245382
Ni 5.755481850631844 7.710065558518288 4.153475367520753 -0.3509815496574536 0.5084096820023567 0.0221870776200005
Ni 1.1697885243109951 1.8820285141699 8.46940268214415 -0.27242329233657603 0.3410555487929932 -0.6754138880714691
Ni 5.027500321418089 5.719823199276374 7.776370326455788 0.6824026606844763 0.32510133945658204 -0.9631496423953992
Ni 8.240483378434613 1.2272857901235454 11.207811584385233 3.5727545593009182 1.4673098050927824 0.8311350650275945
Ni 5.788914145775742 3.802385459550641 6.5535280107628076 0.028145352085964432 -1.9472370633847302 0.03443169931530844
Ni 8.233480980059626 3.750310895382044 7.292503674944994 -0.3353623550629579 -0.9521103538621022 -1.06178487297181
P 7.151157769487903 3.9424796170132574 4.723861362330715 0.3178780822352654 -1.128343020508018 0.5867542806505314
P 2.183371832101358 1.2156274434886745 2.7999413232122015 -0.42089267282629444 0.548873446444358 -0.9950580610682218
P 4.759958818333694 3.5167744429814536 2.0807876197070705 -0.3988405781222615 -0.4553837646246286 -1.2765257229952531
P 2.408612567165883 3.928299298404282 9.335067252757367 -0.1728570653054636 0.022062379116678136 1.115844630930691
P 6.7514852585441085 4.4634839224914415 8.546673871072343 -0.6016646221034606 0.7410868047892463 1.4612206614759091
P 2.882826440230737 4.77735395836021 12.903013708032436 0.0330139930321754 -1.0632794552394658 1.2809788736706003
P 1.8513306648294268 1.1758671234280675 6.317969361786644 0.7917239102198236 0.516993824126942 0.4559411797899954
P 4.229919756113114 7.993404028913008 7.555495466684164 -0.5624923227793732 -1.3368638577636782 0.43662268196704157
Ni 1.3876388653122105 2.491856118296489 4.619008298958991 -0.6319511889021439 0.4892562490023574 -2.262850517955535
Ni 5.61427913405973 6.66666201068247 9.933374156338513 1.1062711283096431 0.12269072886371774 0.19314229791706092
Ni 7.74484660057874 5.612773341269331 3.380441072297803 -0.966485905857484 0.285337943515715 -1.144658212728274
Ni 4.874288214493097 4.207037248494591 9.847692698966274 -1.1491630425771628 0.6513838437054589 -1.1894717694985386
Ni 4.351759640239355 8.376337297303404 12.416795063610993 -1.2496013878005834 1.089755132932491 -1.1550922635774041
Ni 4.263749284937914 8.689006394136886 9.887105670505905 0.04131582802965142 0.2519184875150049 -0.262026265372968
Ni 8.095142041187046 2.2507537499735855 3.8276800070315766 0.9962029733059423 0.3227251259149216 -0.31223528212719126
Ni 4.505017937127243 3.298517630306756 11.974423627167168 0.2040939118325582 0.508732355449098 0.979240634419991
Ni 6.767984313290447 2.017300439506207 1.7677822599437094 -0.5395670814417675 2.586273955489062 -0.8241810023072644
Ni 0.7572844416747784 6.862415073434389 9.509660693506772 0.005992727248325164 2.7888092645852485 -0.9964675398212387
Ni 4.1952772839413495 0.9684649520338564 6.921602891888921 0.15239159836226013 -0.6753886912604885 0.8347922021642074
Ni 8.080573726889748 6.759891831791123 7.781427203593608 1.0149583995365745 -1.0961656644445252 0.7108192641539565
Ni 2.228924373509084 2.7163670519472625 13.371088011229196 0.4292261323926543 1.0292799583655692 -0.7010961233289216
Ni 0.621629139646437 4.805206505986308 8.4666710077385 1.2662811624491095 0.8721565017452785 0.7692956631232944
Ni 1.3135594028201087 3.790967300722827 6.470983775670442 1.836913340726798 -0.8243093003550126 1.560237443761455
Ni 1.158610553290239 2.744515215335894 11.115004863336706 0.7716572213769356 2.888935477884889 -1.6406564084401551
Ni 7.933347839156037 6.453135050208291 13.061571841262975 0.3320662008101894 0.5836414460531627 0.5620148689223224
Ni 0.8322230374767399 5.380650301733349 3.095477639008414 1.753018501684355 -4.160849670250061 -1.2624949559338
Ni 2.335503093894591 8.900473282265917 8.375460611807647 1.2767735773400013 -0.23762495371046816 -2.929852527814225
Ni 3.1061456728388013 5.471893954437488 1.5822907593486961 0.8209876921809474 -0.015833110377514666 0.7511233630896419
Ni 7.314023578658094 1.3738280664064002 7.971622690009918 0.5153663158258479 0.1559227514439702 0.6779320265076324
Ni 6.7215541625877036 1.5561583259408325 5.601843872248954 -1.5441752480922695 -0.7574554759552569 0.34444657675241325
Ni 1.1234230395563052 0.12956099832388449 4.3565707867745695 1.5893166205155984 0.5551163420302762 -0.6681348379115525
Ni 2.438017097545277 9.193668690742577 0.6920586712705217 0.12710685565354238 1.8311682107129046 -0.17103569582600867
P 3.9202991968307486 7.531024024342028 2.312072773316125 3.148216576412552 -0.8638029875742609 -0.02689759572179239
P 1.2780485593459048 1.1573726622846348 12.215781887884512 -0.6724954288730935 -3.630135154102916 2.3142795231597884
P 7.123295983869225 7.516243236215408 6.062319002750115 -0.8995197242495799 0.4615762665885857 -0.7231577311146513
P 8.789903749086223 3.4714343754030477 1.9155910650091637 1.306723586734872 -0.5070662806005849 1.566867804593779
P 8.878791713682682 4.610829904128681 12.379896673651404 -1.025372395781047 -0.42371805809023155 -0.9121991194894612
P 2.3937671130912097 7.201246165251986 11.089180055081728 1.4403433038062678 2.5885108152393808 -0.6778613211706971
P 4.365912244870594 1.241650868584104 11.813851611554377 -0.08347497789620463 -1.1369708713863451 0.1361260284330172
P 5.7683041843316865 6.9359033044014256 12.516185701970672 1.2183311169323918 -2.1764601661847482 0.47204348466849666
Ni 2.8705953380559595 8.483128491518233 5.644649958462901 2.560291158272055 0.2502251589729819 0.6026856071688073
Ni 5.247050453053865 5.102734532982582 0.34092811613306123 -2.3216048531766083 0.28233360947175246 -0.4490925322992782
Ni 6.621839270688496 4.872634613821432 11.904426433595788 -0.6564504595950887 -0.9995850024042979 -0.4798310990337155
Ni 5.409149508839987 2.850807557951447 4.060155014084824 0.05706974842979849 0.994524814272571 0.5474565114921732
Ni 5.375698737710931 5.414165738810459 2.99543756977042 -0.5838455916441687 -0.05491850641475057 -0.22596242977087536
Ni 8.81317425239307 0.31716799921952016 2.678160562238466 0.26658071751286994 -0.5324926910934894 -1.1106111504458938
Ni 2.598859786340636 7.007654792763586 13.387719169269415 -0.6642676416466624 -0.29894267878334324 -1.039170992227036
Ni 8.40810675378306 8.486056935165818 4.7955481847448205 -1.8371740505873522 0.0007332786215987372 -0.8753827219920601
Ni 4.419751265621806 1.1733451514539628 2.9598103275897194 -1.6920884989682021 -0.24181148098799002 -1.4813040624893457
Ni 0.23951712879632384 8.210709328352053 0.7540308206884061 -0.5406407741219206 -0.7779397119515375 -0.28283034660251294
Ni 3.6940884725454146 3.130958920906364 7.871177996696958 0.3669547851572583 0.4545844086517849 0.3414319582958055
Ni 1.5208691942885282 9.331481064038146 10.272798327279693 -0.47463027155906645 0.9136530783271685 1.7262741437109752
Ni 2.687941748781257 6.032058110458635 6.45840902017172 2.5294795722078374 0.099483437509319 1.0468999854401777
Ni 3.213509622593535 4.249827630121155 3.636334390539164 0.14891880932231127 -0.722883137297026 0.40672769417982213
Ni 7.67674411928534 8.207355937045827 9.790027301688784 1.7558328312046987 -0.3980823597999983 0.26806424403693185
Ni 6.536443267286951 0.35298462024809324 3.0743318739947685 0.35932066565076826 -1.8192205514327249 1.6316991992468675
Ni 9.073731833087637 4.714156851126331 5.152820157348892 -0.15853216404235923 0.4447108582918147 -0.4404088884823512
Ni 1.805112987956003 3.4398958687378727 2.067821173322993 -0.5848902308585991 -2.9728357162439707 0.6533219412684361
Ni 3.470113342464231 6.5713074512806156 4.330907643389726 0.9856771340739541 1.0804981331105974 -1.8661077029025666
Ni 8.928307353906858 1.557202219102275 6.060994274614266 0.968169464207494 -0.06821470930302445 0.8418383103777115
Ni 7.204350130758576 4.3518058302022515 0.9697527281993882 0.786184211348517 0.3062415264376016 -0.6643843697301848
Ni 4.151230535324022 1.6715778052245738 0.5121007282304116 1.54377209911658 1.3148099632874322 0.042734048533416724
Ni 0.4563854711863768 8.136777673741218 11.875194653677623 1.6116494796848437 -0.8604063031878858 0.813359229101412
Ni 4.116929868877686 5.658492166543481 11.471938725412379 -0.4356641747085142 1.6974299657857734 0.19421033417025907
P 4.771764972849832 0.5248454627925894 4.959744264846407 1.1441203379469327 -0.6561444983188958 -1.6759753954564234
P 5.155843752320043 1.4313068562337923 8.842534440408084 1.4823301897610148 -0.09172307683760977 -0.36442893341161114
P 0.7429470771919572 6.033157431575552 6.715235375663574 -3.0988066585208567 0.25286182526488066 -0.3883998424049117
P 9.122277484091002 7.055387500419987 2.6489287823203025 -2.1894648059745325 3.4102209874086493 -0.7620232978315973
P 7.738213721906919 8.380531345934335 12.116377392535965 -2.0458057023892637 1.0455085044092898 0.0760894840654109
P 6.880152019186332 2.2303100723959544 13.121414633391367 -0.0702566794337177 -0.02126662268826015 -0.6698700754351045
P 4.301745148415907 4.9337993626879 5.368462618123694 -0.9522849317667536 -0.9319891576321949 1.1666933381514422
P 9.304598505632857 9.096752910594848 8.463318540231532 -0.8706295235777909 0.16947195088331457 0.8691737649678708
