# total energy = -340869.04902168014 ev
CRYSTAL
PRIMVEC
9.25828654647466 0.00000000000000 0.00000000000000

0.00000000000000 9.25828654647466 0.00000000000000

0.00000000000000 0.00000000000000 13.55043820270950

PRIMCOORD
 96 1
Ni 3.1960993827546758 9.060964664368655 7.52047929528964 -0.016382040902449206 0.11968639481975517 -0.6382172244165137
Ni 7.901169853085654 6.108672998965374 2.6144077211846155 2.0316648921125076 0.28425345220228465 -1.2886731569910646
Ni 6.140262272588939 0.6180174745798549 1.193374616509457 0.24885604653959725 -0.32358207459857824 -0.46722240913076957
Ni 9.195709766454636 2.396692632746847 8.784843675387435 -0.40665878861509963 -0.32440071384513164 0.006974117324987989
Ni 2.564202810845077 0.3657217601422692 -0.029832050841105157 1.5772650886677029 0.09621093740563431 0.6724620045319967
Ni 2.7425822173237475 5.525502789037259 9.026298862132807 2.4856934282608223 0.7418517079797288 1.6029514376902136
Ni 1.755084118272442 1.8743030738558668 3.891455027993114 1.6269907380276045 0.37333703453451833 -0.8117371201169568
Ni 4.806976430112509 2.1139723371305514 8.184302142452315 -0.12287250585722066 -0.4573311181589865 0.14019377074448758
Ni 1.8774971827070186 2.460528518337257 7.2908404596362235 2.1086470631955168 -0.9051491546212153 1.23146765431435
Ni 0.8159827862023273 5.4731008873053195 10.506305400315405 -0.4938603234332721 0.09954668664708663 0.5550098983593991
Ni 0.230042496945909 5.360501606587325 6.708875678613674 0.24072184746823705 -0.41995164906926385 0.6850537251540783
Ni 4.169274912551686 2.2692152855830536 1.106755013609483 -0.2591016355270054 -0.10500488154818044 1.3167097514133066
Ni 7.0363533087781525 8.05676461642611 8.648255248454312 -0.596076843603038 1.417109530089308 -0.5426369786163429
Ni 1.5393567839516082 7.492953483621932 6.544401292667017 0.7063748552293576 0.6755113328812818 -0.6663785173420781
Ni 3.6196474747039273 6.413400241651779 3.636111485631473 -0.9271714245285774 0.2632112868200047 0.3621159690077183
Ni 8.436141423364216 5.155088003455427 8.885605310954464 -1.0108068392620464 -0.30002537032456067 0.21438655200781787
Ni 8.296637562004346 1.9116324851249797 0.48719418266589787 -0.050416504779338976 0.7015954315628433 1.101014507896394
Ni 0.06319613799152743 9.089850518326898 10.112529180344845 -0.8372830869068612 -0.9465778540796471 -0.30188119258637686
Ni 8.953892580706132 7.40814757905222 7.936843882724084 0.418622388734879 -1.3485554351689935 -0.1882993680024628
Ni 2.473425311466691 0.22543001859911532 11.145560458355135 -0.02299260424043137 1.6079468340222758 -0.07158645398873478
Ni 2.2359410038119245 2.7928547131549193 10.149454004492812 -0.7733122404818552 -0.08736685675144308 -0.3539025799589905
Ni 4.834223567355813 6.783907610098861 12.364436099269266 0.8313096429322457 0.48246468000182074 0.9576690788968022
Ni 1.390289112611333 3.270943371023403 12.532258281623392 0.16984836038612683 0.11203530603240061 -0.050787000744880274
Ni 1.772480438653063 7.579759178081059 8.97358773363093 0.4935245373604082 0.9264643711592238 0.9967027957604964
P 1.7602780170130106 0.7865432867098856 9.156437966672561 1.404938956165045 0.33968566502866016 -0.07650908810133275
P 3.9575749328692607 3.1596587669919702 6.375264433626332 -0.09241881735305374 2.833121713349379 1.3788468870636834
P 8.779364621421893 7.268069703927796 5.6918612362917695 -0.44850272123407925 -1.041450532289832 -0.4733881716218492
P 9.033236096226048 1.8067823902284756 2.7422155891773548 0.2049130652997439 0.4117477731022329 -0.5494668570539827
P 5.598032205674717 8.475137326207843 3.462394552246831 -0.3402309960091689 0.1945746594882133 -0.2697166920386903
P 8.112082878413448 7.286678859843201 11.037888437725787 1.5260260879870684 1.5974323076441972 -0.8087646677521942
P 7.676776762577348 4.029632176893941 12.678345710531245 0.38398448694603543 -1.827658397787433 0.8085088429876462
P 8.178788832826633 8.106713072228903 1.2210994813374545 -1.3219247199553428 -1.7072490087587244 1.3755664165401988
Ni 2.9054817687324888 4.002236907066235 4.5363881931586745 0.1511798374423461 -0.25888360597892834 0.13048399965589141
Ni 7.700635366952474 9.184692405489793 3.086478492811799 -0.8504013694563742 0.39676338387825866 -1.015063043435239
Ni 1.4847143768806002 2.1910846055979234 1.2466903111214214 0.7300786266042008 1.4087642434484062 0.5025246839764894
Ni 3.8680287855987103 2.539335053238718 12.545849446242206 -2.118486160773126 0.6566031831228691 -1.8141125407821985
Ni 4.891782334682219 6.958935516855454 8.064258273539508 -1.6396045701368729 1.3468016857026806 -0.5799516559064013
Ni 7.931296317438258 9.218031495266597 6.315005949949211 -2.5977081654679326 -2.38386051668272 1.4904998700560006
Ni 0.411790068062403 4.021170103010019 3.162564017303539 -0.4484551558255954 -1.232123285620478 0.8349133011231041
Ni 6.832356223484592 2.3355046171026093 2.6198414095461837 1.3590835883938273 0.8417460077742213 0.42977583424853727
Ni 4.842472700649656 1.6993492333914746 3.397623579717388 -1.0673302282700714 0.8193671258583888 0.8517211167090621
Ni 1.6599459659407445 7.422294240862539 11.616912786947973 1.2535601153380154 -1.6826543501384958 -2.3901872302316964
Ni 0.5772023184340501 0.041764130514625214 1.597501600815053 1.1838245985150901 0.9681720353106551 1.3062191362946278
Ni 4.017901927866667 1.3092791055169037 5.763014871551601 0.6568029578385011 -0.5827551867934673 -0.029583627194387757
Ni 8.91244323193336 3.349314766458185 10.963998052969142 -0.8194002930891694 -0.22635400878233924 0.3013811130215068
Ni 8.121757787832154 0.6228401160307677 12.12048765596269 -1.2564083834200879 0.23120490911673733 -2.055075043506332
Ni 0.6033690136398769 3.2532970769066054 5.710168572066457 -1.3792567209075923 0.4594988152342668 -1.5892988799037855
Ni 5.9955645124885 8.172659847147031 10.540222207171373 -0.1511404995639784 -0.4840351098127341 2.4620004555192563
Ni 5.599328365788227 7.5352823696145865 5.572522848812171 0.5955891053333421 0.37329384000140875 0.7210936494967711
Ni 2.7753658099090477 7.266134722044055 0.32296699296946074 -0.1377044286637306 -1.1657782825363407 0.5818984952201269
Ni 4.917113006614832 7.8859307134653776 1.3408239393651482 0.31107905703556105 -1.4341698280057043 0.8468643028373931
Ni 1.4066855380472456 5.9597164270634 2.188436735651751 -0.5216377506568565 -0.9899683052501401 -1.4715289853804527
Ni 5.999656675132585 3.6913251289810782 0.85327146101073 0.26623773235115433 0.8160270057415624 0.6869314017927652
Ni 0.5525076907857105 7.956238141336817 13.287993694092428 -2.0614310676313465 0.040462478890420636 0.6642517008070624
Ni 4.856036090408894 5.031101030311588 5.927761451122095 -0.06740455469690328 2.848277852264527 0.975749590547597
Ni 5.0464327527971164 1.2793840983274283 11.087090675634661 0.6615625840106735 -0.09581935839417045 -0.3116025336391988
P 1.2720885685456669 4.241924686913971 8.634853878709261 -2.37527406056529 -0.789981216497104 -1.073391603972803
P 4.720059636215081 5.754821287976906 0.9128059466815892 0.9493055374234555 -0.6044038754114945 0.25159478562699894
P 4.214714582816767 3.5056594510071717 10.303956290023308 1.4048523099885093 -0.47029873406324807 0.3745847908986904
P 6.382097974910492 5.572655242309478 7.791203629055393 0.8865503085731056 -0.6537662278947063 0.48353271625501887
P 7.489574209040279 4.247637049699943 3.5978043993053115 -0.6370730835097416 0.2992550678174395 0.4035220427583308
P 0.7532366009359187 1.0765350405629772 12.736937702633849 1.1845082548456762 0.9026626407539358 -0.05179050230873016
P 3.4870132619456653 6.883850813137074 5.980309633781131 1.113173254746115 -0.11198799773423293 -0.3544029166341767
P 2.1001219404890357 7.835760058785981 2.650045643505597 1.4486744493797823 1.715816181602445 0.1554866923478161
Ni 6.9302811200603385 5.755330493735786 0.21784748193507675 -0.28319415769983486 0.6186033068403282 0.7590570161144218
Ni 3.040597202279472 5.336235637605097 11.625611872966935 -0.25860978349225144 -1.0255893968878596 -0.1387477823265804
Ni 6.354860095953714 0.7735131742544913 4.881735242145206 -0.5156303681205119 0.36072963018315296 0.6173720055363884
Ni 5.0950850484864 5.46719410050232 9.97463996415495 0.6315855780326091 -0.2634244312720754 -0.5339564201232094
Ni 0.470337620389689 0.2802325940270074 7.517444428966719 1.711141916055227 1.0705901299682659 0.18999166810322118
Ni 5.930395433638479 6.206236822366643 3.5546320834102225 0.04498273535827737 0.7433642879695133 0.6433218926329308
Ni 6.190608834712311 2.070384324170486 12.808009864972261 1.277335106270426 -0.4365422064380934 0.6400936155036202
Ni 7.300020050725839 5.474128557109603 5.8380569871519645 -0.1008360948824715 0.14258566801543185 -0.895391303903503
Ni 9.118551206554638 4.287753205213105 0.8591236239232317 -1.198316107263046 -0.5639092577315579 -0.006753259563433531
Ni 2.634528755289567 5.135025296555585 6.749716757961749 -1.149353304211098 -1.5016710561814717 -0.17872046606477607
Ni 7.149804351856454 5.497672379742875 11.228245289481952 1.4443395694498544 0.7414763269181811 -1.4163178874259479
Ni 5.934626470580439 3.4343706447640736 4.950625226349656 1.4150397920444728 -2.0966143004006987 -0.6544316293928472
Ni 4.720652166552685 4.434182264893733 2.896554928865009 -0.328982162568227 -1.6428351612590288 -1.032362196835319
Ni 7.038056833498768 3.464950765156405 7.763723182991658 -0.10652491773713267 -0.1835795939292903 -1.635173788059029
Ni 6.556311152452878 3.2338546752039425 10.019600055178032 -0.02633915211516109 -0.9691624242483825 -0.031276184405462266
Ni 3.6722438004528932 8.664071179325102 4.680972076334855 -1.2347257562403315 -0.6598767116678184 -1.3150069097895867
Ni 3.0967579683405924 4.432413932167442 0.36935748926066725 -0.24257278463404675 0.4756908516130969 -0.16630743711240392
Ni 4.212964766663528 9.243556591216237 9.56651432589917 -0.8014452512726455 -1.4411393173450018 -1.542746228955227
Ni 0.14555507743266052 7.797236328555133 3.655677948373572 0.5639863908263965 -0.3820813563860517 0.08457258183575757
Ni 7.231740187603391 7.9125205123654 12.938242478205918 -1.4261662409749372 0.30552161755244156 -0.5852841238629082
Ni 3.4891611844194834 0.41051335035059483 2.2786689219538103 -1.8275018176049105 -1.9188963074585081 -0.0028773215477950445
Ni 1.3112881536928458 5.840191948024648 4.535426257188719 -0.10160536894832824 0.39857806848949423 0.9944304547865519
Ni 5.5854039028545115 4.206002535196669 12.02426628410756 -2.493034442006926 -0.26342520260302377 0.8282438595227285
Ni 9.132012755162101 0.9601861538023265 4.7536561063572815 0.11949690451676839 -0.031414252645223316 -0.23239327299788365
P 3.842614789087372 7.159692201865237 10.437211733807404 -1.0647223583335792 0.9356156986411887 -0.43775448157863966
P 7.544512881280089 1.1173548258520445 9.785150613846184 -0.8301361914494348 0.40768260189392364 0.8068893051063524
P 1.0042000479425457 5.673255783690973 13.428443752335161 2.381698476034395 1.2373074009245788 -1.4229053108354786
P 5.66272911191196 -0.05273057090357967 7.266544864137115 -0.494803918293464 0.10965420739473372 -0.15782099690794757
P 2.4876275229961595 3.98366478429693 2.384877207483543 0.5886121597948766 -0.8832081315737499 0.6680224807034043
P 4.887467973161534 8.979806524689824 13.04549509845568 -0.07841864641921979 1.0686263213736757 -1.3304983205569667
P 1.8852463685285086 0.5967206380862188 5.793123745159805 -0.20558643721768463 0.1807567797685145 -0.41217431911669017
P 7.932046238646789 2.126054401045778 6.210721536359389 -0.17642884181712196 1.0252250715699052 0.3313974568779389
