# total energy = -381169.4959006312 ev
CRYSTAL
PRIMVEC
9.25249548107383 0.00000000000000 0.00000000000000
0.00000000000000 9.25249548107383 0.00000000000000
0.00000000000000 0.00000000000000 13.54196239312603
PRIMCOORD
 96 1
Ni 6.345981131997767 3.9893798545799886 7.827741407596621 0.26884020297100797 -0.3876642497904678 -0.5060638074779994
Ni 3.9340869432067653 7.0394093854894395 0.4577940327364814 0.09392419825398662 0.2987079370647178 -0.4460321482063996
Ni 3.129795292112355 1.5715918263404023 10.063181260243255 -0.9988553233271249 -0.2484287291941915 -0.8237626838229233
Ni 3.972799383164189 6.151567702651352 4.867969967457887 0.2684959322577118 -0.30868330310987485 -1.1311378096443359
Ni 9.238551699428381 8.681468215346987 0.5618670241048139 -0.9040605495427267 -0.7778103854625249 0.545726416174944
Ni 0.9008460648553328 2.7118138210137324 3.0640452106531177 -0.4333447825467182 -0.30643590183659486 1.3253049492814852
Ni 8.282158279581559 7.174514320541616 12.124538191267769 -3.883618157891563 0.303708989823735 0.10335706153211233
Ni 4.288281712329652 0.25453244222102206 2.238215601209546 1.8536399094528593 0.3740759695830719 0.5921271149266706
Ni 3.2914918983972363 1.5640880527253278 5.9032529372112545 0.7664247693334026 -0.4065070935285838 -0.8237868521926394
Ni 4.155813738412242 4.176992699947267 8.701943061996554 -1.2357531690635815 0.209114247865285 0.9608019680988291
Ni 3.204305636036145 2.6337967814054624 3.5141661491121874 0.9562233475892112 -0.3571277717645075 -0.3474159437933823
Ni 8.287941089087626 8.805923528412789 10.355782168755104 -3.0313995327207923 0.33367648272010275 -2.0600110473553683
Ni 0.7911743886356052 1.9905448094360445 0.8994989015527991 -1.681813342294439 -1.2940855862558875 0.3664827306168463
Ni 7.1416031950806795 8.32033407481682 6.5130062502739205 -2.126542455418699 -1.0969704197340076 0.526409718124203
Ni 6.5407831661429885 7.81980184145717 13.45346482574312 -0.7137783467822804 1.1720551166839879 0.14712083688162406
Ni 2.067932679370054 0.5208266563526268 2.41932579294344 -1.397496640954387 -0.2298550799570622 1.3615677882682615
Ni 8.891740421482844 3.987140750739239 7.095621994886507 -0.2158068293941122 -0.6172012842864789 -1.4073925599118602
Ni 7.871634319621962 6.418752006822131 1.0305827021868363 -2.6434149234764277 0.15550340451836445 1.3733966625823895
Ni 7.524961829104569 2.3950639000045397 3.377568786582684 0.8106431157218298 0.5268120957689444 0.0013948234649975978
Ni 0.5711556040458411 5.952204188367744 0.5407111938078133 2.461960860530573 -0.29665311141821815 -0.028247939102099738
Ni 3.513653560877569 6.8479197446292925 11.548490793004554 0.38725801549098465 0.749297879845129 0.09657372006169174
Ni 4.292306547745874 4.129740206911281 6.139275762765253 1.1188600207182473 -1.2284764328965099 0.6847379936858724
Ni 1.9692825754441323 2.597193910355852 7.867324507353279 0.1159904340254067 -0.06876106872479772 0.12420639417729577
Ni 7.272044872547162 6.19079828234052 8.262993586253687 0.7765518304650755 0.3663678023055368 0.8349649802966459
P 7.31988027278136 2.5363587543520127 9.102663078031943 0.9904285327160104 0.04221879945989503 -0.7636047833861043
Ni 1.8951700888143599 3.9596053249951435 1.1810948922622213 0.2974578667077006 1.462741983216442 0.6818259622453999
P 5.295045716098133 6.411895907871736 6.455954439561331 2.659352163531975 0.5983119035811438 1.0537620026673336
Ni 6.640756376883899 6.006877182561917 4.0202970673232326 0.18530120460608734 -0.7810417479156291 -1.7791306253903747
P 5.7544968707266735 2.133939980196121 6.30209099572099 -1.3514677237197823 -0.9278175427530085 1.3816637876871882
P 3.4399944465130727 9.169407802726223 4.380960255847227 0.41952458883417426 0.9666543131145481 0.4057043951216303
P 2.5790590197448213 4.783567780905396 3.691552211524173 -0.9419701801043067 -0.35315130361526276 0.12852867570173349
Ni 0.24957958153526463 4.124568062089053 9.292792602096261 0.2624708091095544 0.6649330431448033 -0.18313479308238784
Ni 8.382159247808099 7.841221367867647 3.5220474245318174 -1.8014439441755945 -1.9308071999634813 -1.0104916220144726
Ni 8.797420485315065 5.06525074506979 11.303976952596605 -0.05611792603949045 -0.14173591842062686 0.7125766131646954
Ni 2.084911008079871 0.28875834725125815 13.693766930331611 1.0509692704135447 -2.4022644731112046 -1.837249641020294
Ni 5.610768610139047 1.253222718669511 4.186741128900216 -1.335324024080384 0.6391788169988347 1.0818577324622851
Ni 5.602117527117969 2.678551100734827 1.88796609604408 -1.137830134062847 0.7653873292078238 -0.1890753269365389
Ni 7.498148097986832 1.7209826139963704 0.9750621794314539 0.6153696303943789 -0.2087769191305243 0.24242366065069215
Ni 2.810325137511508 7.599000295772664 9.015818232744088 0.34139339174838623 -1.0578811670420296 0.5118811854907249
Ni 5.828748144784591 7.451682067043671 2.0969596073419545 -0.25070544104351017 -0.6301007659569664 0.41760268922111304
Ni 8.811345490605678 0.5677275545706438 2.7322396294386864 0.9762540409878413 1.093142047126853 -1.1491967240285759
Ni 5.981331043287909 1.6788560033065634 10.435856038048493 -1.1591852026998553 -1.0932693167333365 0.7552805797911251
Ni 1.03928652443061 7.208656027865444 12.223719388418727 4.574677465809773 0.36060570301077893 -1.0389251947648173
Ni 1.5509032470514919 3.000130824243487 11.0290880956647 -0.4575522330308572 -0.38540939231802007 -0.23491295409594382
Ni 6.096441336191903 4.025927210658341 10.59160143941449 -0.2386860479851309 1.2219918536134309 0.02890511307012441
Ni 8.168176791093149 2.684907564943897 11.15856288738177 0.16775393975094335 -0.3110877987863094 1.1334854839409059
Ni 6.740303972845163 3.56840057503342 5.236039778397252 1.771147864295214 0.9091639322075632 0.9597053926005408
Ni 3.452873919844988 1.6166699830021065 12.286392089971216 -0.34207987629244957 0.6258044525744578 -0.399727351602589
Ni 2.0190147371963203 3.6613603944053708 5.518579523618065 -0.8727008042845228 -0.27292851410776864 0.22901381500268947
Ni 4.392400040924511 8.852620871736192 7.062796917631021 0.7574457057632439 -1.2554884427089799 -0.9471105866546656
Ni 5.853017439719659 5.862047875044335 12.402039952846893 -0.39992044145000155 1.5673647988348556 -1.7033404177329374
Ni 3.1772328350525347 2.0182745375795434 1.0068787347090817 1.9472378347156787 1.7055824196895786 0.6357875319290985
Ni 3.9201341804305234 5.274884529036176 2.115187022905082 0.47707539066544935 -0.15333776432561333 -0.4564911387561944
Ni 9.09760843989888 4.360099580147415 4.387947740229599 -0.893283770642197 0.8696915851445539 0.3706854558442842
Ni 8.41619917768462 4.24183418637691 1.9774516034647847 0.10887670579876087 -0.15874196606032015 -0.33614577019620173
Ni 8.119184828957737 1.588190802746621 7.147718169164776 -1.309196473755397 0.7428431253587208 0.4436302236331263
P 2.470749310819963 9.063041117795404 11.542883780907468 1.1087082769962262 -0.6233824733965264 0.3044533241889273
Ni 4.489699280549815 4.426125385963902 -0.03747908234596992 -0.934140913867875 -0.9196640604079387 -0.28738685562494376
P 6.261681648142105 4.99616236333889 1.9746619761590574 0.030756821566882517 -0.3267571298924502 -0.30113120179422975
Ni 3.281554718542009 6.108543599926204 7.119930150301456 0.6787761196754826 0.12472292880239809 1.598301854733344
P 6.903231160992936 6.440523128050577 10.46051578828141 0.30345496483139994 -0.05669873824362493 -0.40157391789302455
P 3.887408104873781 4.350606520062254 11.074129242345565 -0.3700619633276724 0.26597393716680645 0.28915988836496653
P 1.8457987743753503 4.749111488744439 7.69607284926533 -0.4326960932191257 -1.3479131735993044 0.8572937257008332
Ni 8.083534964914726 0.46463810344310347 5.010539815645257 -0.6118035103096754 1.0534161892921408 -0.7850318429116285
Ni 2.1486607000747684 8.024356005553425 6.885694906821973 -1.909333860581054 -0.5338898285513322 -2.4687205478519094
Ni 5.067286294015926 6.733179551533686 8.846598422604194 -0.00571453388627403 -0.3280246837509641 -0.1182836009349576
Ni 1.4106816821483457 8.222035565708866 4.126926523118008 0.6086742206520743 1.0858403712591171 0.235993074534
Ni 4.339670070724377 1.7376278528786375 8.104999828551732 1.2885708270852452 1.0282481746669452 -0.7634955115017495
Ni 0.2846955766046748 0.3343194841629093 11.85548673356367 1.3031788068064074 2.043852692427951 2.395458248822649
Ni 4.526524211484459 9.028705108072172 9.480484093672821 -0.70034510409551 -0.44132060166334314 1.3793032578748115
Ni 4.852304567818328 9.481031841389235 0.009122960276773482 -0.0061392801285184585 -1.3331635260939556 -0.1359715051330239
Ni 5.766922971793313 8.059978112110807 4.582708138146377 -1.0210940801206672 0.6384920753444552 -0.015330716819799403
Ni 7.289994713253999 0.6951603205949296 12.51098530819266 0.16040289870251084 -0.12081562332819193 -0.2322842582238451
Ni 7.14732123712028 4.246580716419491 13.19520640370115 1.2121190745844093 -1.376758894186403 0.8523435807844095
Ni 5.53424122225954 2.2243923733662405 12.97204824748673 0.970214776772297 1.9736250664599562 -0.28697650756040255
Ni 0.043483951737071334 6.869922178237982 9.56850678160087 -0.3868255559392564 -1.6821720111854384 0.18434912510546314
Ni 1.5566397940815118 6.117444500317943 5.416649410140302 1.0823902079269876 -0.944282116066935 -2.278886231262159
Ni 0.8473962505278835 6.1798248230218045 2.9357353080829514 0.5201017736283042 -0.4397064630986879 -0.21926136360161594
Ni 6.412515825050787 0.19720213140262063 8.452811301229438 1.704357289033226 0.5224098529361907 -0.3293020078014909
Ni -0.10334204424676541 7.688129582127795 5.619440048649587 -0.24467260458586895 -0.09298703115169792 0.6992770678423118
Ni 2.1432017279010402 5.547601825342361 10.100800055266891 -0.05203604266063296 -0.8194915672513952 -0.44799621391130584
Ni 7.533418609726244 5.855756178301733 6.013619475821232 -0.26053579687037065 -0.4986546594981219 0.4537878808924184
Ni 5.144896223834968 4.127658395489096 3.830384976896342 -0.6013985129262676 -0.2797915597761891 -0.8254549839236817
Ni 3.373783590792392 7.409499941382606 3.097602160279692 0.41731626832894575 0.27390167665431536 -1.0714499068653998
Ni 1.8054486427658076 4.735908178080183 12.45133262107662 1.1281460740058635 1.1038884870100796 0.2699655748247028
Ni 0.37464000778778095 6.214604952515103 7.241211857510327 -1.1565991871402337 0.29401438824379045 2.4566152799479433
Ni 0.9164152385447109 0.6863750763933106 6.169122461812734 0.8660904980568569 0.4503060929914051 -0.08301963552634088
Ni 6.1744306183145445 8.533539321934153 11.138859698832693 -1.4688424396872253 -1.4051706125598766 -0.37643187140975815
P 6.606290832227732 0.15342950181500636 2.598215385827004 0.6787393529002762 0.27595547385955055 -0.11004810039904273
Ni 1.1361323917906383 8.815361073526693 9.922696924476153 1.7926798248297189 1.1652123827305416 -1.7883796547924686
P 9.213523699886117 2.433933632380529 5.345540283455601 -0.19912294098052802 0.4688285772756248 -0.5180469479818046
Ni 0.2082005724584022 1.8035981437238657 9.328272220227413 -0.22065824394914255 -1.3436328010563956 -0.17254647604358025
P 2.0620295874262595 7.6456236191343905 1.392018474060841 -1.4414293377815948 -0.4142905941287446 -0.40896892480551505
P 9.479181342347294 3.230055330204766 12.942025751030265 -0.829564892326997 1.6496730101164687 -1.3801692054195327
P 2.382878363813353 0.39820056158978506 8.014837038481677 0.5394045877219743 2.0771083691572874 1.4782200242473833
Ni 8.917869467955063 8.654552706781942 7.807889253874669 0.7907309501789349 -0.203337750392824 1.7355208591202238
