# total energy = -381162.5933882094 ev
CRYSTAL
PRIMVEC
9.34806613838970 0.00000000000000 0.00000000000000

0.00000000000000 9.34806613838970 0.00000000000000

0.00000000000000 0.00000000000000 13.68183971054834

PRIMCOORD
 96 1
Ni 9.04335663517962 1.8103278043667537 11.014688053340636 -0.8648527689950137 -1.459284877905777 0.6558783891417027
Ni 5.5776826159936475 4.80289619311659 6.408341495747879 0.41792356289564153 0.2817939349181986 -0.6111892737644442
Ni 7.736796118388513 3.8163854188515045 11.02589358029586 -0.7853375470775055 -0.6386594541602549 -0.6899267369756634
Ni 3.0291941121256274 0.23888889696171575 12.492997786024139 -1.7528094709973427 0.5513486474577278 1.5580774599956586
Ni 2.6476714862613697 4.85847044668195 12.41031787970216 1.0213583895256475 0.21489383066153958 -0.2512777686072124
Ni 0.7420448210078113 6.310972973004157 5.338201986441405 -0.35955386470749684 -1.587042479769441 -0.9143583319243092
Ni 4.273720861606437 2.2632696560071834 3.142841357351892 0.504685181962918 -1.4494822899930586 -0.8591523761761268
Ni 3.0760840121901927 1.6111952981515674 4.964291490884678 -1.5853599498606954 1.7096308787273393 1.9077618881082437
Ni 8.256324245579162 2.537018426639308 8.801377267531832 0.6991477413532992 0.42099166029800406 0.8906082806925629
Ni 7.32708907292803 6.999495440977744 8.671454104242883 -1.118963121955015 1.1767808042944314 -2.2798681355594543
Ni 3.9919794943723974 6.338689989290328 2.8974032052097067 -0.42827816665708823 0.5495437330385051 1.098494569688018
Ni 1.5089648461766692 3.842335650625674 5.3470817145258 0.9539178393844862 0.00617758956562162 0.16383583564345977
Ni 1.4989717634077255 4.8994897611722426 3.204300218590824 0.5303494194982414 0.9385981783082804 -0.4869566543349033
Ni 0.7750247985651851 9.087769297700902 8.851781105681379 -0.01923416563926365 1.64432537265131 -0.6314379967111512
Ni 5.622029842051522 5.380746905335712 11.923545376480057 -0.5551196844643859 0.6748096788285669 0.5008616944517695
Ni 7.951923165873729 9.059519441641271 10.535686597551486 1.0987735343810174 -0.6266413466534563 1.3791201953297278
Ni 8.636070738865214 6.180193526851193 2.5095500689140846 0.20226302927140652 -0.3000261416555091 -0.6378464713406563
Ni 7.244209117989347 5.739020890557909 4.200174015962901 -1.369670619881054 1.6154829944983211 1.1278005177409869
Ni 6.037336379166446 0.19093144773698806 13.314687196258443 -1.500999226925428 -0.9206372229544855 1.6346816789139587
Ni 1.1294987948766473 8.889431377112807 3.30913036777624 0.9993870274608788 -0.364432790066353 0.7187117795281558
Ni 0.5265990044651381 1.7119487556666961 4.843905224734063 -0.13413650880681413 -1.017027109140145 1.3120210876883855
Ni 5.379288607008346 0.08922074824286944 6.613692335600017 0.3647402940044428 3.040331287992783 0.6379405737163594
Ni 0.047538655858919796 7.1944306654686505 0.4697113475985285 2.741487596681149 0.4537691118393411 1.5045211240357572
Ni 4.9425189098957665 6.203900222737105 0.6314973945338215 -0.7267413347008517 0.47352598275129415 -1.103871517729215
P 1.018668121996765 1.3233215994896261 12.701577447942126 1.216096056954286 0.2712143596301394 -1.2274032544369893
Ni 6.521285766395823 4.6666855205008035 8.693139748216126 0.25991461834660395 -1.775386327856594 -0.0885585630666991
P 6.313646519937663 5.1175334053121935 1.8262382130409744 1.1684015790918005 0.41596849605179975 0.6697119525906853
Ni 2.4075196655558897 6.898526977939991 8.327424702297877 0.11970233565935512 0.38988979668687695 -0.5775098792341279
P 8.258483648871609 7.296399371589919 12.482557865690783 -0.8636142686022223 1.0921814829857963 -2.626361824648883
P 7.196244190311658 3.5839551008281076 5.509156616706707 -0.7138971317483318 0.7993248624955331 1.285839287086695
P 8.648587799508448 4.915026247198421 8.883536486566413 1.3741150288056527 -0.4492902501323811 1.510451116366947
Ni 1.7551461695818393 5.322742154558075 9.968903060907811 -0.7161450472422441 -0.28028444025220767 0.62321355191883
Ni 5.0092360583728 6.000944357445681 9.578519403091558 -1.0639086041830323 0.2514456616436444 -0.21045533527421176
Ni 3.4729748588890086 1.7005534629675922 0.8243367825824479 -0.005432226759164838 1.7759776815836898 -0.6100836994050912
Ni 3.8853741474153987 4.454979865245178 4.260100729151478 -1.2046091393606093 -0.23351170287304301 2.077921609087202
Ni 7.0656236612841115 9.449773161337326 8.54347440391714 -1.4114443613837306 -0.5619328507314775 0.2834764648269441
Ni 1.870220864517007 2.3864210801400754 3.0758007657843005 -0.2147945860795139 0.6309425451319715 -1.5204082275796589
Ni 8.919980857457903 2.930805715359369 6.717167949992898 -0.28298615545408684 0.6170112797628599 -0.9386138620375643
Ni 1.1793333357945497 9.570082773345092 0.8620422076044625 -0.2729305709902977 -0.08403367861315204 0.33898786763068717
Ni 0.8636239004056835 6.2919029179539745 11.918017864935365 -1.286010779667553 -0.49933805871839165 -0.35848120046860843
Ni 3.0675398796824154 2.539701321639015 11.369280770092852 -0.47233530487730263 -0.21135393582908116 1.4453587547429882
Ni 4.763681055403103 0.41353320895658013 11.264381445217548 1.653974722815616 0.23508033291174354 -0.8477441343391852
Ni 0.20734945640592675 2.563193012002303 0.610011799177283 0.6412853218188763 0.31167786696182453 0.3172918707144923
Ni 2.777422645132217 0.48126462261643055 9.974512835435073 -0.0820367027877813 0.8246301740295411 2.6340034003545414
Ni 8.06151989401507 3.6492793874411826 1.9451194405332177 -0.7834639842038765 0.79528385965694 -0.19149833455573473
Ni 8.767354980593039 4.217398762744992 4.172646765420611 2.0861825635444133 -1.0756654876086442 0.41633796357607655
Ni 7.572419722308903 2.0905360887438174 4.001719244547292 -0.08396065928337153 -0.5996542765416512 -0.4859636942940147
Ni 5.979294236124003 3.8624807332889795 3.5982146410112197 0.3503194905934225 0.3719283271124497 -0.8555739147962491
Ni 1.6311814636894544 1.8301550527792225 6.958816396097169 -0.059244130373297975 0.3440837940963558 0.9119162981417197
Ni 6.463654938266228 1.7675510534306589 10.113205419627242 0.04612070561746251 -0.5053760373823554 -5.374609365761685
Ni 6.737104570779919 3.764232557515737 13.258304334966693 -0.2341745332680225 -1.4785630094090987 -1.263466832928766
Ni 8.328640885710636 0.7968300977858003 13.252229961549236 0.023108046772373107 -0.8652145232098066 -2.0403428795024796
Ni 0.11786883192266759 7.146979881432021 9.737297242323349 0.7664065145009574 -0.986682949630649 -0.4721303879553481
Ni 4.136351028781718 9.222876898504964 4.365724529157365 1.4306736419269876 -1.3769039044046998 -1.3560067492407162
Ni 2.859274312788783 7.357283326757486 5.075059531721013 -0.7182919183819179 0.18264576926111123 -0.7825782391648136
Ni 5.1926077249729845 3.5459832559193627 10.53764314780737 0.7991340866409657 0.5653447046265038 1.1642924420194336
P 6.533615865715034 1.681202965931378 11.974565252192257 1.5162342987076274 1.0394669262009 4.399031267794947
Ni 5.291444828916894 6.8961432210587175 4.863797909609939 0.2559810876201527 -0.3713547139971669 0.39928897851358974
P 2.5675679069844035 6.54660967773452 1.4422439584731541 -1.2429671703135174 -0.05805448094057098 -1.322857516182257
Ni 5.494783964922561 3.1038571168735705 1.1801288562282608 0.03453685743460503 -1.3788111487297416 1.894091332599686
P 9.217576544968956 1.2269430369565977 2.9359723915486997 0.8738251476969531 0.09752220001789011 -2.0383153075494893
P 4.818778557592208 7.706461643566041 12.505283949432206 -0.9651473895517184 -0.09643873714572423 0.5974636966482356
P 4.467618450749024 1.8928057924587915 8.617930816402039 0.32548520515856205 0.11612593116200647 0.10563017383700518
Ni 4.3760821865081505 7.585179832673364 6.767735379300964 -1.7383729838570385 -2.0799669216520047 2.53160458897064
Ni 3.0567709074187825 0.23549554893072747 7.967947620955603 0.5808721108381415 -0.9099321778321555 -3.8352996732918334
Ni 7.635874395681764 6.10711034529123 10.629421526962851 0.6044475841652364 -1.2653439953468208 1.869940960605728
Ni 8.372118741611812 0.33816068598397536 6.919946202026502 1.651787742466626 0.3350679637509907 -2.2131336103463823
Ni 3.223035612871008 7.15484160510712 10.675515906593708 0.33625478497024025 0.34238712312022324 -0.1239780802165736
Ni 1.0956027068315686 4.937555086742999 0.7668630019650312 -0.0815060270952919 0.4597980916422404 -0.12896859145262948
Ni 6.084964776460895 7.683979544352469 10.809666265418779 -0.33868344901639097 0.1783949644045573 0.9426160412184218
Ni 1.126937424737554 2.325191246523069 9.422587115211375 1.7730795341002883 0.6813991591206264 -0.7004348355958387
Ni 6.6203752681271615 9.417335371619615 4.662538718334009 0.17793396560773872 -1.0993931702428872 -0.7640899505526388
Ni 2.525604437807802 7.3627986858161165 12.919378042360849 1.534600459919641 -0.416490944214173 2.6076331378911286
Ni 3.5830857306714083 4.198403492224418 1.9246518495859757 -1.3642826160962633 0.07911335849339923 -1.2796110467887962
Ni 0.6512218142180786 3.75193985046133 11.741727358482493 0.8926111700552047 0.22474269843116132 0.5656072142592711
Ni 5.46785218619728 2.182184529779105 5.182202392484574 -0.7010657843116184 -0.22702300982490578 0.6948737965682936
Ni 5.972984291438282 7.469964916745179 2.800919009528606 1.2506773944735814 0.6189799734534566 -0.8450413906960415
Ni 6.53908448444266 2.2135753360822967 7.342975176630127 -1.2279059051050207 0.34026699145342687 0.012857058468326243
Ni 1.412109532267386 4.520360240255459 7.762446277237627 -0.7779849633671763 -0.685922758022593 0.5388911384206655
Ni 8.111167473608951 5.346149712325554 6.921888730183084 -0.20511438267727253 0.2037992634102748 -1.943365496244466
Ni 4.863920369277173 8.552097060181007 9.175534552036265 -0.6893850055395805 0.02961088088789739 -1.2571113230243833
Ni 3.8653599376789085 3.3161984406308687 7.0160059955020735 -0.9358815507080657 -0.3684701933605202 -0.24757409450338008
Ni 1.2932301743883827 8.51821032020213 11.188160117833888 -1.1649748127984387 1.144995027242402 0.5251887012329084
Ni 8.193271539052946 8.61156010928601 2.480312122256999 0.8529776148239825 -1.3817226659495816 0.43296940148517044
Ni 8.57319564559682 7.849066393463359 4.585072228532365 -0.6086371967665518 0.010369516159782141 1.2027625730701736
Ni 7.181539682177375 7.650382594425825 0.6430712352973659 -1.5033836679972044 -0.34838833500898064 -0.1375239372218083
Ni 0.13094677653796408 7.402911237884907 7.258981867006897 -0.02170885243200132 0.5666091731612242 0.07963452110419189
Ni 3.3526932910798446 3.8221625237637658 9.501422161904857 -0.9447947940372955 -0.14198043033126515 -2.201660576709776
P 2.5622769015145983 5.558846262598492 6.335444340705317 1.301274390694843 0.2422179723977893 -0.2003789248748162
Ni 8.306093350033656 5.185792984712404 12.890181227195049 1.3626314536460853 0.45360147591322525 0.7884686365073195
P 1.753613086724864 9.272440345503034 5.866718279284382 -0.10430194194388488 -0.4226708477726398 -0.2617614417473556
Ni 3.3535159209055387 9.03025999443192 1.697369511619508 -1.1506005463546378 -2.41070514767939 0.9028773278679032
P 5.341868298005464 0.04444444594636572 2.001365820058434 1.7023474576920488 1.0273472601192306 0.15055274538130844
P 4.140258520453765 3.6609083817953136 13.294615963318128 0.053787735244417045 -0.38911306642185245 -0.37735644010655656
P 6.573092749282152 7.678239831705012 6.650332081075109 1.2952112152198985 -0.45805154126477887 -0.269440041338536
Ni 7.548778462886398 1.135219811391702 1.5771608587267127 -2.4089904789811283 2.037808286006084 0.43047748830125215
