# total energy = -340865.66651713947 ev
CRYSTAL
PRIMVEC
9.33908292898172 0.00000000000000 0.00000000000000
0.00000000000000 9.33908292898172 0.00000000000000
0.00000000000000 0.00000000000000 13.66869187553154
PRIMCOORD
 96 1
Ni 6.5354248319884976 0.5208415866155873 2.187947264467493 0.1859727767518152 0.08449082075522868 -0.019598748067533988
Ni 8.645693340620268 4.324705147805002 0.9655537712467012 -0.48780049039243734 -0.3545597539270152 0.15906695349990668
Ni 8.215581878177474 4.451669979677975 5.571181334071092 -1.3455264185346827 0.7163394226412373 0.3417610595004501
Ni 4.0879687356573 1.8696563770852257 10.130346025615511 0.5837016098671367 0.368531642726075 -1.5295338440300108
Ni 0.288018250198285 0.5635454770328259 1.9829441220675796 1.1472118323880631 -2.8140017046904764 0.14221491493957444
Ni 5.7609346880219165 8.057723360108415 0.7818082493182302 -0.24643843823704012 -0.049390891728302036 -0.5561514681630099
Ni 3.125921790035336 4.359222398161935 9.335443448178921 0.10413944822409163 -0.5648770209614659 -0.1450061045314664
Ni 7.379061545663611 5.950760886819272 7.606558803109442 -0.9876609972732023 -0.4418746743946003 -0.7842286302840429
Ni 4.088108821900632 2.178770681620977 3.830555593993838 0.9397482327523236 0.1348708158696774 0.5169514009247806
Ni 4.774185868159127 6.139980045228857 2.1600495560621273 0.031160484763204398 -0.5590637567137985 -0.8601635910494605
Ni 4.451231042782202 0.9006312687287645 7.311971442007188 0.5475760677891731 -0.6611928593760805 -0.09426872607759894
Ni 4.650088134733009 8.65424794054639 11.09602494057292 0.29470061567753764 2.1668846066811716 0.352372002247077
Ni 6.715108786768638 2.5696113005164487 9.368070468159164 0.8373913303499514 -0.5161787844248142 -0.7753300422428325
Ni 8.05009332938828 7.7459474169493605 1.8694938770429608 -0.1513443880446684 0.1983320696481165 -0.1319832099092372
Ni 9.079717878793462 2.3862010516636847 10.408858957249596 -0.04033340951172408 -0.14054266944347407 -1.7332629163239828
Ni 6.596829301982231 4.012649032159284 11.374360429632118 0.6255326869703098 -0.38137353168574967 1.4465538034923537
Ni 2.3415135400408693 8.711982150964834 5.1944035061895475 1.3691052342958872 -1.041421993044742 -2.047856928491338
Ni 5.36660125212604 2.672294516878592 1.9438516550034326 -0.09629064160363417 0.25030769138445924 -0.36871984747748116
Ni 2.4125279263271575 4.235731705123587 2.319877686712431 0.6978547335734885 1.4341050362060397 -0.6975906812788244
Ni 8.98635506715432 7.379547177973827 8.618096350683922 0.1538905515052898 -1.6957152970875118 0.13144379246599944
Ni 4.347866073369178 4.995690236115228 7.251814673487397 1.5868673876441575 -2.1734925989159923 0.5351082743394656
Ni 6.734422010182636 8.379239966720467 7.748726728017062 0.5815519105139856 -0.5742075543337724 0.22100328599338712
Ni 3.834281888066462 0.8851162503256332 1.4491277475946092 0.1927383776104229 2.5660949094380263 -1.14086763533759
Ni 4.465940098332031 8.817793960094718 3.1181703512376484 0.6736233718299495 0.17607017292612256 1.6903635458572952
P 9.334366651921846 0.5607699015982802 6.532377489241888 -0.6265642135586178 0.3256006476905038 1.13828419088113
P 6.133452026289599 0.3849859478324948 9.241033725347949 -1.1562261200715314 -0.16447321211714255 0.22506177233347693
P 7.856998451579852 5.934492204427015 11.689123945407292 -1.2325544596206257 -0.2838209926505563 -1.4327726905478615
P 2.496178091761966 0.5286976231416297 10.891486884500868 -0.2217206237753859 0.23406808959714528 0.30455179744000455
P 2.307593990988818 -0.036774506691151676 2.7519998537011796 -1.0710405872421234 -0.5005655033675895 0.9001702133493852
P 1.0470139217440908 4.752126954375827 9.833995445663856 0.29776588486642264 -0.009747566305067084 0.7129671637348947
P 0.8817289649618725 6.1116546068271855 5.6015529655336955 -0.050915555902944575 -0.4906155912437293 0.2532181801630349
P 5.459777282107406 0.4199122500199568 12.983699210275471 0.06856772176706902 -2.2318571548978143 1.2038897446960817
Ni 8.766839923853532 0.03016336991418384 11.414286876798233 -3.4853280529561332 2.441650431107995 3.9671841528396774
Ni 0.4724557981688146 6.693395419052223 11.454295507893772 -1.3684256917303592 0.6249171648734979 -0.38088630763668596
Ni 1.7439243041535715 2.556994199533706 11.772420159600617 1.174454984374732 -0.08314896201535357 -0.5532355800677956
Ni 2.428395028155196 0.5609529476229004 13.00786502115848 0.07783140645718209 -0.5571583121609694 0.9638075876943724
Ni 9.435275442535119 4.277159876818219 11.909244261279277 -1.6406021581634518 0.5240214203976846 -0.3653275339664805
Ni 8.81050013635858 7.66965644883091 6.0321164395883065 -1.300091169020019 0.16610817661740424 0.041041491322342215
Ni 0.2695931735670096 4.848431577124933 7.7456653766461185 1.3190273438028897 0.7074333784008591 -1.5952550974872204
Ni 1.5383243943570646 4.423708765508966 13.6725191451784 0.2811935823300383 0.22820211773467153 2.5937872331469713
Ni 7.975203223703149 0.38552574682346635 0.16137001323524133 1.1099945999078173 -0.9660719582485168 0.03498140117119137
Ni 6.8954838336825475 7.947298044031471 12.093921823680049 -0.4544165156153529 -0.08398534187371987 0.9337889298450951
Ni 9.04205335750301 2.5112607106273472 8.074861511117616 -1.06067312796487 0.4607036341756453 -1.5844078703600712
Ni 0.7639042935121487 2.209869827640617 0.3114005120269252 -0.6695903394111565 -0.2530137774617126 0.2607201449670349
Ni 3.2704440977392166 8.086086154841642 1.084656963143899 -0.43548265482532744 -1.4574714788461223 -0.132156759372624
Ni 8.104484148132538 5.508499277538174 3.3207537372610787 -0.19644513703804878 -0.6562956791847795 -0.8157914926919886
Ni 8.94477747013347 0.2966298185300297 8.838463218344168 -0.806394881968437 1.552953508505532 -1.2583950748328134
Ni 1.9164638605237942 1.7212116545680567 9.042195311562919 -0.5176137170991278 0.6525755500207149 -0.4086339100635995
Ni 2.8372507379431253 7.094434316462243 3.4457816433429187 -0.6609074669251779 -1.0068342277675435 -0.5720357434934341
Ni 5.993291070294779 4.717665738516226 9.235948594715007 -2.1929219112851976 1.2307816839909191 -0.8228663972608988
Ni 8.274427439459682 4.744795774308134 9.543849752383506 -0.46039767289945227 0.09752991332737396 1.6702611186804655
Ni 6.330684117817759 1.2590391205680784 11.204117353744248 1.5054917154791427 -0.6042177275426175 0.18669988472582685
Ni 5.193417299036492 2.8892040560534125 5.953111533982378 -0.32970489966686445 -0.09525191592647467 -0.0845844089102995
Ni 4.356896966522629 6.493146803750988 11.313781534565754 0.44230224885032215 -1.5373386847864103 0.2377810196723582
Ni 4.8175005345972925 4.064182091539576 -0.06269139561580693 -0.5608707280155503 1.865704296816561 0.07519319750338664
Ni 8.35234340800078 2.2867958533955033 2.0563044859755295 -1.3368898259056072 1.1786700508973442 1.1022805190930112
P 6.451989465460131 4.41816135027303 1.481850026220319 0.6982213728842878 0.2960568725951159 0.9373519646060051
P 0.8027137863647658 5.712548899575142 1.9758641633295948 -0.9685921535672094 0.35145051887407214 0.4703074758139965
P 0.461124688899857 8.461274470815516 13.557921126866752 0.35808319369924135 1.0647748088380695 0.11157919233158847
P 9.294890348550968 3.1424332885827004 4.051441714662701 -1.6548255008516857 -0.4860937921139757 -2.5067314798780442
P 3.794460038628701 6.366378092618678 -0.2484083979420995 1.7262206647652205 -1.0925833464099055 1.5858955106491912
P 4.417666378879924 4.217669918816686 11.184981572905134 0.009319734739029112 -0.7428107294588885 -0.6371792700703027
P 3.6109190426154942 8.080818912092369 7.018982931895495 1.0897186232676008 1.1057083138276378 0.45268410630527844
P 8.583233554260104 2.240016387205601 12.344345595709546 -1.057148145530747 -0.3710636651193093 2.031298252801708
Ni 3.3442975652236946 8.959822732667295 9.176530547651717 0.057722551522448984 -0.8645066985095047 -1.6522407708436448
Ni 4.403844536204529 2.1634732638491543 12.362853790178532 -1.4221072404142152 0.4157543231584646 0.957272614789332
Ni 2.3928224614318303 6.398663302165193 7.528647504109789 -0.5701472682214697 -2.688810578002408 -0.2835556548043116
Ni 2.4965423159946285 1.6079939527073686 5.572876377615406 0.5435949716542381 0.1690762581067927 -0.21705921374397458
Ni 7.703277147230521 8.894281048953832 4.202671351697305 -0.04909855729886383 0.3250000379920274 -0.6950967112123771
Ni 5.645419571770588 4.550019861579725 3.9342455634913924 0.7982485987122189 -0.021053221125873423 -0.06011573434497389
Ni 1.4408150299153055 8.289855604391947 7.121866938539747 -1.7680735962452647 2.2952165929910664 2.1877552794825936
Ni 0.33726416817911437 7.290844568696189 3.646205833402463 0.6495323923190168 0.15852856449793343 0.4031798289275637
Ni 7.07676477163667 1.0014485363297296 6.502004923870995 0.24415015642349563 0.3601575597297668 -0.6265775832950564
Ni 6.655488081606662 2.34962920307122 3.8782045288006866 0.8302287511632412 -0.801398200084794 0.8930438867172491
Ni 0.4952179448936398 0.6801093722925642 4.496001672242728 -0.46295026411797685 0.6343155753692624 -0.8802894152650581
Ni 3.977664827657912 6.488869503787925 5.624297368001033 0.23959030496695513 0.46964053165395886 -1.8875900411460589
Ni 9.213434867595025 6.400820630312501 13.73170464907776 0.9371550181038506 0.4056923109367722 0.17951262294876827
Ni 6.943832265797765 5.853718476521951 13.537758980818161 -1.975201666918456 0.2098161590283161 0.9883575091195945
Ni 2.5009036677036893 4.436690090724371 5.792409265173685 -0.6465604541748865 0.5822584496627069 2.4977585869554724
Ni 4.311658449009375 6.59024524854564 8.887411219580846 0.53982393464758 0.9999375006477103 0.06217107421210583
Ni 6.380769619350289 7.335466706738783 9.861564418351536 0.5754589102423702 -0.6182577505754513 -0.24072441857139834
Ni 5.923416052120921 8.117923088409494 5.542558912833557 -0.47762123586659033 -2.3350854041615463 0.3946165127385849
Ni 2.3169797692920424 5.22636558346811 11.845315437180705 1.990690249472359 -0.26756236469984884 -2.206109356509749
Ni 6.635184915406453 2.1334574514446136 13.497628007736784 -0.01679341740825495 2.229487626224373 0.7105197306356666
Ni 2.318670143294912 7.492157839446745 12.62259983474761 -1.2019058814968333 1.441289469769621 -0.7735559810615451
Ni 1.9283805302898784 2.2414079105560294 3.1608032646249318 -1.731442575285792 -1.3316879699896937 -0.17436990240556421
Ni 2.022172939741903 6.731741693393555 9.800957506036506 0.6380305623270044 0.879243490499047 -0.3056162341487769
Ni 0.711788475359597 3.1034146002733745 5.9087845109590695 0.24097175869551402 -1.6525963544108504 1.6798729307386169
P 3.0274038046415885 2.653905862670583 7.298261668326459 0.6317881809617184 1.1813604532453137 1.3069819826025812
P 6.8894601252192835 3.0869964925548983 7.251555046983088 0.6647070431769261 1.0492620579144512 0.204089540957184
P 3.539222903278325 4.57372245395145 4.121288715587892 1.3197845336838885 0.15761479443441243 -2.383501590681405
P 2.918304638334853 2.8142859331196135 0.5359914468777673 0.777516251260874 -0.765131761553592 -0.04935618183562467
P 6.155062664094238 7.500189450731097 3.1175829229239436 1.6970011057784706 0.1462176083410643 -0.3640440392683666
P 0.6025716366084625 8.549528804114493 10.248334131015788 5.028441435442791 -3.4033931658535383 -3.277711986902929
P 5.443443226134928 0.6467847228205281 4.948791229664348 -0.1809221017017852 3.183021085686247 -0.7994901844288038
P 6.173301892976027 5.807303234564713 5.709905005209329 0.2591664273266698 -0.10603203726111417 0.5150693534107194
