# total energy = -381163.40561740496 ev
CRYSTAL
PRIMVEC
9.28949589548139 0.00000000000000 0.00000000000000
0.00000000000000 9.28949589548139 0.00000000000000
0.00000000000000 0.00000000000000 13.59611623968058
PRIMCOORD
 96 1
Ni 8.76321800321073 1.2241883367404744 2.874110550622601 0.7495637319120059 -0.8613198161410908 -0.6970157826119608
Ni 9.07733301450622 0.36753147009809745 5.995465676957485 3.191574117462581 -1.8752184069545834 -0.267374674169075
Ni 7.261087951856157 8.519331580233505 10.825676507538242 0.5794703453946084 0.5750809580776611 -0.43945038122382385
Ni 8.082353697364283 8.017401542665693 8.468110229290636 0.17385388200109414 0.09615977245272472 -0.519131439295235
Ni 2.260004277460071 8.807027265447362 1.0366018320650627 -0.6078625233840563 -1.1254867820061456 0.7261767204466332
Ni 7.195569137913201 0.9132308250705625 4.7670431880271344 1.4002297236148336 1.6680751667727403 -2.664460431292818
Ni 7.987099207335775 5.386133275691352 2.512317202085905 -0.5051708633500848 1.5204375381556976 1.2396887566725618
Ni 2.2955830464096696 6.9542187472919155 13.180876751203224 -0.23657131563497322 1.6258489111136771 -0.2952117509860012
Ni 5.2996666486984365 7.757741555804288 1.8078213478501943 0.13442138703708462 0.9544523717317175 -1.9811691973558005
Ni 4.359225961452869 0.9723965528295415 1.7024784653727925 1.341753581755812 -0.39421336376289523 -0.6821733182824897
Ni 2.9925832064768603 6.273140783041855 1.7784126620171292 -0.8106086629394685 -0.2458008046530412 1.3233167152068628
Ni 0.566590502097988 1.3210684885356088 11.093927420124084 0.9077724511766754 -0.3432160467794218 -1.0848836637728025
Ni 2.101079583154657 1.4076837474614725 13.398604882931053 1.171845057555711 -2.9090384192823513 0.08502381044056326
Ni 1.8059987487724107 6.5861689233276595 4.978408015125598 1.7445554585186667 0.2162148634658083 -3.344413344885221
Ni 6.775600321870797 8.409195317918506 5.958144198594063 -1.1995324961686502 -1.5364686234766312 1.249779051029028
Ni 5.3537872512833875 1.1074379534092584 5.990489294052446 -0.7022564621856099 -0.5088187445153172 -0.8783839707122291
Ni 1.0792536231238585 5.0833142912999625 3.1705866672754035 -0.1367083832990484 -3.567979763620094 0.2976422148043648
Ni 3.871536720960706 0.8392632146890535 7.750439083148602 -0.4955554517475078 -0.10270374421882959 -0.11913669296387225
Ni 6.119418206389648 4.554639795297192 4.272511304921845 -0.20257001898886406 1.2740968018387862 0.2714365029432745
Ni 1.1035549441609733 5.619559726387308 11.785942836740007 -0.9344396760552165 -1.1132403605386247 1.0181933615341043
Ni 8.708112714069992 7.765154573460105 4.8678992440286475 0.18363075888219987 -1.7310126868372253 -0.9827972414229977
Ni 3.104103603667443 1.4280834802586837 4.992018055435795 -0.5208509930895029 0.03735787182316792 0.5143389030025981
Ni 3.9191082290001042 6.07131719708912 10.670422093027081 -0.4750354774172851 -0.10362497048151831 0.8820943296842808
Ni 3.175474799970254 4.036453140063115 3.5748135037193762 0.607296109357625 0.18780237376138625 -0.49058062424073584
P 1.9018477665327134 0.3482083898651835 6.696155624760128 0.3154483897478503 0.014305360879078589 -0.5235853613015305
Ni 6.125855826985489 6.52557354216363 9.755974344005502 0.6179469042032518 -0.4743045127885315 -1.533430865091572
P 6.415929623126525 6.808717374430933 3.252408546363671 1.9004766673007398 -0.18280929142216903 1.536144150257677
Ni 0.3991594164800031 5.8482578237163345 0.7768368739010122 0.13955459449859192 -0.004946545371997933 -0.4938533814547366
P 3.363977248932462 1.8033512424667617 11.633937887862936 -1.1554774148309648 -4.253562107584133 -0.6570042752160299
P 0.7278830888851909 2.8546527727004523 3.64420789531397 3.0615747707525918 -0.585963666428436 -0.6281392713552215
P 1.757303211740088 6.3225794797389225 10.056176477427412 0.3848211239147179 0.872585104642265 -2.637820974328418
Ni 4.491870672113787 6.512949117358798 0.13942511365212323 0.39588483792804724 0.07561537264246979 -1.763538941599705
Ni 7.73704455914118 1.9161907480622644 10.961691447278774 -0.7777995868292475 -0.521642635752863 0.26730653993530096
Ni 8.782865286847388 5.787736758518779 9.3053854918765 -0.19787312773382698 0.4939564826915041 0.5317064477467682
Ni 7.684976935130083 7.815317850830297 1.3849681433590042 1.3990974097826034 0.19915173733593444 0.429777376910434
Ni 1.6827085603914513 3.848387297403944 5.475863302562071 -1.0729151785570166 0.15144337551637788 -1.1571275488398782
Ni 1.2536639069433664 3.747540530898241 10.388316826391257 0.1550596321127265 -0.20455285374684773 -1.0527348469543998
Ni 6.8223822227664055 3.115018761243364 1.6263129602828044 -1.6318321252803059 0.6017085879675185 -0.3876863612776549
Ni 0.8513507066361077 8.835007226824958 12.453226828662846 -0.26996377505248986 -0.7322501803342227 1.4722005575261807
Ni 2.224769219855416 2.984166923273639 1.3611749577426577 -0.19160374978534744 2.3830740162256827 1.006533665807989
Ni 4.885550215015888 5.55144914311356 6.20906091199976 0.3101969115409238 0.15751246452859324 0.5209019009320964
Ni 7.1834556353778805 3.553882411761874 6.0708694433911115 -2.438791107282329 -0.812357270199459 0.5402401962493922
Ni 2.162325229025337 0.6886953508136812 9.406038107919787 -0.43114160424781234 -0.752087269664808 0.31900551097148927
Ni 5.400151124867577 5.241226430562163 2.1882131959466795 -0.3368278838648909 0.29084113272213136 -1.6865187181899082
Ni 7.602328290914788 6.355482873895444 6.753639953777624 -0.4315792060058632 0.06294394782238837 1.0513886173391507
Ni 2.543018056786043 4.785976109436057 13.30533555815699 1.1514580092589264 -1.6961235882695243 0.6120091985625783
Ni 5.75453610049636 1.7021979225993518 9.669557880289956 -0.36773742895955375 0.804315373731589 -0.1761218520996644
Ni 3.809427151979762 8.371043358629734 5.571579480532301 -1.7322959244250231 1.1356752925033733 -0.8036008641630678
Ni 4.137457827997576 2.6284535497441266 13.522765497069344 -1.5188321413417907 -2.0595410496974855 0.9168882974350144
Ni 5.119571193443639 8.538207835717992 10.749959685095844 -1.0571013514532115 0.6986962556381774 1.2964414880825736
Ni 6.006365042390531 6.283870150701591 12.021278278824774 -0.1016922722351797 -0.2768234782868007 -0.8054021790378645
Ni 1.3708601860734284 -0.1358235761268597 4.238956717109092 0.2535940754452149 -1.2405138236770186 0.6069986327218643
Ni 3.4567235750924605 2.6263727026828443 9.276806358019204 -0.10348587380049275 -0.45694725245700657 0.7929477553245956
Ni 5.9996394474246015 9.071350579205033 8.304494339601527 -0.8916045831675612 -0.9170752166348399 0.5411861051024293
Ni 1.8383633521719933 2.3943768343415184 7.453907229520944 -0.2191101827357323 0.2126366591962467 0.12393874233820593
Ni 3.890431555436811 8.948682787043296 12.797901494322172 0.9665861788807739 1.0005782195555026 0.9090405192558215
P 3.5050939797714578 8.327076174964342 2.7666468762519374 -1.3171578946943185 0.42348665880571584 1.4240970171507346
Ni 1.218605349759088 7.941376308962426 7.922701635537001 -1.4731325824221466 0.9437396132999039 1.6061817717020532
P 8.053314733464427 0.8601320670246341 9.067072766384854 0.17200114506307154 -0.07862407756180653 1.9498346489085774
Ni 8.440751735182682 6.5499027316881735 12.128809766514847 -1.29270336119638 0.6773987797119818 0.4102061396467258
P 3.0024579405221403 4.466510348554413 6.881769040525645 1.025736206878369 0.16248420671157177 0.5762045301591431
P 5.539344930074049 4.138340330099459 10.195605306877859 1.6392446156942928 0.7061552830193839 -0.4524215966725112
P 0.5236832499044367 6.4058505201734395 6.414770294049525 -2.77494356234675 0.10398621047567898 2.3293240761977367
Ni 7.054378091107731 5.744995788300215 0.3919647019757043 0.7635852430020785 0.04136673587224488 0.015851365209959795
Ni 8.772126629691842 3.2108492000120483 8.61368313126935 -0.6816498416788519 -1.1058741499815408 0.15675707441980744
Ni 0.03426523424216444 8.051809835143322 10.451783590709939 2.8147491243794622 -0.19132221398918664 -0.9179257375605934
Ni 4.001459609349502 7.8634745971056805 8.995883644199905 -1.2407938168112824 -0.3793012225377532 -0.9693326312776596
Ni 4.385524524088982 3.302164943817415 5.515631634121663 -0.12802293970990855 0.6774103496762076 1.7266700935978134
Ni 9.02452223083038 2.5367011996357225 5.774393326738308 1.8987339735780204 0.2838950404216014 -0.0032956400321362597
Ni 6.528973497629831 4.527152177197489 7.995033365706493 -0.26226280686380643 0.3703913216426331 1.9439082561218137
Ni 8.422107717093427 1.7344882100324601 13.520562957612958 -0.8905226629572921 0.3418104246811468 -0.8361044932177277
Ni 1.0155462608637154 4.802641464917933 7.920812152089391 1.3053385334618874 0.44721511277090725 -0.5382810156404924
Ni 4.330753656797381 6.476562162273791 4.0298891823242675 -0.6007305403249654 0.04009378269709224 -0.1989344791188058
Ni 7.701419342712534 4.2010537163080075 10.783827328917369 -0.0923725374961506 0.9551941349937485 -0.009460888302583707
Ni 0.9462559116221861 7.07297566171794 2.7450831696298215 -0.8936416682022479 4.0516006687135455 -0.6895688394156124
Ni 3.918913149588109 3.6559368127227856 11.417569738321587 -0.1732393883455468 3.3153323683588645 -0.047555381181460035
Ni 6.432399899196405 8.364884422908172 12.950150756939026 -0.21180850686799652 -0.27658385147216885 1.1703080520858942
Ni 5.286271195741433 4.346239246311475 13.408598522522691 1.5425492824530724 1.3686159533642945 -0.10877411878262558
Ni 5.972216855795564 1.3370650003192142 12.773618752276677 0.10957450319673386 0.2302641424700228 -0.6111735900351603
Ni 2.712235512448155 8.158861984849633 11.077911400399278 -1.1557252691757127 -0.29240822009893513 -1.4702043530317583
Ni 5.516464901895756 8.726570942243061 3.9425883586076775 0.15388489507833497 0.8677614580013765 -0.27331237980974865
Ni 4.064228732532906 4.723801513984449 8.710134108358096 0.10522985307479296 1.4944591118140647 -0.5057457620169483
Ni 6.754531745375316 0.8601664381591284 1.4734106461105563 0.03765637690019321 -1.6089678190876224 0.17522376576542725
Ni 0.9957131873108712 2.9243239912701626 12.618433080034503 -1.6812682684242464 4.14799749687774 -0.5698037688391219
Ni 5.421461228254099 2.320915501481616 3.7516576354409197 0.4636794289745176 -1.0279442702732813 -0.9609752604518998
Ni 7.466162861342147 1.0614177911700124 7.095310396492226 -1.2933661915913597 2.914823144284928 1.3471819518602348
Ni 2.7786925654678494 6.789395223147599 7.063100927672659 2.0967803936649183 -2.1362889932825015 -0.0009191693801597074
Ni 2.434888325565853 1.2167938980762756 2.717415335311418 -1.7146224184046601 0.2685851495374084 0.9491417581520815
P 4.926405417585166 7.5476131605980425 7.056384622202539 1.580354269115988 -0.41908904395865243 0.9557183829283348
Ni 8.976328326571759 3.6114308383004547 1.4285163707633968 2.126557110706718 -0.14654748087665728 -0.6273319449625777
P 0.03392245184680146 9.381461817806718 0.8207148784066348 -0.10813057166135571 -1.2468770468908847 1.3880709767651127
Ni 8.087843789387575 3.3660023590188883 3.7667493503326996 -2.3490601211740834 -0.8192737948136342 -0.5931987507242945
P 7.782925378943286 3.8508768822808346 12.932747815489895 -0.15652336114244655 0.016379212688971793 0.8020736288852638
P 5.584027404916756 2.6283327862986057 7.409516444846648 -0.13541357574702484 -0.14356037322387533 0.9724848037533961
P 4.515196596090926 3.35057250647965 2.040899442453303 -0.5067875730179013 -1.4983167949972582 -0.7733204680119714
Ni 8.524747356290325 5.0962452694665 5.163138928789231 1.81538755083988 0.7996105120567519 -1.0711974245349616
