# total energy = -340871.13258985966 ev
CRYSTAL
PRIMVEC
9.20397471615957 0.00000000000000 0.00000000000000

0.00000000000000 9.20397471615957 0.00000000000000

0.00000000000000 0.00000000000000 13.47094734911774

PRIMCOORD
 96 1
Ni 1.3836702908017877 6.0195465357738245 0.278561967480626 0.28124166195915434 -0.7004718594813614 0.12049757786714085
Ni 3.8076566065815265 8.350499078092973 6.463926386049134 0.605042537436758 3.0190217278817295 -1.312161727031308
Ni 4.283861039216816 2.0182198993982974 6.9357460452696404 0.6504682738697249 -2.1373786268022545 -0.8166047326219031
Ni 0.8169180781973696 5.240586568491454 6.305548075779994 0.23042406508665478 0.05781485412593914 -1.0027353751078214
Ni 5.71653328984292 4.505612394973249 7.3674759530989435 -0.3194845074904369 1.5696366255881677 0.275962415838086
Ni 1.8538829360881617 2.8360666586148766 0.7873917282506367 0.015472641714302387 1.1973809970432863 0.93500660430228
Ni 3.4155212763195086 4.63669539869562 0.36711064420523093 0.7411053167320075 -0.852176459078926 0.48966068352962766
Ni 3.575826898832678 4.702733915175611 9.527354222830834 -0.6340558939499725 1.0691855363112555 0.6639004881152308
Ni 7.038960334838735 2.2787936192679834 4.731319618936384 -0.273169169363665 0.3098842653965115 -0.971574633234301
Ni 4.744998565722805 5.823759591862695 12.352238972920059 -0.9649594419106284 -0.7440181195034283 -0.24145795430331318
Ni 0.42364605709419806 1.080555801152239 4.363832532177282 -1.270219321161251 -1.393230409478865 0.06890016540582328
Ni 6.404171422907247 4.077765643952714 1.0579637255352656 -1.0156381992124186 1.499879768609004 -0.827181479696485
Ni 7.0142752754381315 3.1270503099758367 12.513324172066797 0.18311319581583302 -1.4401859522927971 -1.8104299497242882
Ni 5.021716056729201 7.709184548296074 4.006138474203504 0.9550766355792777 -0.09912759683179702 1.1352232925676191
Ni 6.803384609500012 6.685371249457304 2.968296477550267 0.4152850968315299 -2.191184873989433 -0.5771789782572705
Ni 2.4787775755156805 6.380103029792936 11.375850993087067 -0.08247070500140637 0.05417957136619702 0.7031982572735889
Ni 8.685256831806383 4.3732224268829105 13.553254550516453 1.296844122837631 -0.20447263532821558 1.1711688574242927
Ni 3.477510044053688 0.6891448236772562 13.450645882464347 0.8028848119326495 -0.019542698018617955 0.6695546010772147
Ni 8.942461897037507 6.894172613201562 12.329553937161421 0.020468809377313137 -0.7323717935137516 -1.6097957143055563
Ni 3.6841300658598617 3.3004439841175137 2.9352118710918735 -1.4425603660622446 -0.2617308456197363 -1.4035253636469698
Ni 6.844618414911907 8.253148640628323 1.2120741528647856 -0.1150427254001567 0.42123951464275194 -0.26251477497361236
Ni 1.0163948954543978 0.7797331011338424 1.0735386910526787 -0.3832689489362496 -1.4844660051570953 0.4892210248890478
Ni 2.274559791033726 4.98678697379658 4.31640077038941 0.16978845368246887 0.91818696164178 -0.27515560366607456
Ni 6.505516385271172 2.424538554245077 7.717088001132501 0.6401044141368976 -1.0797018624615469 0.5273998499516143
P 6.62969640817682 5.8851685092082695 9.078690842859386 -0.9398449062311879 -0.9071142487673861 0.031223219680339774
P 5.2390771166861985 3.3391282886144333 5.380956382405926 -0.46877689810208295 0.6780526112458968 1.0718826235274443
P 1.6825233402938125 0.992584213623912 9.212107054097812 -0.2621599627373549 0.5308016765443117 0.25645288505024866
P 5.7187422437042725 6.347511756363578 1.0177405165149378 0.20885070979125323 -0.34835979576389037 -0.6811857575582397
P 3.0029163069423 6.862455717342321 5.3015316055261446 -1.2780755839808762 -1.4847848219490944 -0.43543277542399844
P 6.387355761637707 2.218231467569261 10.375633003077299 -0.8961816610152823 0.2740461726519796 -0.048741688180077354
P 2.214807589084166 3.635873627963752 8.34351418190389 0.36850721724604274 -1.5661430106126124 -1.6193982703923273
P 4.105395975168453 8.113211413511701 12.28799615184986 -1.3483636308731617 -0.42153647705788044 -0.8867660241283373
Ni 8.517155442957527 6.538963628321805 10.111413588938941 -1.4219180072215447 -1.6426430998528807 -0.9206577917797758
Ni 6.037264186536748 7.0155914437805205 6.502183626132858 0.4310672993664511 0.4185653102446985 1.4718899682642974
Ni 0.6227860088873701 7.869968777479201 5.137590413116168 1.538171465100351 0.552972556214396 0.19294226609111284
Ni 6.687101596648695 8.020122416204575 9.316897984485447 0.3851790214747689 0.2752157674800486 -0.4868617806282518
Ni 3.564533622216518 6.955590734521558 0.8980824062429646 -0.48133982236875816 2.9571573862767653 -2.2973364675475465
Ni 2.1409825102429116 1.45724686233364 3.086652225441485 1.7697268155779715 -0.015750320855721263 -0.9196110956828163
Ni 8.193580518167208 9.064074011079335 12.801602775345044 -0.4746464695089826 2.4796773039737294 1.7478603545221834
Ni 7.847308592451504 3.906967490598125 10.213025466561113 1.065869327453829 0.630193839891405 -1.2203720586218207
Ni 4.161816338377142 2.235534939483182 9.22313985823782 0.25533316962350866 -0.36806524461261775 1.0491535573610449
Ni 8.277990167594107 2.209220776609831 1.0074247019824258 -0.15334084964940686 0.0006322342673602015 0.7135443763946033
Ni 6.031557722394924 0.20169129350303308 5.943300811659505 -0.1496068365282714 0.7449897393880782 0.5897257045740295
Ni 7.875813301237361 0.6061212927983569 8.563602379482212 0.06896110055074575 -0.647897170708439 -0.4445756182655311
Ni 1.2126880579587531 0.5538832155671608 6.969100328178607 1.0588232192403249 0.36460094021310113 0.001828825678622657
Ni 4.678932437319548 2.6078633167884138 11.903683279449353 1.6129905670937703 -0.262542028667122 -0.12067395554400506
Ni 4.731293847808002 0.019689142084180454 2.0506961231473766 1.1560325160034866 0.3937973592713992 0.32717621970773975
Ni 6.200192941760272 2.1459434524565304 2.50578479766303 -0.44233361630888984 -1.5156228903758735 -1.4827125128010978
Ni 4.776328894656308 5.611644797326409 5.298069990745918 -0.8735004173676828 -1.0014896756261784 -0.8634294062849258
Ni 0.7672755217532616 5.082821242918841 8.890959217362653 0.3282290864522864 0.9546084376936076 -0.4966206597872286
Ni 0.8163897700655297 3.3680931961214062 3.2515497107939386 -1.1335690447936477 0.09518506724428123 -0.7397675717571904
Ni 9.006392703374791 5.512987395493795 2.221439973052874 0.08370689140135261 0.08947361868180076 -0.014548587238136235
Ni 8.493353965101463 1.5966502589337697 10.6139478312041 0.45329268642355486 -0.26611406228909656 1.4502237961447735
Ni 6.137449448123465 7.532928438109062 12.441200908096228 2.061811848009533 1.0818446198361626 0.39604424632404694
Ni 7.187678153554231 4.722844599288333 5.103521901792031 1.3865301146405542 0.6244456245537181 0.9420930788354163
Ni 6.187924043855348 1.2426377907289115 0.03939209012999435 -0.9939221476915655 -0.7656611516945008 0.6007390249653976
P 0.37531414660782536 1.7566429463165805 12.773353937048126 -0.04151483141433495 0.6808317166529306 -1.2738746585256513
P 9.003760366690013 7.5899194477319325 0.7608447048244018 0.4305047419947618 0.33239607334578236 3.07498024552522
P 8.775188865886658 6.279485181408372 4.2897018813852075 -0.050539403510448444 -1.2386155782130408 -0.4290425556269385
P 2.4651925092683684 1.516244338380572 5.333700416529519 0.6711944506734827 -0.45941653993310555 0.12219450595358955
P 2.7002067921673323 8.889097253337022 1.8233331041856693 -0.8398796439894439 -0.6989405104384996 0.3237695080190359
P 3.1418318928980473 4.190035723955908 11.759827000023718 0.1793485865670782 1.4204316524840055 -1.6682883112248106
P 6.392141828337302 0.24888191116104078 3.650976429593301 0.6249541887590205 -0.07026876361857576 -0.5406932246264107
P 7.629321662233791 3.9111552989602707 2.787192634035031 1.4171663514691724 -0.9173639515198524 0.8521702884313387
Ni 5.593273664379502 0.13318703227530931 11.084541521031557 -0.012751129018081267 1.497896162520072 -0.4244143128263077
Ni 3.028926738659715 8.637138453526607 4.036340395872834 -1.8950976623770137 0.6049507490539001 0.1462960269874835
Ni 1.5542935686423531 7.104078453876496 2.4697365114406566 -0.05624391009439346 0.4417062671375361 0.7679538043834194
Ni 5.5855515298391945 4.209041931137954 3.4076914552784596 1.4864678660784723 0.789871430392117 1.038944735148843
Ni 7.094708807914596 5.377974294693101 12.279751231562365 -0.6046411882332813 0.6882220955797308 -0.335410434692074
Ni 0.0065477074040229885 2.479486281546197 8.36436670635505 1.5676990422458226 0.18035003124839907 0.03145616162675228
Ni 1.154831874740186 7.493793138865449 7.600941207102634 0.6956196735953827 -1.4634333528565118 0.1334335692025186
Ni 4.495432799262187 1.4932712182225156 4.33679585731178 -0.11098475328069918 -0.22567806576123714 0.2159814072987635
Ni 2.5121051668988224 2.2399620511803073 12.065456015485438 -3.391317722746243 0.9484614442556053 0.3970804008980452
Ni 3.00644142914604 0.4699190385023026 10.980990365998606 0.41369589796753914 -2.0716846270385547 -1.2383530685802737
Ni 3.073087407937902 3.685878821000098 6.180187182955964 -0.7971224555275757 1.4970638964267635 0.30226402984709233
Ni 3.855802596784569 6.478383068674238 7.598261009750861 0.11578628843440059 -2.12287709075197 0.41607262572983184
Ni 3.222670400249093 8.710218010439656 8.622847442441104 0.3425395895376875 1.2825385048482363 0.9646251984996613
Ni 0.8470288805199184 2.8761683751728304 5.685318930987138 -0.5394855774715547 1.4472467157943205 1.1620483831802633
Ni 7.386244697740894 7.844887947178439 4.824458317705389 0.9806431711944724 1.0845329653016034 0.584424346965774
Ni 1.4963729576028302 8.473767907530814 12.776762168776703 0.8726524675450906 -0.39899278742940963 -0.5411310834947777
Ni 8.204109864906318 6.074871626026259 7.474853200299243 -1.1513497658158365 0.3087198127747651 0.7992713835497783
Ni 4.2272750044685266 5.835614310918616 2.6259049474510023 -0.3387605821112295 -0.671658791904411 1.6054227820488416
Ni 1.0416782131924511 3.3119857680430758 10.40991688740292 1.354160697170913 -0.4621341959745847 0.7616558871898496
Ni 4.78783386268418 7.0454491368064565 10.087220021772488 -1.2564225244874747 -0.6690038707800672 0.49806253444007775
Ni 0.9511939406468367 8.057739059668508 9.989421350753473 1.7593632129554604 1.9506088080704407 0.302455319922292
Ni 8.303586420462517 1.3168126205982131 6.23152511148866 -0.3721975216134364 -1.1473385877739142 1.5974101961570104
Ni 5.677637293934287 4.376996056396053 10.45689029126456 -1.2149783984100753 0.30556121254112534 -0.32808587600620265
Ni 8.538978066312795 0.03477537655976955 2.5087613629912013 -0.5629252965517337 -0.356822838929579 0.6714459045626565
P 2.162262099107265 4.7700333761514555 2.067103127952566 -1.332332802662544 0.6955186292411442 0.8209555533914313
P 2.5356581374454836 6.787332878107523 9.262097520775082 0.1573232313359226 -1.5079252646213 -0.20941840936926515
P 8.478507954358296 8.29117946294126 6.952207353523922 -1.022479133393652 0.7491335863531228 -0.49088812817882554
P 0.038524155341971636 4.817894043147406 11.589002155143302 0.14874114609386643 0.9283896132063946 -0.5825171026407322
P 8.212936476377303 3.8123138176392093 7.088641547975417 -0.2488071955795328 0.6513344785247621 -1.2865134303355843
P 8.292992645902453 8.659577743168171 10.8400443832853 -1.2556036281306053 -1.2556144267638827 -2.0899777689207877
P 5.377661359562743 0.27690985407182345 8.144777364190414 -0.23867859178596312 0.07209321842182424 -0.052818686462928394
P 4.466559931499437 2.7306627435307167 0.7472688425515119 0.6942994121220624 -1.528976171754328 0.597586338269029
