# total energy = -381170.35854558216 ev
CRYSTAL
PRIMVEC
9.18252509786705 0.00000000000000 0.00000000000000

0.00000000000000 9.18252509786705 0.00000000000000

0.00000000000000 0.00000000000000 13.43955366458687

PRIMCOORD
 96 1
Ni 0.32817702582928376 7.568494448554362 10.614022205893898 2.2223654133572954 0.14628368569230937 1.007123733983504
Ni 6.135726663673438 7.721126383800278 8.595279834382222 -0.43773648385651065 -0.16410965813013673 -1.78193621315997
Ni 7.314716997321576 8.48276176083296 10.26869314108941 0.4587963898506034 0.06962315961477687 0.5132605823367548
Ni 7.259796313606872 4.677110070122243 10.83646061659 1.2186491623934432 -0.6497105697680939 -2.1183753462268746
Ni 8.422772323162308 0.7832060471738306 1.6118463111930026 -0.6251827598300587 -1.5791759325371708 0.3472969017170147
Ni 8.663473858392797 7.505860443602347 0.6506709867612208 0.06840728492980477 -1.4111455991963893 2.279959666831996
Ni 3.0985972439572866 0.12168682504385 5.702926699532797 -0.1835399989406065 -0.016974680181125607 -0.7303485924361357
Ni 2.4614309971290567 8.7383481695464 12.025161470724393 -0.8616463462425742 0.5539899417353169 -1.011068577563865
Ni 6.297137093089435 1.2361882836329054 7.055389627808039 1.087298186751566 -0.8751672635471444 1.957568270107409
Ni 4.39004596474035 3.6871879320410286 13.134234220366427 -2.6839686765290747 0.18978186608526024 0.6152220490729211
Ni 3.647886723831877 0.9355983185098726 3.419385091691733 -0.8270930337477368 0.9198720626536868 0.07414984384053681
Ni 1.35573558028593 1.6468308142668455 2.408462518289414 -0.6518204170222451 -1.1678662754136209 -0.7115700262770519
Ni 5.192084453016085 1.3668923485041822 9.535833961787066 -0.12001086803870945 -0.22860115294530306 -0.7210206301669905
Ni 7.076476378866801 1.6576110989485147 11.224325893260668 0.6057069104936342 -0.6113340268724247 0.23047625848082887
Ni 3.550304027654621 5.392832820742363 11.22869310228503 0.9860653706513082 -0.9426445804635121 -0.3539992534378548
Ni 4.159647222876839 1.4470190641193827 11.993565319479798 0.33587117637857644 -0.27039880570737945 -0.2472015416553098
Ni 4.036178987928182 8.880502843444969 0.26975779998194194 0.2778776305829279 -2.43505863682309 -0.49356901744509835
Ni 4.408916054195912 8.57703874790851 10.563342012354658 1.344035435811453 -0.2879350148189299 0.3985119911382492
Ni 8.98530300449428 3.34457873122522 11.348896949495755 1.4485461513320341 -0.2518801780779017 0.15312847652828465
Ni 8.565349393223872 6.25149994243535 6.676474558530235 -0.7810690016091387 0.23417761859181602 0.40905608520268266
Ni 6.281682903038967 8.593181627355166 12.271535970074417 -1.7182900970642343 0.05061139439896445 1.1321086581980373
Ni 3.748435375675384 6.230242396406335 1.5510589120753009 0.4259788290999503 0.484318702491424 0.31562553875566285
Ni 1.3745873046909274 5.277059541980451 10.216318771635546 -0.17178542950783962 -0.757567833163405 1.0608518196345795
Ni 1.457569785668989 5.998199982517255 7.882728727994679 -0.1043479646904719 0.9815764816420192 0.45952066961113763
P 3.6501272600008092 3.1389911726750572 5.435278125608248 -0.7436928749535257 -1.8990833864976393 2.7363983550837006
Ni 1.665278507559412 1.9747571571559166 5.794880507711873 0.39546420545086086 1.7420098092786775 1.7228854297444005
P 2.3643533398423386 8.481531302445102 2.0033533773907157 0.4901543353365946 1.4550842095608683 -1.9843959318232145
Ni 9.05515447431835 8.771772561574744 8.55473347574476 -1.241426822409591 -0.2724986256592017 0.7848243548865128
P 4.968985818752172 2.7124536907770893 1.8339073200999922 0.7771719805475776 -0.5424197203992143 -0.0014439315353781583
P 7.522802202748582 8.177663175796214 2.7410646030523402 -0.3952438619099387 -0.3111813869413802 -0.6621485384211305
P 7.743531745489607 4.168783835532939 5.772651450507967 -1.4253252331308808 0.16269606561206174 1.4647009067150258
Ni 7.654626535704326 0.17828056486502844 4.7396329665183385 -2.2315391094367634 0.1637741291675889 -1.6441896184043943
Ni 8.707770360355635 2.1626316244361137 4.140888241977196 0.5245024737991612 1.112220918135175 -1.0136018855086801
Ni 6.070016512751781 0.9944399405202101 0.7074649056335579 -0.3256728956893359 0.22393485781788527 -0.37648509324519674
Ni 5.635655519313112 6.372856196569029 10.420627204413856 -0.11856950760649258 0.5478848572788435 -0.21469071351179803
Ni 3.86729398293222 2.3750601643217477 7.465927477653758 0.7117145222747162 -2.1013232758405938 -0.5364035961121213
Ni 2.6162759209680573 3.9462912479376717 8.208771734948307 -0.4150444415756336 1.4901226892222401 0.7613033889464372
Ni 8.936057121404168 8.841164905134688 6.32169759346257 0.8061118035103795 -1.9497878548310419 2.2700850880307613
Ni 6.885112551979248 5.339546626527945 8.303212170973888 -2.6436270394872343 -0.4492635106595037 -0.5418422506291894
Ni 2.604871224567178 7.348233214602745 10.088105925873414 -0.47012107083480326 -0.5787159837270872 -0.03952402623655128
Ni 3.1213974542337644 3.0771468648973386 10.380375604837964 -0.9093811904246919 0.021137039088931338 -0.2432718675836004
Ni 3.1988704200423186 1.6451136820390158 0.8719202604332363 0.6080689829679076 1.4127365978325928 0.2870803801281185
Ni 2.237101904477287 5.003934509977412 5.911494905789663 2.780612330596753 -1.3603573128999282 0.7724684044243212
Ni 5.146346294583892 8.68717395614696 4.850805800113713 1.1013436091010385 -2.4641005325813947 0.0012433854887978586
Ni 5.9341977812981455 4.722361554714462 1.4728274696784112 -0.8921350017497345 -0.8169577450859479 1.0522041712619103
Ni 6.277458941409011 6.932925961125289 0.7896567711847954 -0.24797338682432776 0.8091477621232258 0.6343330588707592
Ni 0.8424324169935052 2.3218382477843083 8.166222667546732 0.16549059763806337 -1.3670555508557103 2.391952549662235
Ni 1.728004337764252 0.2682197269971212 7.545382032418279 1.281665872435296 -0.7217680498559763 -0.746898783485333
Ni 0.2873910032819499 0.6549656538358517 10.564699189591412 0.4261284673039371 2.402603087397546 0.06760252964032229
Ni 5.3088953571349204 3.2639010640930692 10.919220880456225 0.42535713635555134 1.3215519099969562 -0.8575343809567296
Ni 5.866926601078462 3.5803217028031527 6.76619701306566 -0.4466237590438115 1.013002047141152 -1.1152003124784728
Ni 7.144023034844959 3.097449428296973 8.719542357767816 0.004936260959352789 -0.4963164982832485 0.6033430382471481
Ni 2.8205136483016915 7.620320621248861 3.8281901990166425 1.7289684027136867 0.4588190155584227 1.0987005150512368
Ni 2.451752615481289 6.456499819367433 13.003104086322043 -0.58660361400528 0.8021325071476573 -0.5088454839881946
Ni 0.9754321131854101 0.28098343713981294 4.661656798324303 0.61404396960442 -1.0982117483402762 -2.680568906818906
Ni 2.5330363292820857 0.7196133865823214 9.647651408657271 0.6941803700456948 0.41999895736743154 0.4814002432930483
P 0.41084913745279644 3.6425333115921723 2.3663018717072877 0.6338244946654568 0.21602485894218923 -0.20617007763529654
Ni 8.461605222582051 1.9990633015787262 6.432882364340811 -0.5982923631971181 0.27445729204746927 0.04516991166841899
P 1.9495419427301384 1.9127016512967001 11.784203743038521 -0.8868099899923954 -0.8507921771368897 0.38867006534716286
Ni 8.723848962125313 -0.33015769653272165 12.454381168257385 -0.7220763251250144 2.170017238772882 -0.7831472242944061
P 4.066426226208777 6.486710327546898 5.260765150866634 0.13557812634934713 -0.19624279121925556 -1.113738897441598
P 9.036706781025783 4.209407327382773 9.055235280540835 0.13169447502422482 -0.613078263257041 0.8462819479713618
P 2.858253827212816 7.573636662712568 8.03669212940656 -0.22214279891446906 2.5974438560629522 -0.21838513164424972
Ni 6.040476328917941 6.259139803470401 6.237915314532401 0.5654542336211745 -0.39106196261810716 -1.0400971035857312
Ni 2.2156147953162084 3.0619130554536516 3.8275180381659624 -0.03194518544802886 0.7737863519047964 0.9331479538269865
Ni 4.592539012270306 4.114258000405382 4.0217862978003724 -1.5498031358020081 1.681476013559678 -2.245974825246119
Ni 2.0556368398442832 5.401216466325297 3.6964953396673828 1.1619555663561407 1.1997140160518371 -2.85539440870465
Ni 0.35012142474943114 4.039558157232147 6.931181281321612 0.21305497768058793 0.6610697035346551 0.9349302425383899
Ni 1.2018180915004628 0.5734037095189948 0.2893404533994272 0.5177088479160955 -0.624115494907809 0.3763267132904616
Ni 6.6885330507312295 3.830068025436916 4.031705261610542 1.3597397339205874 -0.06580018632426088 0.07552769802466992
Ni 5.396643568734606 1.6847730087341852 5.119435067738435 -1.0340231294775095 2.0365085933580542 -0.60016772584296
Ni 1.2227726141951554 5.5655836688822635 1.2357897620356444 -0.9911610400066608 -0.6490379691811016 1.2336497495673333
Ni 3.9984479915423403 5.97241545152396 7.420300427777485 0.6635145655307219 -1.2921598299880843 0.43091534716961916
Ni 4.746254485499558 8.440393589179449 2.381851560020694 1.571621003008048 -0.8169199498694768 0.18874853972473946
Ni 2.025095760754648 3.684506634658535 13.22559667391731 -0.7414480447834069 0.1767646278899859 -1.4836082851424899
Ni 9.066669361022619 2.586662276931956 0.25699408983925015 0.06833915069603069 -0.10270297288788117 -0.3459812682293848
Ni 5.75305410505003 6.249424691721503 3.5856191016386343 0.03345339456243916 0.7493323326274901 -0.15241036741533753
Ni 7.821096536550987 6.820357383686973 11.88854845083382 -0.7445513662990789 -2.145021230949177 0.8975160635559898
Ni 1.2996119857592163 7.016174735336543 5.455907586907939 -0.49073823286452267 1.011790286221238 0.38556571539022627
Ni 0.3459103186548711 4.5870937747777765 4.794628028687832 -1.0769327843568421 -0.13227117346330122 -1.664425742945611
Ni 8.246458655212793 6.935772543962867 4.488206241757876 -1.858645847307883 0.38255881024310245 0.8162833447267426
Ni 8.579619037512897 6.2843550178961785 9.15019912050752 0.11400477105394559 1.141315521508286 0.2804780443202524
Ni 6.4292644493795015 1.1903123873214752 3.018201480351309 -1.0150396463964713 -0.5737372995655732 0.5018358854395809
Ni 5.9865749055095945 5.219879957046249 12.447244509607815 -1.2345462932396738 1.9589098717369682 1.732907332756777
Ni 3.1567409940461535 3.8975504037380975 1.8490410400181003 -0.0240621831555263 0.6299328729205345 0.29997086293754144
Ni 4.4740844361259 9.091480544335967 7.541001049605992 -0.9376116460252949 -0.6887167758279623 0.6120292531672363
Ni 7.530377786106654 2.9643119942258305 2.071855015998256 -0.12209603270251232 0.22900918701699916 -1.3432075405935189
Ni 0.6242271504526425 7.4936017723501935 3.049743454696738 0.39083184888517203 0.45333973761140633 -1.7748196567198464
P 0.5163040125547499 5.700869813869514 12.36506182658186 -0.6045440005337847 -0.723596875534599 0.2226912152187713
Ni 8.049475122852344 4.7276966019036015 0.3910194741052117 0.9174698809700973 1.2304546396688034 -1.0602828345049868
P 6.858602601488636 8.19406316595078 6.5384501845037395 -0.008918128425236253 0.4621259684444687 -0.2356066377288588
Ni 8.28055337158676 5.293670730216515 2.8826765897067133 -0.32712222654135276 0.10766134533442104 -1.4258181136068993
P 4.514349809489716 6.87722476276157 12.64594792895368 1.1674245598905122 0.8504317084736773 -0.17997207908369003
P 4.747530856513827 4.645577278302096 9.218350904901795 -0.14429545161768698 -0.10253045186575889 0.09313024159778155
P 7.387681343216416 1.0722710248147824 9.136894559625688 0.6753925479152304 -0.7340610082907165 -0.4100292477492293
Ni 6.388787877934188 3.0631802439426377 12.959882858069788 3.2897007838336894 -1.4027591749049066 1.0952084427375783
