# total energy = -381165.50432708685 ev
CRYSTAL
PRIMVEC
9.27686362382281 0.00000000000000 0.00000000000000

0.00000000000000 9.27686362382281 0.00000000000000

0.00000000000000 0.00000000000000 13.57762763321386

PRIMCOORD
 96 1
Ni 7.861687521253407 5.504946652062361 9.68748842648472 0.8747227198105579 -1.045710850228083 -0.07750153392158911
Ni 3.4772097582530788 5.428162050222945 7.61322063912631 1.5307715730918539 0.12898170407875206 -0.34625534782637785
Ni 4.892256181060283 8.698219439371984 11.412838522585023 0.41634439133397977 -2.655192889947963 0.2456915327686865
Ni 3.6431264676765345 6.452828766614245 10.102420280687046 0.945059874773224 -0.026335809681051415 0.31352751857605354
Ni 5.960505603678667 1.0276353128137496 9.075598548830323 1.8371519391001652 0.32186483479715533 -0.8173853195416696
Ni 6.863617573434489 8.802519219301976 7.029858045405268 0.31669126101601586 -0.1521188043168477 0.2101429462401155
Ni 8.555708257366776 9.0315742638854 2.7300947474378225 -0.023542563206630424 0.6626650730462329 -0.0862499695381805
Ni 2.9243179514357145 2.340385758276115 6.501633419485694 0.5509472982542511 -0.7047002957404122 0.24272987903720133
Ni 1.3709442122061921 4.376982057033644 7.461069867925581 -1.0685700142144436 -0.5319103362274582 2.0149331811801234
Ni 7.560421368693904 6.5604774943833135 5.271704031150518 0.14548432971946557 0.6744870053818255 -0.08068558807652557
Ni 0.45608402210852783 6.78959747701348 10.047594015509933 0.9651000812535508 0.6277476923437576 -0.07038909124652394
Ni 3.212800585651047 0.7390766083150925 8.512996648652404 -0.6647648929980552 0.6250202661102655 -2.004519442045967
Ni 8.731059537295328 5.823829569016337 7.31134870735935 -1.6079666315166177 -0.11573820880528456 1.7478050758042158
Ni 0.5891689827860764 2.233358580382997 5.928996735713514 -0.9213306494770842 -2.7426548775163733 0.7130694936407138
Ni 7.668496832198699 1.318678361443444 4.846642769342967 0.9884703805483752 -0.009627238677118904 -0.18972684447760874
Ni 5.63737388309506 8.839635951446411 0.6536339094723272 0.19321531724684143 1.4193155366016912 -0.18706832380883912
Ni 0.5059685019286425 3.3029624251191243 11.079357532723654 0.5947110736037629 -0.7527683548922326 -1.5482514750441723
Ni 3.9398562338279834 4.990145648090549 12.37011531712758 0.79942667818072 -0.540939536309262 1.2220849275478696
Ni 2.617123882895132 8.682569370107384 10.348365711227824 -0.7178388900048992 -1.151318655467585 2.396701120090814
Ni 3.6438222324630463 3.7636607592917968 10.441820837352058 -0.7472381691026228 -0.025861698258110296 -0.9244339709927564
Ni 6.491142214191482 2.382586211793996 6.6613067995581865 -0.24425737142532125 -0.7523040136613044 1.8364873089329725
Ni 1.2096381041013529 4.227002999653213 13.207868070524889 0.7013246943999599 -0.8005139977076278 1.6662607392718205
Ni 8.394448533581038 1.0534992091443391 7.775405266234918 -0.06111460792313346 1.1675847396174601 -0.8133492017990831
Ni 5.687877129731979 4.826000819656743 6.376108175135189 0.8091297644010969 -1.0020062102512808 0.6783467454475479
P 8.555058876899365 3.18892193817797 12.715869597823014 -1.451832792503106 -0.8615226761805163 1.6073431390000057
Ni 6.594347324190696 0.9297180151920232 11.752265054468733 0.9064246788995292 -0.13482890688814844 0.5441963526836627
P 2.0502889497560766 5.227531316384472 9.294415646501825 -0.03744168978622584 -0.09979968319815716 -0.2546729103316904
Ni 4.768790400477852 8.23984959801817 8.569180119006402 1.9227465344425339 -0.6382745600170104 0.7725182838256501
P 0.7271122370462397 7.535457328153869 12.168636677935945 0.26231320048576756 0.28794504212125893 0.0362317286385247
P 4.29904712408053 7.439896353942461 1.4970696696458614 -1.0539597205004365 -0.6940664701756498 0.3335517842167804
P 2.3621492807981967 1.5188359752270888 10.320803221131765 -4.305241281125978 2.1445802867570163 0.9229285900918233
Ni 5.598364670731312 5.392668769247035 3.9199295303422925 -1.5026282778884186 -1.1969997024444676 -0.9797003476652288
Ni 5.553242005110083 5.512201159569721 1.1599651367763377 -1.2276030291526214 0.9885256592663426 0.9752525963065204
Ni 3.1770753830796337 7.911216697189211 5.972472758006667 -1.3322698106350928 -0.8292051949947332 0.4284378321634041
Ni 8.294341896097754 0.5548325267285401 10.078863540388529 0.8674156446261836 1.5981789560022348 0.8075526497219642
Ni 2.6790747794861214 5.48020525625401 1.275269132569797 2.378181721130388 1.5850120796029736 -0.5694870089296514
Ni 1.0983157382595037 4.191175751579778 2.0057145467866184 -2.5103449082609153 -0.7562838242446588 1.6102549133301622
Ni 5.779356283862519 4.535597874630639 9.000107141807437 -1.1521439795823578 -1.026891917749367 0.24686395581023293
Ni 6.179782833795651 0.6751256198844783 2.686035210410383 1.3370304652485296 0.3657242551842669 0.28991733535628134
Ni 5.397529845888796 7.604143227878289 5.840064080701607 0.879683406249943 0.19396839336278207 -0.049039936146786506
Ni 7.887569971311637 2.8599921777067663 9.353628012893104 -0.5752789330210801 0.3522413902064837 0.5153529460894093
Ni 4.309093967597756 2.8341375582399966 8.302746734718813 0.5715600894085964 0.30438261885199186 0.12020010123138009
Ni 8.499583231254844 8.107932594495578 8.672709919239324 -3.424465413142806 -3.235215765411932 -1.376562719015197
Ni 9.513794922120828 6.63796713787306 2.744024886150166 -0.860424558020331 -0.8316076337886388 1.312217519969908
Ni 7.82573039708649 2.432356586189123 2.5382287945366313 1.0179737893241307 -0.1829581582952075 1.4532067900324974
Ni 8.896224820749351 8.862902325907358 5.829513503478946 -0.10426414672741398 0.3208461637246539 0.1382405036728587
Ni 0.5362945697567262 0.6859266724302837 11.911055277105547 0.6010303309535713 -0.6099859974849624 -0.9764486734971506
Ni 6.391286052031344 6.481290184814479 8.035117562684807 0.3145549313993034 1.5104179491361664 -0.4567348793358844
Ni 3.0180421066107317 4.485243057814842 3.4602312420894323 1.375384896657012 -0.20407308589695178 -0.261436197197453
Ni 8.569447292684425 4.189023519173502 5.697268098977121 -0.5375513365633194 -1.0304935190576963 0.5356278942883614
Ni 1.7940712479072407 3.9913149974383786 5.413658601326516 0.5925832286274827 3.6214129437385694 -2.1677916918764732
Ni 4.269722957545023 1.163903165467993 10.477176820743427 1.9410615307016374 2.9965091486015103 1.5020014429376973
Ni 7.713276253858583 4.828765325075149 3.58840410337421 2.4682500359733943 0.5221319166844557 -2.6526467264873412
Ni 5.962472298808541 6.155301190174263 10.723787402420113 -0.9242925603188855 1.0212164646311443 -0.2999713771581737
Ni 5.901847993743834 3.04142908030134 10.987749430186014 -0.23794402761278377 -0.9659223200445299 -1.2537064111078924
Ni 0.832355474026742 0.9861677315376608 0.5579486252857299 0.528542962417122 0.7683284141140186 1.4134629344756562
P 1.489947821291129 0.7584040263980015 2.79230725158854 -0.20402937714320993 0.2335225015063204 -0.07001602417782135
Ni 8.794077273225636 5.29840655597045 12.134665730312921 -1.1382510236503494 1.177734169346636 -0.8914634296040066
P 4.269611635179181 5.893591584943896 5.349503521891859 -4.117642538734967 0.5323050005627155 0.2550727168732704
Ni 3.5471480345932203 0.4148854698832235 4.675700782788134 -0.7231420473853676 1.820808207634819 0.49372122675224644
P 7.055342518005613 8.640322532270401 4.457372575839954 -0.7654852882382688 -1.1956218482603345 -0.3313429494909197
P 6.809552011090631 8.35729469398132 10.061497251317201 -1.898227723365563 -0.6057387921728341 0.08188886435600735
P 0.4827383072365946 5.913481180974307 5.273564042346459 0.6725334811998804 1.4372150425899313 -0.6300912528752697
Ni 4.885966467390219 0.6733593050131209 6.922132319666494 -0.6950807703727772 0.4112394660072466 -1.7540554275893017
Ni 2.306098469596826 2.329949286478442 3.982956543136419 -0.061166287096675306 -0.8007677655896467 -1.1507501845586248
Ni 3.0127821248247044 7.084564639039099 12.728021361741034 -0.5483432849725007 0.7980596226298643 0.5162695443664077
Ni 2.581908907833827 2.5067477571629384 12.347739521593368 -0.4753249836332458 -0.013644844476944244 -0.5612473946286786
Ni 0.6461205774643846 6.460027612938685 0.5909557067578382 0.44341630785010727 0.10056818593306552 -2.2595463932829665
Ni 1.0780272370848267 8.269776760701987 4.10940483543703 1.5062615037656315 0.33010881997350244 0.7048278224572119
Ni 1.7896554607288473 8.370440010014478 1.6367152284170228 1.1942421943039883 -1.6782251107225485 -0.8622865509297344
Ni 2.9849144259089613 2.964421833730241 1.232222629071518 0.4980288529886649 -0.3361257155915437 -0.18002247270565125
Ni 5.431251245875057 7.091327472763992 12.828685538739908 0.0203209709455392 -2.001367783790863 1.0467218079911005
Ni 0.8757721243914451 2.248860219826475 8.86925976068331 0.8016933627277096 0.14381414110589424 -0.19539432717603122
Ni 2.951916621300673 0.1866690537891407 12.917090340200449 -0.9725084579024799 -0.4206247638768885 0.14089671034878312
Ni 7.821797006826745 7.675649294204038 0.8973593865009436 0.051362670742692185 1.4204573635156181 -0.9149843955440822
Ni 7.625099663248018 7.48141959640147 11.934586042185366 1.023986571177114 0.5373939850498487 -0.16117525809216113
Ni 1.838952715069146 5.493536109563571 11.383713808621652 0.07992556998204944 -0.41751192927951963 0.4050423360575992
Ni 6.634043024477136 3.2652426968263777 4.646834893325343 -2.3739854236608533 0.2160911934037504 -1.4010869294088064
Ni 7.789615566234631 5.453858963004771 0.808696688226203 1.4157715280041747 0.3043237405895985 0.7779993615448795
Ni 7.742405606253866 1.0963675968572713 0.6016788336475543 -0.3387292146526618 -0.23932316734849746 -0.8381307796191371
Ni 6.909872016441778 3.4272167391262682 0.779203682769169 2.1050374914673875 -1.6304938660848567 -0.9593045576176962
Ni 2.675753662238506 7.650462608932319 8.276935716511998 0.6746176174224188 -2.0970416177461044 0.24007984300886395
Ni 2.937407606285952 6.7443542121625875 3.5625522669665863 0.1655412483703407 0.5975773394079643 -0.15323826263327156
Ni 5.402038401705391 3.02516673802461 2.4480595335774975 -1.3541552978542741 -0.06449663702148892 1.1991432311500314
Ni 3.842616147265128 0.7198410311840031 2.287327663343126 -1.0326897553780665 0.344878007862877 -1.0163087429168818
Ni 6.752657005281626 6.936979012524268 2.854329580030944 1.0718093470873478 1.4786756237275631 -0.5906261049011119
Ni 4.629257091758915 1.7000873405452597 13.04676976416962 1.491637840315186 0.272217346973357 0.4498294104653027
Ni 1.0471167268360733 -0.20880179549126435 8.565881266231957 0.29483996946887936 2.546258077217757 1.2135943735783552
P 0.12124397169750394 3.2219846808329993 3.8826040687619026 0.016688516399274482 -0.29689633777727575 -0.3291613684585686
Ni 0.9253486123327307 7.390116702683515 6.955574486051766 0.5427976725639233 -0.388842329258969 -1.4418340294191814
P 7.385867899053884 4.048247110702664 7.656981461138741 1.1481813953901838 0.9617903001540274 0.6682567082013976
Ni 4.825481315282815 8.296753880690995 3.5750982975969627 0.818935437637609 -1.8555471537779014 -0.5730104487018777
P 4.627364611539603 2.3276486242510437 5.074869389987253 0.2006630317741383 -0.2960841262886255 0.03976905236782183
P 4.933825807838394 3.6605113104755036 0.3695151119979959 -2.721682131919448 -0.5373327927946101 -0.8880243220154705
P 1.817578820827511 0.3918426678403427 6.667253269266905 0.057526890571875114 -0.23315123420983072 -1.0596601133193235
Ni 6.375237077622477 4.593058769132674 12.406611427082447 0.7856450510155953 1.5425418262539048 0.5705234206139658
