# total energy = -381167.64452215616 ev
CRYSTAL
PRIMVEC
9.23903274760853 0.00000000000000 0.00000000000000
0.00000000000000 9.23903274760853 0.00000000000000
0.00000000000000 0.00000000000000 13.52225832186902
PRIMCOORD
 96 1
Ni 8.636592559543566 2.3883269715169866 13.28526741827148 -0.2961777144436964 0.6107079632526515 0.8241149249560193
Ni 2.0201237916982353 0.1631114309695161 3.4602783773315235 -0.9475268482564778 -1.0023458529788867 0.2622772050415096
Ni 0.647549036419054 7.633750967938253 7.79757010883109 -0.5987333073892785 -0.7542590805051461 0.14747076402187506
Ni 9.049318639107545 0.19182542144849377 13.354352287091764 -1.0071579296555493 -0.42011594256127 -1.383420879587611
Ni 3.0225496268211796 7.777020651762541 11.868472803527554 -0.9662614485515036 -2.5018774942198525 0.9643958560976745
Ni 4.791722805761607 7.166690135645142 2.5276072409171233 0.29686882697345 -0.10877360456199331 0.6809746699886982
Ni -0.22697809398442292 4.423325606251083 7.521201992547842 1.4874382004115416 -0.0030017629408012818 -1.559608037707572
Ni 1.050727499341257 7.486508499949107 13.240156916031173 0.04978889849766909 -2.434262880394672 -0.7837673743769082
Ni 1.0755158247233791 0.43327184101935096 9.220530854160193 1.1380864730480271 -0.8188480201301254 0.4511447868426166
Ni 7.740230822589374 5.573686836833788 3.6441000245427713 0.11677950558560533 -1.3535438895225205 -0.04028712965482094
Ni 5.555162575786023 2.6150620789350474 2.6156108774917737 0.30937313008804784 -0.6318105495592216 -3.158115837804135
Ni 4.697614016219194 4.781042483681199 1.8626777357284647 0.0567712433527732 -0.4352353147012117 0.2849617911232189
Ni 5.495977330762589 5.772824952855502 4.566331053733244 -1.5331238753741145 -0.6854602165638776 -0.6225401800008891
Ni 8.946294182776557 5.762717450817469 9.303164764789228 2.17477583650379 -1.0006941763080766 3.142544979949072
Ni 6.973095439388347 4.7187529235894115 8.591123582825126 -1.4527347354920852 0.15889494669841667 -0.6981110725586687
Ni 6.314204566130271 6.480303900353077 10.241001444521238 0.06429660519554088 -0.7676995222807683 0.2974139008436426
Ni 0.9116394018263044 2.7538508317826946 9.54413167855042 0.4524215966725112 0.228185148453807 0.8410461534937194
Ni 5.641353514097546 3.2710426568165407 12.019746261589088 0.7007878480598834 -0.9177056511299873 0.7082946979598899
Ni 5.17534593155977 4.080409659593297 7.019391309555053 -0.6216747466768003 1.6101716095877368 0.9079783965398942
Ni 0.10142056021233933 1.897106068081778 7.494738630493421 1.81292829066611 -0.8340337267316281 -1.0803767770413846
Ni 6.857043946609801 4.867861676232747 13.266714516221596 0.756116188318543 -0.7034237430208337 -0.13336852029253807
Ni 7.955814417247009 0.2316696749121313 8.793997963768394 -1.261997447472091 -0.7942705879010773 -0.3635192771131481
Ni 2.9467710786347596 3.4559434230753583 10.782135299519762 -0.007900742904315425 0.5779698495896821 -0.8827011100303442
Ni 1.6250627431184594 5.314051533110943 10.88778456510944 1.1171579504254758 -1.7151289257274334 0.53179797901931
P 4.019468998310972 8.526842087231145 1.0308811326795588 0.2916263476275881 0.18654638986709807 -0.023944426630739406
Ni 4.5484775464770335 1.4625758707757908 0.41438448597698346 1.6440086127418396 0.38663220898152767 -1.51624741133375
P 2.7549502767027363 2.0746895202509053 6.85886773171246 -0.4543185565849079 0.583114627015415 0.4281460119545981
Ni 8.719697660852619 1.2751805656227602 10.84390470205694 0.29144251375155616 -0.595689121246316 1.2183627415012759
P 0.8425240441973151 1.8566021476661152 2.9905419210985467 -0.9050859054834477 1.031121125339366 0.6315909773492479
P 6.795502748186277 5.2573608269817225 1.8113604511580368 -0.1213658394047071 0.8072734279186483 -0.1983744928502777
P 8.717295512287821 9.040199713594255 6.657818983678437 1.1727104908797998 0.038678133296488226 -0.3415432870626892
Ni 5.377459016188656 0.305258572291409 2.830925616290811 1.3799848573228684 -1.04502899366971 0.8960981001625407
Ni 8.295478224309377 7.860596943751612 10.866702939743458 1.0713012971026776 0.5231094501063766 -0.3603755892778439
Ni 5.093164733544871 7.388149755253591 6.562311404548676 0.9123053060500224 -1.8654569566924453 -0.1188890957294404
Ni 3.6306812530984947 3.5968386754336743 13.063705245397381 -2.029524962951369 -0.6359729084670273 2.4023981704755917
Ni 7.079048669161799 7.149200646286829 12.80091388802171 0.04630042572843639 0.583798026235685 -0.7896199765029432
Ni 8.83011334353683 3.709055969541484 2.1313109336330647 -0.3326249015271368 0.005184115304100749 0.35651482077085694
Ni 2.332135173166608 5.015667725231325 1.7109441738264415 0.5747099478914877 -0.21826840356072733 -1.8975846904649256
Ni 3.7657097195389393 0.17907832769906634 6.877285743881397 1.8937162086484545 1.491880038232979 -0.9730535317726726
Ni 0.4458526321758309 8.523682337965141 1.84942619078043 -0.3714231053412571 0.10552321594549567 -0.7498036158369539
Ni 3.7015908309247285 3.5452294374222935 3.9214142177992315 -0.5367527519214239 0.2553694221780828 0.09684831387931707
Ni 7.209975004976205 7.605230073247753 4.799320062549426 -0.35602142607420617 1.0318006679048939 2.5134520864313297
Ni 3.315380775902938 1.233078292508213 4.908728690643011 1.1466001669459929 0.43392276653737527 -0.9992307043886727
Ni 4.920404056571221 6.475573515487015 0.1999696289864515 -0.5142144616095918 1.1481947651266224 -0.04298267420911307
Ni 7.021156888750179 5.494184958371932 6.23992736079685 0.35763479330791315 -0.31831388422110335 0.40243935121711333
Ni 3.354304821685599 1.668116636625984 8.983215206217494 -0.36246178238291127 0.6984548290513326 -0.416494800868915
Ni 5.361965157945712 8.315942682274864 8.528109682550722 0.6641791956979143 0.6884707212554272 0.7779145151405571
Ni 7.68008471814002 1.070240336913766 1.791252619864093 0.38828208588012486 0.8682319698798918 -0.28490085597829645
Ni 8.887349152609602 3.80130771346265 4.82049592605141 -0.7191262413577552 -0.9785590349719341 0.9058320396208528
Ni 9.068665174087107 5.79263343948214 12.097891850015127 -2.4858523224361897 2.1596513221575253 -0.724502418068004
Ni 2.5054409530838067 6.23286412011305 6.292272025830375 -0.7242712758938042 -0.36814469170030145 1.333190265566833
Ni 7.289282863746289 7.672961423742101 2.629659750982663 0.10940326772619223 0.11864766914259565 -0.9044616416358875
Ni 1.704148865097947 2.197078989627338 12.364253169719406 -1.0570450442939796 -0.34785303133080087 -0.9205588043080662
Ni 7.85327039062898 2.653247002082386 8.958861115383623 -0.6430496128081507 -0.03259953120257612 2.8832993626450345
Ni 2.3494768379978574 7.3451790130425385 2.430774784463547 0.46619448208688735 -0.9719559278331196 0.05884920892772446
Ni 4.944785864503916 3.6926012518726212 9.521955227780868 -0.48363401771957354 1.3357508272051577 -0.325025234803008
P 6.677187692337059 2.4560768000772177 0.5630294391666536 -1.6265562215933471 0.8498858632725365 -0.6767290073384669
Ni 2.1361290893120723 0.08242418458126177 13.68222708812074 2.138901491204684 2.1299406824669704 0.693015146093
P 7.012666217476914 4.300446468128749 10.657716938509369 -0.2912406821533952 0.1493443268955041 0.5636554898495391
Ni 3.9162505222882116 9.014090206501495 10.337658359348923 0.5074331770217002 -0.0898744536646452 -2.5237079598313823
P 3.192704896505317 5.696676843351421 4.314750338928825 0.32008743118175836 -0.09578541983244149 -0.9852338758889485
P 5.817680457786626 3.5832203408778605 4.327406890155425 1.2187949439426882 2.1052506359194583 2.306388807557802
P 5.314300987000364 8.77928942332548 4.831246464782174 2.3939412979574897 1.8616167570107487 0.5484060198896362
Ni 7.637917771794883 6.88864143926983 8.180195419071568 -1.8870537090266146 2.6784089230531096 -2.2238589671836864
Ni 1.000032925591088 1.4951342228617388 5.333570838006511 -0.8776656044889659 0.7914143493992047 -0.48814116156130777
Ni 7.219925443454232 1.8723454597984805 4.278118497218957 -0.029300291626014052 0.5337111368816227 0.7059853331004229
Ni 8.667413973436506 6.5144698441708515 1.0032822934766237 -0.6978195094601788 -1.3802291121231907 0.49727037755608544
Ni 6.428094125200498 8.695445199381105 0.8664309658368152 -1.2913399051899503 -0.24461269788221102 -1.5297192205679397
Ni 1.5404516794399379 8.458888999946199 5.839817180714528 -0.21717594182749694 0.37323007664300883 -0.5388232612972075
Ni 2.107053852645081 4.2881308372176905 8.430289573475696 1.1664915065532815 1.0833602851497408 -0.25263351130415845
Ni 1.462945432093452 2.572784264194611 1.090344472594533 1.3034091776496586 -0.9855154116851093 0.9908604780471064
Ni 1.8902322275732806 3.846107784196124 6.010548966054218 -0.2716933561490869 -0.12635532219949852 -0.17811857081471905
Ni 1.542253290863536 7.219879248289525 9.906446822675536 -0.5325153168013086 1.6017049668776222 0.3523509192011544
Ni 5.8594870818470435 1.7852306181928046 10.375372091816246 0.7596501696137304 -2.402831401358268 -0.37919786419066953
Ni 3.6036847988433474 7.759235513350099 4.857655316542239 -2.168937118334826 -0.371904672963366 -1.5511959023844768
Ni 6.856166238480356 0.972398978062975 12.390405176363698 -0.08184901225700743 -0.3035133288731612 0.23091566001109265
Ni 6.764053080053313 0.5228756780994748 6.444478626219006 -0.3041818156950955 -1.4805599852344695 -0.6359579960686919
Ni 5.279127988591964 2.242433402337304 5.860276095260249 -0.9780296448310253 -1.5249508526450188 -1.0914836855878234
Ni 4.968031271384803 8.778790515546637 12.363996324603633 1.1367908941650549 -0.28047573032740725 0.7582160082703652
Ni 3.5446566173799186 1.373400724824154 2.327234790094421 -2.4894832343205575 1.2017968667227947 0.8282978526891154
Ni 3.8136233443737084 1.582692538048608 11.635430208320312 0.40115714207058006 -0.1132169850453276 0.5345727135509697
Ni 7.431129736497582 2.909657883308638 6.8242786401859625 -1.446940240297495 0.638135720446301 -2.527561529249518
Ni 1.4187551375341194 4.727280550994442 3.6902379072461784 -0.8591819438624816 0.38180393435494886 0.7229597561712323
Ni 0.7016232484192344 4.398860647021915 13.48419303653554 1.1612896506373678 0.1415554269787046 0.44034075424857716
Ni 9.076204224967395 6.245207468122933 5.415205085271272 2.032529039885016 0.3790001463575666 0.8130195863738062
Ni 8.693080006948072 0.30603557496179157 3.5857786290993703 0.6174799918691624 -1.0608441063250957 2.5812675034134065
Ni 4.491777601314871 5.21335531308122 11.859994142997113 0.31629068314348757 1.7887642918253968 -1.194430913276027
Ni 8.917690136789583 3.611334718118933 11.438978803077992 0.10511441054285121 0.16114954706054826 -1.557016622831312
P 0.20328921352234283 6.864777017181861 3.2316575832900973 0.5432607282432708 -0.004364704726598934 0.3308163875634883
Ni 5.7211325635476475 1.7859327846963609 8.122212172233827 -0.6568358679589655 -0.0028467254201757423 -0.13362820171182793
P 1.2333831805952835 8.90063488197952 11.396166972233537 -1.0309077237769795 0.7665787784127636 0.1143187027499386
Ni 2.955705223489218 8.116111638782534 8.239193111726289 -0.7892957603943052 -2.3542712330613775 1.3886751860080149
P 6.269690905417985 8.672772612542593 10.417575070389855 0.3793215342527274 0.9700414844192262 1.042189724448702
P 3.8926540321555465 5.665439672976111 7.919405236231032 0.1985783813309677 -0.4455827193738068 -1.3432383938314543
P 2.620993538083509 5.762246260137452 13.054590939400564 -0.012279588698301432 -0.39633683786380125 0.0023975536978990968
Ni 3.855051168083524 6.25068621465726 9.854954920382513 -0.31416849459416213 0.670425433717942 0.7088143179087858
