# total energy = -340865.6658478755 ev
CRYSTAL
PRIMVEC
9.28630165920793 0.00000000000000 0.00000000000000

0.00000000000000 9.28630165920793 0.00000000000000

0.00000000000000 0.00000000000000 13.59144115200719

PRIMCOORD
 96 1
Ni 6.6136112046357125 6.865232835381454 3.814057760251357 0.35202593176156793 -0.6365164396753231 0.3713963658683797
Ni 6.045382403877967 3.6533332363932947 12.393070144526444 -0.6768519060695762 -1.310350384854182 0.21699545038557466
Ni 1.3065640759766852 7.361984971987666 10.85707405570581 -0.3821667170110063 0.05185812232187198 -1.1534986938380394
Ni 3.40968853880413 0.8375742669198335 7.1279228091182585 -0.23731847821364294 0.9627549780601419 -0.9009860243824613
Ni 8.349936036786083 5.218947984472253 11.698711079617498 -1.0141341038630665 -0.12420716550824416 -0.6145170525860966
Ni 0.7346671860491515 8.636362726287176 1.5802629603737004 -1.2660816448437937 0.8732080829382446 -1.5748048000526684
Ni 1.2949654851587995 1.276179296828469 2.957769738154419 -0.5267038523258541 0.47459144790133106 0.8788295428900801
Ni 3.3612047576510626 4.807917698818724 5.515936913521997 0.9237929949746477 0.6210813360671755 1.4572879020804064
Ni 1.1217945311380373 5.100166899483001 6.165824808240573 -0.021146809280944225 -0.2538110765520274 1.0549498523278475
Ni 1.5256743644859028 1.6005405287563548 0.6373773890741771 0.1026168409319781 -0.016166068236901192 -1.4570616450022131
Ni 8.263703439240137 0.20243673381465088 7.5494614737706 0.15242707958588586 1.3692173343937195 1.1527957542337437
Ni 8.297291992473356 2.4000818184514228 2.906747082117757 -0.6400627622656847 -0.8983650418198464 2.193166937416468
Ni 6.808967133407418 1.642681765851283 4.954311601900037 0.46825830659445156 -1.1102789639174557 -0.1002398560593693
Ni 7.060672340868421 8.882366144507039 9.508858130733557 -0.7001003350745556 -1.3968402383173104 0.7190797043905358
Ni 1.5812435938327627 7.788718393808564 5.796654384740594 -0.1780982590997449 -0.28198856742750783 -0.5308896082724277
Ni 7.992236981770759 0.8898886475223627 1.3048581823551917 0.05657121152682515 0.1508029137189016 -1.7968745796373569
Ni 4.346267782622127 0.2979379890830401 13.22142775701333 0.34655205313119025 -0.08025569962795856 1.1768931615025795
Ni 4.995835299932203 5.0192089213001925 7.749894223679327 -1.03264039019737 0.017623112398401905 -1.945897004417068
Ni 4.9663327194450755 7.807365287613459 2.2970623733302227 0.6548838864389174 2.0325503800412545 0.07647772064276506
Ni 9.309424586887285 6.776065766499678 7.775459412247493 0.7041673060550776 0.6676393863323727 -1.9269849980039135
Ni 1.425187293837111 5.03585926024052 9.016929299228075 -0.4305618204849424 -0.49684383154162814 -1.164177513708124
Ni 1.2693445787804598 6.512195503817355 1.1008223473885472 -1.9616254708959184 -1.7333248799101697 1.8336662945444098
Ni 3.689029780111431 3.822251064237442 10.872895127904714 -0.28007695222709184 -1.0100059406273056 -0.12217933644493797
Ni 5.333271644647586 3.9297864378732434 1.145571177999618 -1.359047850059885 0.45954355242927314 1.169495840597244
P -0.08591129150727592 3.675286053601847 10.008533595113565 -0.2075970398898102 0.22106550668989022 0.11231118540160658
P 0.3465926381873078 7.117086623669586 3.641690999957439 -0.5854337620668949 0.9157989210255776 -0.2186890360379137
P 7.663845494906956 5.4129573994980875 6.974583680998759 0.21250861825881467 -1.1705631055194936 -1.3237558596268106
P 2.9507037911941874 0.29322611960265965 1.7345938655142976 0.6955461400449698 -0.8062077056582954 -1.267951608172997
P 5.372301970674466 2.0371638618831356 11.072974069718837 -0.4315000160284956 -0.47928782493573585 -0.9543184172570144
P 3.4317249327279433 3.7623079867919245 8.533984035982977 -0.7364166530070865 -0.09874990177740413 0.5151107481716161
P 4.339182334428335 5.727809458489612 2.2646327505486212 0.8092287518728064 0.5589722254412567 0.08094526949581543
P 6.140260548302577 5.640053907465577 11.99081819986583 1.0966801421870984 2.744361318684519 -0.6779793348058001
Ni 7.871106462452504 5.404023977266858 9.116690181084264 -0.02054465692057107 -0.5954680063744454 1.0838819619811657
Ni 6.139480498960141 6.067307362181432 1.012518904564468 1.3606756154712956 1.3062422762230794 -0.5724160096509883
Ni 1.3895371816274527 2.395847264878199 8.66323914065477 0.5304748893325123 -0.33992657739487264 -0.31145366676616043
Ni 8.047945505643053 2.7098171252086356 11.810840386702145 -0.3076132099741476 1.3120730239722433 -1.632366657627537
Ni 5.4246859985397125 0.22817743348486494 7.929192279558889 0.7660108217244356 -0.21265260003584666 -0.067224063254981
Ni 6.2916272659419175 8.085239293252844 12.1417781774909 0.4211348707440876 -1.3540395982120164 0.7882544636139843
Ni 4.292007921814356 6.662485010459998 4.190105618787145 -0.006089400727189513 -0.4731110067010626 0.7613499259136566
Ni 5.820951064497132 4.885616185106355 5.2381279119944795 -0.3380951806130887 1.1288284447848689 0.03404809072364459
Ni 4.118725532173245 7.548398192226447 11.787164031898875 -1.819410555956344 -1.7008672736020967 0.683133882423546
Ni 7.889939082291313 8.3597516576784 2.66042978690058 0.2866047260432806 -0.36098005563106217 1.7208303469875845
Ni 0.7199093953944005 1.7068222516632414 11.017399268590959 0.5550865172336052 1.208879484601189 -0.1701484081250489
Ni 7.54663379490427 3.2241946624332196 0.7055397721505283 -0.8067563790729139 -1.8640842447146346 -0.3029577134800073
Ni 4.335087075380547 7.105636613678832 6.682353981568044 -1.9773071432972331 -0.06727908486263252 0.09926566507155807
Ni 2.568126733936178 8.48046429342035 8.51086578791162 -0.055682895384600875 -0.532399874269367 1.0996698209430416
Ni 6.299780638830711 3.4146288513062233 8.722035359840874 1.0694642438939388 -3.064718458587896 -1.0142580310354403
Ni 1.361195388852283 4.905563161148644 11.475362523014379 1.4413462911494852 0.01737320117112492 -0.06950591731062224
Ni 8.569037038993605 5.647315795391587 4.878375655674245 0.13168084817747 3.48160715246112 -0.6061447693620012
Ni 8.001736868405423 1.7021883871171046 9.735603616496952 -0.3899275919033478 0.299600109861684 -1.243678080337613
Ni 8.666533920496391 7.1651710938497395 13.088286335081902 1.8561485348073261 -1.6773835886578594 -0.47634236915416683
Ni 7.838353676371892 3.7402530202647197 5.384792975085305 -0.681310456061562 -1.7798273943470833 0.6967668998259484
Ni 2.0701395192044423 0.8393795239694708 5.242789635445703 -1.0842429448650102 -0.2595016991789015 -0.9974147342258565
Ni 5.516973264791233 4.943246973429653 9.912074922140352 0.6934943997222637 2.5694237167009426 3.358138150670481
Ni 4.482302816161925 1.692112749777308 4.306624560683333 -0.9042698373400556 1.2587059212050127 -0.5304360656747767
Ni 0.6977587799597306 3.4696966203615176 1.8477158782502112 0.43187539709004336 1.242378387689583 -0.47843961800282764
P 8.676117383846318 7.413848966957955 9.6176982297576 -0.6283902110237629 0.597924438334738 1.947796021211994
P 6.594685721779947 1.9908252164217666 7.057315342805438 2.0206261177998424 -1.1157392157010784 1.8744388484760814
P 5.140339440618448 7.331832350381841 9.397163422568267 -0.7361281752323903 0.45882698597822263 1.1006967195456592
P 5.614228702449933 1.8673638353778994 0.8166364424866175 0.1716954408971946 -0.9008993782059259 -0.5080718390469637
P 2.8151423590408684 2.797470526914018 5.156212516106848 -1.2078906383253585 -0.7747248045586658 2.9317800838542407
P 1.9789666091564022 6.65496310608651 12.79844878696799 0.688814220637775 -0.635984478431253 -1.5314184626472336
P 1.1709004945047143 0.39807218026739666 7.191150451473533 -0.18206495705697676 0.3069346958498843 0.421687657923764
P 8.964912080279806 0.9999768254943028 4.5689124375567145 -0.07558117697042467 -0.3708926867590838 -0.5891541483412757
Ni 4.186116223578687 5.351593517893133 12.567597827224944 -1.817664519799515 -0.4429468244128565 1.8331001376282947
Ni 8.6253863176829 3.370398196329771 7.76850118638693 -1.2988259291543502 0.7682656791968833 1.0253618542580858
Ni 3.4762156041518746 2.3737087216357335 1.7769449730275477 1.0218098752407692 -1.7781764890072214 -1.9309000167876036
Ni 5.937772739828599 0.910172716316204 2.7418557946888495 0.7849495676104675 -0.40821379180704537 -0.6995136093331501
Ni 7.499097216524161 4.5483562801231905 2.9059317448288775 0.008809113651197732 1.105465344578896 -0.6015885174498865
Ni 0.30508194097751523 3.538879567994222 13.12483350403536 2.0117563261140385 0.03247946068494407 0.1407655840875576
Ni 0.7207748787124365 3.88093120465235 4.063134015702317 0.13896452632307682 -0.5169030641853486 0.7413146045293362
Ni 6.841784923599899 1.080433343385545 12.617546058155417 -1.9163154341052093 -0.4106938779164217 1.0329635778647437
Ni 4.065942193335085 8.921145740388138 4.959435783175706 -0.03597487543271223 -1.1096547000698955 0.25408207082522694
Ni 2.2586607299281387 8.186942869423769 3.1298913400835713 1.4806553731617533 -0.6096921203936275 2.344546035353814
Ni 0.3466446414768035 2.4777617321356606 6.006207211544633 2.1670306453407324 -1.2223780333082561 -0.2118686706819706
Ni 3.42770396409372 5.913321907463914 9.73871638482534 -0.18837521554572073 1.4264097244443112 -0.23969392042435492
Ni 2.1318748528772233 5.875378078735426 3.8313869278456374 -1.071788521151741 -0.13318931440219642 -0.6240638157342672
Ni 3.872972844099165 1.77263427178042 9.339535420135478 -0.2412970032454167 0.8768418230360898 -0.5155648049898991
Ni 6.340278200525507 6.970957380186601 7.701998265423595 2.3157900462670438 1.2736468587855614 -0.21521624699796485
Ni 3.100315397813048 3.658895731108998 3.42719043160995 0.5693067745980454 1.8074487556087775 -0.3876269687946292
Ni 8.137595462213005 8.418013914517003 5.644838210099184 -0.028170548896945036 -1.041785804142064 -2.1905271858007755
Ni 4.571804191904745 9.200607703617482 10.517030117474286 1.137256520947564 1.1437776098955332 -0.9145455082344508
Ni 8.374916188347422 8.951437656519397 11.558229764825814 1.7390913500803016 -0.2782545543063724 -1.2929296182745733
Ni 1.8246097023710575 8.899861536901673 12.70787484337932 -0.3319409880862348 0.3144734274290907 -0.02896193444998883
Ni 3.400281515186421 7.3771680752600775 0.6872048980826072 0.36847713533905574 0.36884994529744214 -0.3872690712345782
Ni 2.772963976739158 4.701533826593186 1.4687994811206324 -0.6802035961506285 -0.14556403391746542 -2.537726899818294
Ni 4.882913871312916 2.8899806644062336 6.398130002829161 -1.6449750904201672 0.5832586087924472 0.14859227922082796
Ni 3.133244623625876 1.6465077221498967 11.735027019658734 0.15686403231131696 -0.24587999463040883 0.20566048498872966
P 2.5993287076336125 3.3485753873449577 13.00045835090464 -0.2964759624104055 0.891696114440103 0.21681495894365238
P 5.917370735003224 7.998384513493289 5.553489788949096 1.0098817563446156 0.06550168124723559 -0.1999462082127718
P 2.3674590405945506 6.507496635159348 7.417637778049787 -0.6441713851174197 -1.0737885823009057 0.46767106663241387
P 5.9281892764786726 3.312321665525081 3.6995493026722808 -0.1096117841925725 -0.4870245314583612 0.2760945705405761
P 8.500225543428726 4.994061616308332 0.7427509116752279 1.3804468845609514 2.6733659613125638 0.3931227018018778
P 1.9664301018672545 9.47286349673099 10.488882408404555 1.8365492725191597 -1.2828591214124487 -0.9668646293531412
P 7.353413715522567 8.146714610478147 0.6130881383589956 -2.0539375874677788 0.9137065572729232 0.5881455045711033
P 9.201499188580266 1.1514456924522958 12.898753846103547 -0.8794322094710854 -0.3838063094969584 1.4976670772284013
