# total energy = -340874.0364952747 ev
CRYSTAL
PRIMVEC
9.28361519481838 0.00000000000000 0.00000000000000

0.00000000000000 9.28361519481838 0.00000000000000

0.00000000000000 0.00000000000000 13.58750923982124

PRIMCOORD
 96 1
Ni 8.625499591163738 2.388683439319371 0.7310419815802488 0.8082789863650274 -0.10633002811750719 1.0225943188152773
Ni 2.7183538938207925 2.12428608232575 10.885116643708546 -0.7412814372985556 -0.2922855784781418 -0.2826328858797261
Ni 4.897998172767082 2.596543580579455 1.5379162444409293 -0.17527878737307878 -0.37083946492364517 -0.7617350771672171
Ni 3.911539803405137 4.793743175609836 8.456892431112939 -0.3129269088775772 -0.3614192000510098 0.35471222034447947
Ni 8.583268426242249 2.5857838707214627 11.923609675498485 -0.8201114602235811 0.38525409768707847 -1.5224923638021974
Ni 1.4552252283519693 8.139307386700503 8.322417410202686 -0.08910029450278203 -1.1473540143928822 -0.5475228459537346
Ni 3.012941566999219 1.2265883565809406 3.4559556778045417 -0.4190952146062395 -0.48912486563081575 -0.6338910862373341
Ni 6.743664399822728 8.23882774017563 1.2266189925106485 -0.40425737826245856 0.9554008516879159 0.478364284680202
Ni 2.813427395680753 6.705202382616809 10.2687598008088 1.1983531311485685 1.757019138203316 -0.49118586192490243
Ni 8.523853289839188 0.2419904236776167 10.90825605425302 -0.9148036469918438 -0.38045770473969964 -1.4493971864784199
Ni 2.175178860100997 1.0611729033887938 8.489448212415791 0.3264298284600185 1.4824214639232405 -0.2625913938478187
Ni 2.387467285746121 8.056089061275966 12.817817690341123 -0.09519946542198443 0.3289248269677303 0.4357024841456174
Ni 2.2355409252404814 8.4160983698032 5.207807261202768 -0.6515280825928069 0.6073313334709347 0.06236082162540872
Ni 1.2555718028075589 2.335256234631931 4.899098281152044 1.1763190341666643 0.960765715544255 0.8654562069069676
Ni 9.126192802355344 4.988439150710616 8.184110112994437 -0.17789488483968718 0.5658684383404576 0.273761037311393
Ni 2.440105383153208 6.267665604698643 6.593243841680304 0.3448245289171223 -0.5734202825457866 1.8358522464521347
Ni 7.209971100821064 2.1032401269779784 2.642227321942864 -0.3114960899683216 -1.4613888116226572 1.3303085731436637
Ni 1.8203776596240937 3.642008607281689 8.296845692511713 -0.11765316643981028 -0.3912234278966359 -0.34058940778985214
Ni 1.8779917747049366 -0.07204735141925543 1.4601956758566879 1.0102216561825377 0.5847696461203349 -0.5108360320556622
Ni 2.7548106501731078 6.710791118884722 1.2892861792702706 -0.3829228784507405 -0.11838233129635096 0.2845298457921229
Ni 9.276559515530403 0.5681971613990408 4.59583878314329 -1.32467040102128 -0.791830611001017 -0.657224618756952
Ni 0.8845298461394812 5.836543804788995 12.392406242056712 0.4339294514055946 -0.11521190398816934 0.5194245450556215
Ni 0.2038013447545493 7.616064274520922 0.6521117579533012 -0.26611766183352237 -0.5809003929729157 0.4420736777792838
Ni 4.511261336473533 0.09644376344325602 0.2507355890669422 -0.21493522542243626 0.7241296081096175 0.815180598580867
P 0.7181414700887343 1.587386772388528 2.5223034392823234 -0.5873224944491756 -0.0054664224312099404 1.1606697576651817
P 0.6348665146123128 9.314158156535466 6.535700282073939 0.16707979650205418 0.605120441862545 1.63466368119183
P 5.775076989457016 8.767251109560354 12.239207097925938 0.27469100532483015 -0.6600289209749665 0.659443995005774
P 3.470243161386465 8.627226343565452 8.904560418149334 1.1703985549171714 -0.10910681953169597 1.4401851809618487
P 0.7593811449214962 5.32762531065159 0.9039075358604357 0.8412860374186673 0.046370102624107234 1.0911638403545594
P 8.503262231629503 7.4318587844413075 4.393616581310954 -0.8638816633309961 1.9514341321852133 0.6385373267600938
P 6.788708500108299 6.096206518100498 1.57155820870615 -0.5058540054600384 1.513356205828884 -1.2160371786918929
P 7.200854590829219 3.2308651469875707 4.592224671799273 -0.9678123379783913 0.8460806305938332 -1.0630459990724208
Ni 5.123738556638461 6.9369956835092506 0.1965461995828318 -1.310990332431026 -0.1937040839578019 -0.8441960119766106
Ni 7.419381605796664 7.071849475914073 12.858525414030774 0.2257202318530822 -0.2624726088817673 -0.8634312060571389
Ni 5.940000411050826 7.093146088868545 5.651059032553702 -0.67903862930825 0.11251790209577396 -1.541900850235796
Ni 6.921278523207628 -0.25586014458170625 3.9547531748002887 -1.2770785101749296 -0.264043552913313 0.7467650861209462
Ni 0.7376314915519508 4.244877285856434 10.581204507560866 0.7026277294820996 -1.3285648509796797 -1.068385151897147
Ni 3.9824387716411023 8.157456854148625 6.823592612068945 -0.16557313004954066 -0.17637176332694143 -0.1369186995376416
Ni 3.0562217804228236 4.13423516153586 5.484733785085385 -0.30002819853803814 -0.7855468348748341 0.13414705032977542
Ni 7.259657008638123 6.133860860795937 7.385571608098804 -0.5150860655812677 -0.7283238486966231 0.13484690461027743
Ni 8.40169948284052 0.029519110815752 2.277021974064881 1.7274859046308895 1.0468717033054036 -1.0725130580225917
Ni 7.61356698206898 8.526833330274405 6.475766191588858 0.017368316075118476 0.6920260427068533 0.2105149848675536
Ni 4.271651231698064 0.3382782223878147 10.860386949903786 0.11978872472557434 -0.26387797386972617 -0.07890432780638669
Ni 7.987037532437534 3.79842823747781 6.51053611508423 -1.2486994448116044 -0.8979022432508148 0.19241673260494604
Ni 8.819898490582503 6.141408439842139 2.6567654631314883 0.06027205741718007 -0.8317030217159224 -1.1981986078485751
Ni 0.9642426785162377 6.159205129917868 4.799013483881089 0.4086701626181736 -1.2636663505340817 -0.8317053357087676
Ni 2.2498562596675944 2.4159587003744014 1.2340375293074743 0.30996319826356294 0.27397675286662493 0.6210808218465432
Ni 8.18468569712834 7.843160066191496 8.82924523422791 -0.9663437238526649 0.6535062893651002 -0.8183847073404615
Ni 4.529234415235459 2.952904428386938 12.266748798733275 0.6824887926403794 -2.3797974023569406 0.2422362272302344
Ni 1.3117933756289553 3.113028220993187 12.750165202292681 1.184240088785954 0.5398679005116379 0.02812555459162253
Ni 7.115955931078283 1.4966023006876634 5.894778065356046 0.4148606076996016 0.8953601935552516 0.5815930481645661
Ni 5.569463483042174 9.319821161723883 8.269602924109403 0.6196839414990166 0.9041351115344041 -0.9173606090857427
Ni 5.242856621511535 6.785812012208649 8.483035091130287 -0.3185002892002966 1.0479705927965373 1.0853616318504857
Ni 1.8814359958933016 -0.2714529044414845 10.710055514465965 -0.9254274452542772 0.6723812718927323 -0.8548496350357148
Ni 7.810463173939687 5.499381472931751 4.822044276129326 -0.47730961816344253 -0.8134080800614765 0.15280991684660133
Ni 3.3608171906391404 4.2073621973869395 0.23878293467335773 -0.9009209754724807 1.373589495319486 -0.9062992090652585
P 3.541624877605705 2.63711297840467 7.475969881413048 -0.14698328286249523 0.2024468631474384 -0.2193305262766545
P 1.634018370849868 5.809398514344847 8.857153637830235 0.9673053164349857 -0.9983827545660807 -1.5343955429976865
P 4.5948695737307155 3.4377597922811045 10.071401284907957 1.2946571424886413 -1.6226941675347797 0.42226949856916307
P 3.841188568457888 3.7339720980955518 3.076089645019103 -0.8621096590322378 -0.25911577659439244 0.8555973118350167
P 4.686591690552941 5.675937264199471 6.629033106109591 -0.1350271389418836 -0.3020416294236411 -1.1623772272745916
P 3.297428666989125 6.212010332396089 12.268366004477246 1.1875370143696709 -0.538388230642318 2.676208058747049
P 7.590413646101912 1.1168931609967894 8.73512423127341 -1.2042638402060484 -0.4467042345727597 0.7557708891639823
P 6.690979884340327 2.8974626792308324 13.009428720156473 -0.3886029595546533 0.7171189811197392 -0.2482538941792241
Ni 8.013560820672463 4.998595425589515 11.237943219261554 -1.3631711281996393 0.5361531706642121 -0.3259935122535482
Ni 7.283014584136577 3.6602416272653784 8.869355093107506 -0.7046794698048058 -0.31900551097148927 0.4867465952066262
Ni 3.397450335677653 6.480093284569713 4.428101497823893 0.574900723746055 -0.5935268234876746 0.1082652974670071
Ni 4.805932562187526 5.08526725581748 1.7172441231664552 0.6632898511144255 -0.04281863782742303 0.7905864541812707
Ni 3.5731706015897053 1.2098871330826426 5.836554945127071 -0.9266350924091332 -0.38162575690587175 0.9945677516953646
Ni 5.256512819269177 4.78212937316605 4.44139006442504 0.9362908703313423 0.4695389730790881 0.009909031583595837
Ni 0.910005942595306 8.07758063014676 3.1716096887635934 0.7227694945372972 -1.2192153193095583 0.3232858835143981
Ni 1.9311868890158022 4.865570505352099 3.1503864163681183 0.7514748328917896 -0.4417078097994328 -1.4557943482540154
Ni 4.985951141873739 2.231428283767582 4.408046104203341 1.7062617051447904 0.4068603631029445 -1.3394789267890221
Ni 9.304781705321858 2.1487019899413826 7.822831734288093 -0.6084842161284553 -0.4964535380817451 0.2578016857686592
Ni 6.385205455011011 8.552651063764548 10.28399142804263 1.3202784426011713 -0.13099642051593569 -1.0692295021753133
Ni 9.404394894947615 7.115185391028056 6.6313567949598555 -0.37993088570195216 -0.1610032512906711 0.7930572843192665
Ni 0.3327117667960529 6.823763430586105 10.197249042340186 -0.6869162322841138 -0.2832067561053252 1.0127102269323462
Ni 0.5342414109446915 0.6532230066763398 12.789473885192344 0.5460706868882401 0.20149735474997557 1.3083351541963661
Ni 8.099359991084507 4.613093310099342 13.558893403081436 0.6015301534081253 0.5953579631591425 -0.011535768553741424
Ni 5.733059347681977 4.822048917936856 12.668544587020481 0.243129171358149 0.9831050024714036 0.3291127746088203
Ni 5.18068425143477 6.853062519724864 11.271885044293311 -0.07095010595631653 -1.1195699023010783 -0.3172162802815504
Ni 5.3855086505692595 3.446653495511437 6.572250802938391 0.19242058925968797 0.34625946159143595 0.5790183454588544
Ni 3.071159117059156 4.439508275651774 11.120031095985162 -0.562763831273205 0.7191964324740581 0.11921254050713016
Ni 5.200913248657 7.1227329700742565 2.902251167880316 0.11845329374360246 0.6611005567725905 0.15973955408689908
Ni 9.249005746023485 3.5878572806193367 3.3668079074392803 -0.73089289497538 -0.5444179817761656 -0.13268872061669407
Ni 7.298833864203891 4.2500668266766395 2.190455977048634 -0.3944889860217851 -0.05986865133117431 0.8101062693817531
Ni 6.538728597307483 1.8062387138831777 10.786906208318808 -0.8375052302199965 0.18331271342114883 -0.5283876677861803
Ni 7.161501346577254 0.8383568582622524 13.185808122737997 0.10373475658650522 -0.8819434059287135 0.25188969115959847
P 0.6677574344189385 4.337323524653573 6.140412307945882 1.9123122264830874 0.012666282613758831 -0.556101588761681
P 2.6405479159779714 1.0162402064839788 13.151485669488661 0.3391796719265191 1.0399911741354864 -0.9147972192339406
P 3.2162991549537576 8.159007217864144 3.124162060538217 -0.6982581396594942 0.770806443340866 -0.7963611518815188
P 0.17232803296804036 7.92664761645286 12.100478324593828 -0.1263388671392663 -0.3929213844243491 -0.19429080969920734
P 5.5275850954930785 0.08124648558516061 5.750641586249752 -0.3418551618761532 -0.452623171160356 0.15475649905001088
P 5.575702072364495 0.6816150866234462 2.263135542653678 0.5223828563529971 -1.0264386322620322 0.4746721805405954
P 6.80856615272801 5.897054407769488 9.730667546335985 0.5156383385403119 0.43774394005567835 -0.7531851307146771
P 0.6047402553714422 1.7451710939989067 10.199423264987935 1.1543988370548055 1.0492168064988123 -0.7168549288250752
