# total energy = -340891.84863802954 ev
CRYSTAL
PRIMVEC
9.10054604650463 0.00000000000000 0.00000000000000
0.00000000000000 9.10054604650463 0.00000000000000
0.00000000000000 0.00000000000000 13.31956903635470
PRIMCOORD
 96 1
Ni 6.369572396811362 2.134351102103223 11.312989096860273 0.9114511855798432 -0.18318955757972322 -0.5340777761924221
Ni 4.7930756766969065 0.21906743825829775 5.928567208020843 -0.08827728438085441 1.3492288070869345 -0.8331202137784234
Ni 2.9597251404149603 1.9730075183860523 4.70519079191406 0.4690365795213729 -1.9358324210922142 -0.017579917865292304
Ni 3.548393971863163 4.243739405958592 4.476919971275866 -0.0029531690910529784 1.1197668488032329 0.48598169201614366
Ni 3.8999025691374434 2.5600473520630675 2.3541138220917928 0.7451964560822456 0.8260280828183321 0.5181261379591722
Ni 5.513110892653957 4.602164418350761 2.4933166869401324 -1.6151397522262896 -0.5672375507738425 0.8406507178275135
Ni 5.072253132712003 4.866052956736841 11.345675528674642 -0.05619043114863872 -0.06357026855247762 0.2643644265878415
Ni 5.609722291195413 7.9808150023470015 12.39521786139412 0.8647715221351171 0.2795069386562347 0.49250895161170016
Ni 1.9290427796564198 6.904566206726265 0.20551581490033968 0.3357873584155185 -1.484491973299024 -0.9480068732166899
Ni 3.0773588006963157 1.4562603036176849 0.29151597656356165 -1.2122939095993768 0.7268410935035095 -0.6967648429434193
Ni 8.064094100694106 8.978134760707936 6.955013264519677 0.25939499839770813 -0.6185462283501476 -0.6395961070419114
Ni 8.98486916490167 2.4788886809823683 1.1439923515365946 -0.29449749852779605 0.42052989017023706 0.41650020018555367
Ni 6.980109840796785 0.6045683957277598 4.602776885110543 0.6851928218351039 1.1272994097348519 0.3666889330903814
Ni 0.8499982962406631 7.383664461833178 2.1251904922905034 -0.7753308135737808 0.2949191594462469 1.9517215815186448
Ni 7.740806297210054 3.9050716793834446 3.84501353474003 0.8554782697586493 0.5740057227356115 -1.9234355900897584
Ni 7.806466738098958 3.5815472616979904 12.407098624468336 -0.06702943074567166 2.2166434232718535 0.47036249742164793
Ni 8.302683120622646 7.4820777685237685 8.93326178746677 0.2229472970936354 0.015959351542733806 0.5740460890552437
Ni 7.238983978222394 0.7518115931506452 0.18780342181619902 -1.4437039927483846 0.42857847150632644 -1.1593294415872033
Ni 1.9763929215753346 6.688173418998425 9.222150436340156 0.03524982434122961 -0.5675828499284031 -1.1136273115643982
Ni -0.12341523728713784 5.0513036753417655 1.0247560850680548 0.8712044222446544 -0.4298177432300662 0.8817294901456945
Ni 6.3220584450607085 1.90568167754113 6.944038005793132 1.0221346055700398 0.8653980999755225 -0.5818033644031594
Ni 3.5953891924799755 4.339786570635169 0.49147317784020866 0.3685380704839782 0.4852931505895513 -0.8308280753101368
Ni 6.214981418380341 5.841576906930219 4.710892284113214 -0.363079104251936 -0.001792316013732397 0.44004482027471314
Ni 5.333174893034356 3.223595477708624 9.268608724730711 1.0248754015399704 0.703356123007692 0.33062818281208217
P 0.23445100156787557 5.680087714473724 12.34225905284737 0.8461410515181234 0.5753642936460348 -0.6503973114224735
P 4.0428630495149624 6.322932097496652 12.799759891694054 -0.3178518569830203 -1.0088857109799336 -1.859964051898674
P 2.472873219939047 8.740410292669134 1.3483669579424826 1.268709569384944 -0.8674490689672804 0.45166414968119634
P 6.489326484359123 7.793343750467386 5.930751339110703 -0.8868207886256728 0.18354668380882583 -1.1882553805929341
P 4.8799676918884884 1.0639903598788996 12.506808758993529 0.5157306411438022 -0.9073248221162954 0.503721532498068
P 4.143933715698216 6.330267137740098 8.039039386929556 0.5461840725376529 0.13151501202356705 0.465027972582612
P 4.9580139761661375 1.074892814235782 3.656940736756082 0.13026442744591757 0.19386452079506614 0.20558720854863302
P 0.1890602072474891 5.727820079333363 3.480829696707598 -0.02376342096818488 -0.541705467941009 -0.5457413285732794
Ni 0.7770337569654199 0.0466166378945702 4.331643401888475 0.28152165509341837 0.25702135595920894 0.3860920202073415
Ni 1.6624877812314705 6.685506958959555 4.621584073903476 1.3290075949440532 0.4859827204574082 -0.3506802163669509
Ni 6.081758522445113 5.812273148141269 9.118643553937089 -0.41753069833259704 1.0240863299797718 0.035380436381822936
Ni 8.794440235504537 2.5549237445481054 10.061309982047392 -0.14550027055906553 0.48601460213660813 0.34843410064525154
Ni 2.4889265834495147 5.555737851091051 6.841343802166417 -1.110215714779688 -1.4017186494555343 -0.3372156062216128
Ni 0.733636892319151 9.440724624993994 9.054056977500698 -0.4585009700973717 -0.299440187245052 -0.20355398016868817
Ni 1.5549375261483005 1.1831529119231567 11.324963595560428 0.3721085614440559 0.2382340480493768 0.13638391008009415
Ni 4.258536894092391 6.918471841331705 1.5275949350671203 0.26293360767858587 0.5222671567107393 -0.26849850336087305
Ni 5.743181801332043 8.262640717308553 7.921694213962986 1.45056472442396 -0.27316659826050377 1.3175533303605245
Ni 5.729485479289382 2.993096843358774 4.729019662104427 -1.495162822749309 -0.7795448516551284 -0.2845748400974454
Ni 1.0391185670931233 7.604207098631751 6.719589414562193 -0.050342199897977814 1.2755649017438808 0.32323497567180465
Ni 4.9042479491707605 4.667615546676887 6.810002431081553 1.3663752369592341 0.058410064507776825 -0.5835144335569951
Ni 0.7885341172081514 7.60542657182359 11.123225417390925 0.044622780915697345 -0.8227298716830348 1.0862473768895486
Ni 4.960607631835346 0.40355826125487637 10.385201151745017 -0.7286429225989386 -1.1735898081609595 -0.21010103725858653
Ni 8.17858807253379 7.497484993253487 4.64160345545128 0.5433448033166449 -0.3576512483681453 -0.19120342902313522
Ni 7.337278977812285 6.128781044700549 7.11839082031428 -0.28331705643094435 -0.04315185279712568 -0.701370974256863
Ni 2.3281381330510165 5.278689922888567 2.4252400510330707 0.047413456286957055 1.0822428837158458 0.2655283649889556
Ni 2.618591165817513 5.068685718598566 11.260657315947235 -0.3807587809198862 1.0339647654357482 0.4221687113252407
Ni 1.154204074436309 3.5945610427750703 3.725617098658234 -0.48574772162846663 -0.3052033149810744 0.20575201626127143
Ni 1.7546854148621691 1.3730358085478263 2.4196595960984797 -0.6149469410346635 -0.10752739085971803 0.759197398347028
Ni 1.1612478972011062 3.7987317969459053 8.156557470274073 0.26972234846564513 -0.5172041403655351 -0.12356567526950332
Ni 3.6860579343477724 2.718779079018615 7.360913096313807 -0.291700138288317 0.28049964158680724 -2.4901242103386663
Ni 4.045138186066899 7.074400600055266 5.867989422188966 0.4074527452713047 -0.7806761370460942 -0.9851341170862904
Ni 0.6263305318743486 0.08015488083398523 0.320235480285974 0.5278351377168199 0.9059706220812462 -1.011044666304465
P 0.3876404958829038 5.893477321953006 7.839125868274705 -0.419899969895722 -0.6015021283836672 0.8771488127535474
P 8.613248360508267 1.7350282350534325 7.723551661600164 0.3393807321937316 1.4839589836136895 1.0991430019052941
P 1.716790740453105 3.320215976796289 10.40170408223815 1.3341248615659604 -0.2504447311829558 -0.9606813833605649
P 4.323441989646052 6.081867728999606 3.536745272717245 -0.799864537049087 0.45159215879268033 1.2515410280254575
P 6.912074157347657 4.265962939797913 10.347533990991145 1.7458831761911542 -0.7247875534085905 0.6975932523819857
P 6.5893323866360705 7.9262481272853424 10.201165356058826 -0.9850536415573422 -0.3256628683870069 -0.22036051020306568
P 2.617972328675386 8.907914946168951 5.627624885695296 -0.11079989096340273 -0.9302552056602236 -0.2961707724651609
P 7.091254811632015 4.038148966579349 1.3719018804903407 1.1795208289334138 -1.0469840605135516 -1.0956727839685065
Ni 5.527007426713188 2.9402226698917557 0.14551318358879242 0.22618483019432659 0.28744933343176304 0.7598139488851045
Ni 1.60594608764273 1.276479013283616 6.88389977634309 -0.45805951168457887 0.3355965825609511 0.0043865591034698646
Ni 7.155195249287655 0.9969193343277941 9.185068440707443 -0.5913354722633106 -0.6451838855423341 -0.07734623929064743
Ni 2.9308309062053595 1.7757622798793142 9.253597373761032 -0.7715726320829291 -0.9423491607102803 1.175501937582008
Ni 6.648558741356096 1.982854309382836 2.3058836573545887 0.11487843190815054 0.7942875571819418 0.5689637894363299
Ni 4.113155668423611 6.996390717962447 10.411494449848444 0.686108648781154 -0.28529166365881187 -0.8295782620634359
Ni 8.328646978953353 7.337197072896415 13.517764775792156 0.5219658234202366 -0.29025903496641625 -0.5800442156202075
Ni 7.7581883404668535 3.9064822640456454 8.177909171786691 -0.27722277060774836 -0.4061304269154554 -0.30002896986898653
Ni 3.218025943429482 8.323632577992884 12.151349614610465 -0.4303221936703105 1.5969661666410562 0.6424587733016871
Ni 0.08598196057080651 5.303088487271539 10.184182826780548 -0.105213912235193 -0.9753729239344685 -0.34571001684586916
Ni 8.593208957758804 2.446399731020706 5.597615834575246 0.6092496335395701 -0.3075085660754833 0.16415516665609148
Ni 3.9286420940615128 2.7109162070951203 11.52252007274747 -1.3477334534883303 0.5429491105401231 -0.5833005177739761
Ni 1.2424065682818062 3.5467831751843915 12.56859873758028 -0.010935415965581166 -0.15311922055690405 0.5831596213207377
Ni 3.4586352846161414 8.345719603639088 7.9226925438819755 -2.1023712574891342 1.5178880322609665 0.4925552314686033
Ni 5.7181826008993575 8.05127143108739 3.5215073181469916 0.6877814084978865 -0.7592220809373763 -0.6796402674479908
Ni 3.403604281697887 8.097939032040724 3.542911802827615 -1.79869209246207 1.2495921318292027 -0.08962377110641985
Ni 3.515131475473843 4.487770552519365 8.96136609426554 -1.225550774609283 0.7911873209900633 0.936961928256438
Ni 7.2781709301929585 6.273288617933385 11.614251758412331 0.6931933235420771 -0.29167185615354285 -2.376831891970713
Ni 8.07726259105672 -0.025598016373154585 2.1475541745414244 0.928474202500401 -0.8165738793839677 1.8917945661457094
Ni 4.902154823542978 0.41023078173439753 1.4334388638925142 0.39510347967733245 -1.092708302023544 0.03290420692718849
Ni 6.176367800820865 5.674509079648374 0.141210445341769 -0.7346065963815412 -0.07174097728872807 1.7034345201086407
Ni 8.11573970042308 9.03292914942479 11.297752052344638 -0.1895304121960865 0.4234347225218579 0.06794680035361847
Ni 0.01625539563628012 5.300285519039553 5.711458207306452 0.3503210332553192 -1.454632209625114 -0.15209232195428646
Ni 7.401865554248675 6.325434747703784 2.472644796229232 0.3789317550134765 -1.220747953904001 0.8327751717341787
P 8.750047771103139 1.7046233101733455 3.2665573362461626 -0.37954984821344956 0.4645474334017677 1.5485921462130425
P 1.9742178910316828 3.3687764913608333 1.505257644400202 -0.3580507977994091 -0.4359246274587525 -0.3794765717733529
P 4.987181226761971 1.388370228907882 8.46892825852731 -0.5008017877481117 -2.42594021946159 -1.1231720178300397
P 8.832480518652924 1.753820862972433 12.32389142043627 -0.2708130104266626 -0.8705493051591587 0.03263835486031153
P 6.594173877218592 7.772385192550941 1.2505169750621516 -2.7059284686296174 1.350139748936978 -0.5306877766742667
P 1.7732141269411448 3.33556859824876 5.914661573415405 0.5531846722252022 0.8291306330030559 0.2876107987102917
P 7.097224769944298 4.132139407812974 5.8968527145414615 -0.6247413014172659 0.4978707301442458 1.755385459254635
P 2.4348329367906585 8.609699147487245 10.124324894153702 1.1824688558181442 0.5790967641052737 -0.468265248572987
