# total energy = -340871.1761267132 ev
CRYSTAL
PRIMVEC
9.25075926192138 0.00000000000000 0.00000000000000

0.00000000000000 9.25075926192138 0.00000000000000

0.00000000000000 0.00000000000000 13.53942126090103

PRIMCOORD
 96 1
Ni 8.369291159188293 6.76111146595179 5.836180804938883 -0.8826268051489832 0.23381020795006827 0.1866967994020333
Ni 7.580959980491259 4.900293544990908 0.3166340532671993 -0.005177430435881406 -0.812932940197271 0.7935715049515236
Ni -0.07449636206021275 2.398675549534691 0.48106814427585365 -0.629984037873444 -1.0031994592284335 0.7409345954820982
Ni 6.527391040340056 8.997232678702417 8.282943649799714 -0.22315375667748663 0.015400907936102512 1.9423632802321966
Ni 1.9497824700647017 8.28842102419135 2.341805583633615 0.04038097492020788 -0.09676578146783979 -0.6537508012757386
Ni 7.149023542230307 1.4648854366473203 13.001242388011583 0.9634689734080312 -0.325389303010646 -0.09699229565634908
Ni 5.048166927274839 6.607067827428672 7.98495450125527 -0.01952855695123088 -0.3346231629040882 0.47913921517301356
Ni 6.218128916903453 5.559456376060131 11.947970397223616 1.0716532811254575 -0.6521716297140768 1.4127746501593799
Ni 5.2487788864996965 1.717190637048443 8.769035881277219 0.0393911002031128 0.1513292185360168 1.1717951781543818
Ni 2.274659874658345 4.207309939093404 3.8537385302978024 0.5604608941716412 0.08947104757863945 0.7915812139943722
Ni 2.868928631487858 7.6827183292634365 9.252028183420764 0.4422868222313544 0.3662577590902337 -0.3697755424355051
Ni 2.15155077416197 1.5214353262877127 1.1929899039557574 0.5870900667233954 0.7200340978840051 0.24709921174949057
Ni 5.552638566692395 4.853197931027348 5.436348200639655 -0.1136198769107011 1.0032274842528914 -1.2093625948851945
Ni 7.470052631088565 6.977375709369602 8.647289417578492 1.2193004228241968 -1.1390472942993994 0.8821632352490032
Ni 2.085888886926978 5.057602701433713 8.758786965404065 -0.5452872717549964 1.8075832243041128 -0.6056950834190923
Ni 5.807173200007527 7.4726335928437875 10.54894203882575 1.2601007446700103 -0.08678115945130216 0.17221968883178082
Ni 1.0604330033138343 8.580236216193015 4.731485695136845 0.05737828080915279 -0.7051157860112759 0.1855914821529965
Ni 4.996501438375511 1.0053354828331902 12.455820413820408 -1.8919647731749865 -1.0086437701724564 -0.40007676452220775
Ni 5.336910867295381 5.743416969122269 1.3535747541531298 1.3357186884156416 -0.7001589562266328 -0.6310235348815519
Ni 8.91148739372339 8.963744931197391 8.982525822077143 -0.36437828267933375 -0.14852723031084744 0.6499242284407968
Ni 0.40458286903509383 3.700877138772238 2.6911762227767215 -3.254970836551672 0.8711247180466545 0.12301623052393654
Ni 0.9378049422843819 7.905550611556545 7.242778134333603 -0.3406683406569036 0.43674172404340916 0.7566172963246776
Ni 7.364843749217115 1.001514919374744 10.370979637885783 0.4592460757935123 -0.9094446966727756 1.0706204689855692
Ni 1.4623414779280157 1.043124833263585 8.331510134440979 0.3222088484001354 -0.2710063573843913 -2.2151239013035333
P 9.040951765638535 5.4649228700507795 12.240083463664414 0.009316392304919438 -1.0382304826906377 -0.3607607405314045
P 2.4315434961881044 0.9280453915612322 5.044815377296643 2.0004990080326643 0.13615379634715905 -0.3541704889083965
P 6.253392810132502 8.746638868712463 3.7884383477389005 -0.7940934388932647 2.8714568614841514 -0.23617947951319324
P 4.619745777426016 -0.3307951151126946 9.860205456375637 -1.5543825276425747 2.832867688357044 -1.5073292829085139
P 2.7513422341021183 7.087163716935803 4.021749889803748 -0.41920885736596836 0.4930460550620928 -1.6256972160271617
P 2.4237821094044807 3.1755450378563856 7.991738082814783 -0.12128819208923629 -1.7335711915930208 -0.18284785796958833
P 0.467276187713632 0.172035439661936 0.9860013965664767 -0.7863119951756329 -0.24802917976292768 -0.055761056920703975
P 7.912877212668142 6.1513384370729876 2.406361080094684 -0.022730094607664078 -0.7549275673270804 -1.1807760414967536
Ni 5.398104637943376 1.4968283074028046 1.2986187702848688 -0.5739740981667276 -0.9833783107374484 -1.1139875231172944
Ni 4.5466277784537175 7.700405780431836 2.237957488408017 -1.0741878746218532 1.8996243466027736 0.35928981241283287
Ni 4.176051624502387 4.187272795144264 9.208769784281815 0.14075838499870597 -2.326121510100039 -2.7029020230984675
Ni 6.568048126054031 1.2716555830879357 6.636549996295665 -0.6443721882743161 0.7525971194216909 -0.7329598048067377
Ni 1.526375231582653 8.57706320586312 11.012030407949458 -1.6538603087249388 0.39635972068193676 -1.6761959961076618
Ni 8.719894924503338 3.289754908214685 11.788042350913774 -1.1220471601969773 -0.7433789432575326 -0.41552600919774246
Ni 2.7832481018216852 1.2676870074858206 10.045654496557543 2.460042817572254 0.11233535377132266 1.036185684346467
Ni 3.9331266937062628 2.050310467892633 6.828986134734627 -1.133217832101816 0.9983827545660807 -0.012040990324934102
Ni 4.619634768318265 0.544775346138522 5.311392648651013 -0.06947686384489969 -1.0286469527672608 -1.2140522870513804
Ni 9.095235219329002 0.12499070487276277 12.344918614873102 -1.4025064354641523 1.292207395396568 0.07152783283665745
Ni 3.800276544004696 4.334544878094542 13.593307614052229 0.445741099328542 -0.7919709932336232 -0.9360988089251944
Ni 1.7349705958066362 3.583244487591602 10.694964344237926 0.2562132582356168 -0.7158917935808573 -1.1171363531589211
Ni 4.1772449724107155 7.169569477923306 5.690442497827371 -0.07753752936584711 -0.4650032899922637 -0.6908099109115652
Ni 3.151502315269214 4.454138690178788 6.236893156417042 0.003529096199181019 0.034092313698018704 0.3653329332831192
Ni 6.251246634049307 8.185691345726347 6.147533599904806 0.7381724593559288 -0.26174498668712337 -0.3429759057441577
Ni 8.04622690335459 2.9324165903627173 6.013898985841796 0.23702974332863047 1.7320560405000751 -0.4654231511385017
Ni 6.421516103822097 3.567370185183142 2.0376554296089657 1.7941756926489554 0.3640540665706956 -0.3009615089855849
Ni 0.6414282010300293 6.165982388537202 3.6345223696896976 -0.603785010880573 -0.610732902953316 -3.0017590841465402
Ni 2.1518560492082863 6.081134427179165 10.861215284310113 -1.8241938362776002 0.4845444453489849 1.178335550376061
Ni 1.2612947330311322 7.740156291765841 13.20078680965023 1.5520531081784494 -0.5756792537832924 0.8999560404560502
Ni 3.575686617505523 8.172675527842488 11.746611901749128 0.5541583489923811 1.0574103980531981 -0.1850124697210749
Ni 5.962114162151635 1.7610762376461895 3.5435235786863317 -0.9881538777492208 -0.43325736503923445 1.2401646678677158
Ni 5.836988396197775 2.8925550699209617 11.048208276165662 -0.28679910144227383 0.8473996065155728 -0.1208269361821016
Ni 4.2240908158818335 9.007501021169428 7.666128018109979 -0.432028634838456 -0.2873475177465761 -0.5375780760361968
P 0.5638901894174264 1.3774102597391653 10.366132240180637 -0.4925305488782549 0.18090538953123683 0.7020212062463522
P 0.7612144289010442 7.047681477612198 9.434106247030616 -1.6285979346137243 -0.419660085970774 -0.46837220646449657
P 3.586093721357223 2.657363773631523 11.691370994504306 1.0808974254315449 1.4456495465105295 -0.3263686362047799
P 0.5915555092208874 4.453121106691066 5.575641503970295 -1.21266029179986 -1.8321827680203475 -0.7777494503176025
P 2.8432300230433936 6.846977010797547 7.321590900533551 0.858089225018935 -0.8712373323651188 -0.4194597970345099
P 7.975282832742424 2.5586304230455736 3.4039860553186374 0.06933133940597093 1.250308441169937 0.5704624854690433
P 2.0491356215022636 3.8191665938404045 1.5720887821547065 1.6516075081350203 0.3959815114069116 -1.569783178468361
P 3.4841966112003564 9.133394600118569 0.47903575252810393 1.0607052667543861 0.05374145538751389 0.10078081616450385
Ni 2.8936189072035803 5.974926463337951 1.5208155254361002 -0.6770946182080015 0.35811353271654456 -0.17077215775197685
Ni 4.251759835988887 5.685090933757853 3.5334643033722526 0.46127467618776685 -1.0395715700995645 0.6695831403223048
Ni 1.3900745487818118 3.642865629213118 12.97710160737923 1.8239148715846007 1.507391760715333 0.3600642286850121
Ni 7.871258048020321 0.9843825137451012 1.848591192817955 -0.17946557176091674 -0.282442624245791 0.6348290246705712
Ni 8.287301682354856 4.646943008825125 9.844134112800921 -0.4941665418197812 0.38310954054024987 -0.14246662593906434
Ni 8.365590855596576 7.957225351214852 3.603895881936966 0.26605929779176113 0.46505934004117966 -0.4603480506084394
Ni 0.11712663466446936 2.896653156148787 8.185053968432674 -0.48540807890086074 0.3166046148394806 0.6150677828832438
Ni 3.981480410891006 4.837490142280516 11.288654928631232 -0.40390436579841404 -1.0992160212350746 1.646365028789158
Ni 4.166948877666767 3.3848804627987117 2.1096855393253002 -1.2853795738414573 -0.11370138088091385 1.7476114717361708
Ni 0.033412816357293235 5.23377415543529 7.618388551321462 -0.9675606269789013 0.8023209690093795 -0.5215819577182566
Ni 2.154760787527783 1.4047462525229637 12.404844106465038 -0.9749828875849015 -1.4487071023899307 -0.08588538710991014
Ni 5.836886637849004 3.584012300586883 7.13297347540124 0.7164144988535468 -1.1195403346147237 2.181790063038094
Ni 0.5553591394867262 5.647699365963568 0.6923434533761369 0.9136623342985492 -0.3861871510243091 1.7679352708951874
Ni 1.4854498738582793 6.301839034907038 5.581382524992842 2.4517129575503196 0.8329806028767655 3.0872639479885797
Ni 0.6075232442950379 1.5014166838565317 5.834718259944257 0.5972294691502423 0.27370164482836734 2.1822526044968096
Ni 8.345701723791105 7.153898692212391 11.11363056874309 0.7093992438779783 0.05015836602194588 -0.9104484553469417
Ni 1.0431710870584816 1.4586411743363004 3.366252209442118 -0.7978248809112389 -0.4965442980233384 -0.00177354696065501
Ni 5.292507224194794 7.5637905718257 13.211117132202402 0.5141640679876306 0.17254416205073508 0.8604484692797311
Ni 8.096079243493977 7.216646590368907 13.643539235309767 -0.15087670437963047 0.5262989035779517 -1.4353628198725408
Ni 8.133563318878055 0.8078808076479645 4.591664173468487 -1.601420602867984 -0.5594669056894881 0.17745599753005564
Ni 6.8574951237569985 8.045089060000137 1.753274147523057 -1.4885782275532558 -0.106817509276887 0.3895632665853936
Ni 6.377612001706392 6.7886602261921105 4.17963259330327 -0.7477210222763122 -2.0928550904685825 -0.3698735014659501
Ni 3.4076373298877622 0.9605525586144531 3.0548855383377256 1.40911597036087 0.30580083935575725 0.6220182460591481
Ni 7.767372024682908 4.870774373087997 4.291062610588293 0.8582496618561993 -1.1013983735983741 -0.5542707062005293
P 8.34799591201797 9.16431988738633 6.771984808056045 0.13608617633401723 -0.2363167764220059 -0.06335378166629735
P 3.249338342234172 6.332422044092566 12.734516179437646 0.02488005107113134 -0.2555242025883922 1.8425710532332076
P 6.908503808768797 5.518771538069219 7.263276891155808 0.41480481476100173 -0.4874130251460315 -1.5481486309177208
P 7.188570536866766 2.7246907974827868 9.224150096160779 0.34093933493010314 1.411333032616847 -1.1797509426663488
P 6.92200066611958 8.51981950929928 12.089091650528564 0.508802289455085 1.1899309685231443 1.3223160418564905
P 4.202730813398656 3.282992603400825 4.398484274007591 1.029781066371704 0.3706355764429552 0.4710656941362597
P 5.577023567361801 5.4360234989994805 10.010600595557323 1.5856183457284048 0.10712655587687356 -1.7508392346448491
P 6.243679513204249 3.3648248173316135 13.148077835138038 -0.5894256568351075 0.7412377285448137 1.2998116901063872
