# total energy = -340887.2952168926 ev
CRYSTAL
PRIMVEC
9.08418946011727 0.00000000000000 0.00000000000000

0.00000000000000 9.08418946011727 0.00000000000000

0.00000000000000 0.00000000000000 13.29562951882233

PRIMCOORD
 96 1
Ni 6.520058804494512 2.2430407793235845 11.56766317566769 -1.0383369263615148 0.1521242036334864 0.16026277358022076
Ni 4.722724690960373 0.39065556996866757 6.181231259968706 -1.52347375387886 -2.49278247389712 -0.8672953169982353
Ni 2.830170104761857 1.5913864570016003 4.5821786555828785 -0.5853046926881984 -0.6800953527075384 0.8996084273086441
Ni 3.290257042276899 4.602104824900691 4.9609184943939555 0.5157810347657633 -0.24571827224156395 -0.588213381694561
Ni 4.950746927589691 4.710470119540391 2.458428725418499 -0.9057009133596273 0.36372496536605103 0.676067462495068
Ni 7.3077851989439235 6.1581628695581045 2.7956583610393584 -0.4908068813189289 -0.8708550093250357 -0.41245534069221873
Ni 5.2477726664474575 4.500407325236724 11.551096339567898 -0.4472079136820556 0.2085532331554924 0.16156118067667016
Ni 5.660903429262809 8.039107861779796 12.404942006130232 0.20765386126967467 -0.14605357195937427 0.11906547340630463
Ni 2.097784591773176 6.238021978048138 0.4269559905722592 0.2646009680786797 0.9760565802650545 -0.692772948175207
Ni 2.801945528481737 1.5700386120520409 0.3693204428841842 0.05334884793478554 -0.7179047102458281 0.11314010906080516
Ni 0.8249288750544886 8.722974719502265 4.543475466898793 -0.27825892518174655 2.0287382053840153 -0.2096348962554454
Ni 8.423841448717562 2.3948103306309436 1.5132424434590037 1.006657335870047 0.6975796255352309 0.9301672739321077
Ni 7.7240590912709965 0.32746958259370706 5.272341764937066 -0.6142452869819486 0.6449661131045732 -0.22490210682716102
Ni 0.8501402257304517 7.601676892479308 2.3831616746399558 1.6257247268309871 -1.2394303608048525 -0.0011438837964560945
Ni 7.757516160611094 3.733374714104375 3.8548684791785885 -0.615437764628153 0.6859592676874832 0.054212995707293724
Ni 7.805489764516891 4.01582032907106 12.922261153326643 0.06860114610816573 -0.21906133177566792 -0.1121882866704971
Ni 7.614939808916056 8.35772671869931 7.438173293801164 0.5270877180278342 0.9292367916980384 -0.011875668391663418
Ni 6.728695381071762 1.036415161827771 0.36943490366987125 0.314164123718788 -1.928447698592369 0.5389227629895492
Ni 1.5486725987238006 6.890911750120395 9.201293625023164 1.169695872423192 -1.0648768816335725 -0.43147636187941174
Ni 0.3029213777395815 4.9103222850256305 1.5860885577783734 -0.6005917007542559 -1.5541079338249493 0.23317951634460485
Ni 6.229973386292687 1.9389475411591122 6.568931743144994 1.6929256501575167 1.0521764033477685 1.4158136940960198
Ni 3.45205553861588 4.05090346830306 0.006586945690606686 0.5150588118877582 0.643460217983008 1.167052521263074
Ni 5.724429165319093 5.649057646363137 4.768876006484518 0.4331668622079572 0.5340083564070673 -0.2866232379860419
Ni 5.318838279656141 3.1878873126017546 9.444138533398949 0.499300777722553 -0.43052942458511023 -0.18734934538436768
P 0.472415999287613 5.310889613983432 12.558692819132697 0.3989997294079451 0.9580706852105951 0.10641461741151352
P 4.1787725174562524 6.159943370668791 12.581906556572742 -0.34113422454972864 0.12931620460003534 -0.1669224449885835
P 2.4063472510930457 8.379792214606749 1.0863382327659838 0.0716533026709282 1.0288894077953699 0.16058724679917505
P 6.178393359218815 7.6373050830717215 5.9767706852311635 0.418882327264485 0.11497459116638263 -0.39859915153541675
P 4.799631437914829 1.5057952250378763 12.657412521530933 -0.9890586489516772 -1.3772378907053506 -0.22474398398274195
P 3.9716620846881625 6.016958230453443 8.629661018180403 -1.135501228819354 0.13187213825266966 -0.42444670872614
P 4.772860331929147 0.8673484055976648 3.8411867816132563 0.15349820116287757 -0.000935624440391937 -0.61115302120987
P 0.3258843915538355 5.699365886929376 3.664887193830452 -1.813140663787232 -1.150822689667773 -1.2903726561806743
Ni 1.5697660863718337 1.2181080328218743 2.552920646097788 -0.9909664074973514 0.3815038866160268 -0.579525109891944
Ni 1.6892958497106871 6.605840804434382 4.866731802476497 3.507392231845024 -0.29784481773347415 -0.5811672734810571
Ni 6.056547127598201 5.597532124425307 9.139442105062285 0.3110258352001224 0.16122436616254168 0.8023487369235213
Ni 8.425140487793216 2.2161243263084587 10.440313461706268 3.2555498489835935 1.3872446242090752 -0.29727763237609445
Ni 2.385108416415569 5.021966972017157 7.110954434833247 -0.7444981444636404 1.327541551921488 1.5520379386697982
Ni 0.3571185597623764 9.068519113626245 9.08102077499628 0.3514790581191624 0.7226599655426263 0.44122007152973686
Ni 1.3425795951618176 1.0353341432962828 11.678827309043118 -0.08581262489044576 0.3379247164734954 -0.8802097110670584
Ni 4.3611557868402135 6.940193477291187 1.4058137287402812 -1.4902468735049303 0.22956917328552723 0.5431684256397807
Ni 5.4855967433748924 7.868070744881792 8.388026123824739 -0.0027197129240082193 0.6160304039068293 0.41681670298470797
Ni 4.8237136238558 2.8863103948845286 4.693822434155471 1.4144070435564802 0.16154626827833468 -0.20061263815217706
Ni 0.8238742006720869 7.407175314515469 6.764230912932906 -0.8082417053691887 0.5580646260253227 1.697957556154469
Ni 4.6944456095442115 4.558546137014249 7.178708861027413 1.885390976612211 -0.5992249023137164 0.4637640182685238
Ni 8.23795168224827 6.981481117842569 9.237257930621167 -0.6491598394709466 0.09262142028216307 0.7246597695814745
Ni 4.451225524148675 0.6853248701115767 10.51544697490151 0.811043436484042 0.041283946350451475 -0.7613411841629081
Ni 8.134037640385285 7.117698536999439 4.796757200407577 -0.13416221983842702 0.023934656438726522 0.3068889302136134
Ni 7.468166561745829 5.915287983357498 6.737334445134328 -1.9038165303072503 0.698307761950507 0.3956115296620025
Ni 2.369937820217371 5.4255411676465775 2.5872761417636347 0.5207928861580579 -0.3849522501759435 0.7886069618573966
Ni 2.463541307179185 5.247345709548466 11.464502213101012 0.1652874804883218 -0.35364675519444255 -0.806832740836804
Ni 1.1010219164155448 3.375911863566004 3.8052751643134264 0.2582223182458456 0.37001054126444666 -0.32599016981943857
Ni 4.135377344977934 2.417320951816053 2.3351644518418735 -1.2154085439689584 0.6264742249479727 0.3594353368517616
Ni 0.9857798904452836 3.1163765741154 7.91306655152186 -1.2476121252846966 1.4941971164019299 0.4188080223831239
Ni 3.732638894767816 2.512750360835255 6.974608020187745 -0.3484320437627225 0.2588854057511412 -0.8321187690971024
Ni 4.206352116293215 6.6574753366442945 6.396859937081137 -0.801999838224535 1.9908391163453971 -0.289436796175437
Ni 1.006891546471997 7.264135669164079 11.480802882453135 -0.21826197580282408 0.8879338191841933 0.5706023534810174
P 0.17658937342275755 5.500794592141111 8.021532680663238 1.2795351992455382 0.36060184635603704 -0.37674477466448664
P 8.4176641999662 1.4264811679082572 7.697012734348306 -1.0688584919891397 -0.046331793187004075 0.0761722735872043
P 1.4090940295110412 2.9144259608925656 10.047692981583307 0.6672408653423734 -0.2949790661499049 1.3820553666986521
P 3.8007067254942206 6.337484767134406 3.911042380801819 0.9264196339642174 1.332722324791479 -1.311032755633187
P 7.165326941710309 4.217507500803028 10.544630841575957 -0.10560292014349555 -0.4468055360373143 -0.4466373858905663
P 6.597456097673342 7.681917536921633 10.477846606803329 -0.7211245027347065 0.649386867880088 -1.1813319140002236
P 2.6239045016024094 8.435923420540078 5.857828668942623 -0.4424349177734445 1.0103306709565762 0.48957660845625356
P 6.885679257060418 4.105926403136882 1.8724503667696348 1.5276813642023044 0.24806903186192764 0.021523733004388736
Ni 5.616063870679393 3.1361165175517374 0.5076735549549454 -0.5651079060253494 0.5759775017500015 -0.18202561917860907
Ni 1.1977049435636993 1.1903921711448076 6.582094733498999 1.17338720523185 -2.3974225716378714 -0.5068495366040885
Ni 6.810916378790257 1.3459861661644068 9.247309586126141 -0.7762720944411275 -1.769647625600604 -1.5232017311643962
Ni 2.44009501449203 1.462136611068692 8.588577771889177 0.4821880293016664 -0.09571162917171258 2.6159894802756236
Ni 6.499719304561719 1.8380221975890663 2.7457071291141903 -0.33032453552873436 -0.42754257404264434 0.7016321983380497
Ni 4.045516544024299 7.2512270361116 10.41107599831471 0.5846801717303222 -0.8430138187430514 0.2622376100528258
Ni 8.424795288598288 6.865412430642347 0.8081240331939821 -0.6894217723147869 0.9465094627355571 -1.73851233764838
Ni 7.710696248751506 4.025249717606227 8.035892058753351 -0.8534758946166398 -1.869972842284928 0.8897600737596546
Ni 3.303883326287256 8.595632553330807 12.32524822988619 -0.7574022541198182 -0.2449322860051588 0.9733278684799819
Ni 9.325102041541271 4.935694425852916 10.23977543992584 -0.0970012945174136 -1.095333912571849 -0.04669071918831959
Ni 8.638827873643638 2.6355595165259347 5.864701766597447 -1.0075996451786582 0.7154009699873679 -0.540431743434908
Ni 3.2776209349046272 2.5949622743644105 11.397000327370504 -0.1895815771489961 0.6682253407428298 -0.5853476301109919
Ni 1.1647384204479752 3.2337261320125963 13.024318386888483 -0.5402011154813406 0.22212325853044326 -0.43952777142897853
Ni 3.0653143458339214 8.404701061777681 8.136446767398317 0.8272390724072978 -0.9194102925259198 -0.8908047129740851
Ni 5.566545954585755 7.898566368496971 3.6088595476555994 -0.02144222903417597 0.20945106237941347 0.1382829268750199
Ni 2.899391627534471 8.492499751751081 3.3062106955962247 1.9673695724685474 -0.8576079145071422 0.40088717623864506
Ni 3.1750513530639983 3.9463989541329605 9.326046797232655 -0.499762804960636 1.0028963261657178 -0.6420630805251653
Ni 7.766418666164527 6.310068683705567 11.738831104892194 -0.936463905574097 -0.5121971740692469 -0.28983223184164275
Ni 0.22431134528383062 0.14992546087129052 0.5037291999434139 1.1203276064027092 -1.3315902680695648 0.9929986074360319
Ni 4.674787423811936 0.2915316211447909 1.496503007761747 -0.25434689445083936 -0.5366306245212629 -0.17402306058910674
Ni 6.146971148290931 5.76510816518468 0.4502069731885988 0.4320114084472753 -0.4276485034928893 -0.7828713449252
Ni 8.064480002607082 -0.04201528411753549 11.616470708154921 -0.5947799791684852 -0.9944798199672487 -0.8750790747087124
Ni 9.390599046684388 5.01254666767133 5.852457187785741 0.012202455603462855 -1.292991324750444 -0.6788455394608374
Ni 8.008939268980864 8.579181086435636 2.7024963656794796 -1.9037378545505148 1.593268663184811 0.03383494627157398
P 8.688282200411894 1.5615994001549593 3.721181006752974 0.028972990193582362 0.05112947168596356 -0.13821067887618776
P 2.191079216297422 3.349967418810284 1.685314249522861 -0.3447916187966578 -0.267402699193533 0.7017368422367141
P 4.778156414314505 1.16530164018707 8.31863654354933 0.19757873642185972 -0.0877592070938553 0.24246248430842754
P 8.561194391541964 1.751849577507567 12.73267866389054 -0.5044131592484538 1.4053647308485537 -1.2969382252133341
P 6.340555223131406 7.885357957196265 1.238492953701369 1.5327546649601538 0.047864684891762724 0.9608055676432551
P 1.9135299793851257 3.284515834613868 5.888049041620794 -0.8666692533784622 -1.451142708414617 -0.1682483628888586
P 6.355253441483911 3.9746598671704407 5.863585319727532 1.9991964871711572 -0.628156240636086 0.5856664469029913
P 2.4090089185697354 8.779696397742711 10.253868651268284 -1.0858234019782527 -0.09358866929143882 -0.17500265089355665
