# total energy = -340869.45537580614 ev
CRYSTAL
PRIMVEC
9.25089754775905 0.00000000000000 0.00000000000000

0.00000000000000 9.25089754775905 0.00000000000000

0.00000000000000 0.00000000000000 13.53962365619907

PRIMCOORD
 96 1
Ni 5.357352079154346 3.06523867313064 4.343714574907908 1.5834005121414794 -0.15006089334655445 -0.22062404827709747
Ni 3.249183521480637 1.5835594043303198 9.787293345723162 -0.19175390220996652 -0.22600356742145591 -0.7490225146965551
Ni 7.876445509273583 1.7751732468103782 7.8606449761322725 -0.16789432198354956 2.1778542183187977 0.09763661410856733
Ni 5.358989488033744 5.87627193045915 0.3020057289136404 -0.8811764458557019 0.13544931408096675 -0.6176687108412008
Ni 1.3418797039107029 1.4047673059567336 7.880156044310456 -1.0021651044266484 1.0090158087998944 -0.9017295874167051
Ni 8.217100563369351 8.369009553248414 3.9611927334364814 -0.518959432493745 -1.0887889123644798 -1.8613182519337235
Ni 0.7826481411207884 3.345642631003138 9.307638004292466 -1.2106746288283987 -0.6681073271077268 0.6526891927804437
Ni 4.243840033982731 7.614774619089112 6.675291385104631 0.26908831442607206 0.04272864921677803 0.33748737182576066
Ni 2.4490826369029426 0.05768674740197693 5.962890860179304 -0.8958756997390894 0.2883847007618388 0.24278952863054315
Ni 2.3031589777864245 9.265606550939104 11.995822116447295 0.3549598175789113 -0.9446150739263215 -0.670611067366187
Ni 1.874564890879598 3.679405766369238 -0.04854038492140754 -0.24375780608108344 -0.21808251280216634 1.2076895780581458
Ni 5.427668151992222 3.334902338862002 6.802198899065836 1.1957678869198956 1.0378018797936515 0.6580113763243055
Ni 2.9027651581652916 3.4645814217512725 7.75898963741453 2.558904305226857 -1.0285155693957189 0.7083255511978254
Ni 3.1605136677573054 6.265762473110523 12.469452348255665 0.04329454902257705 1.0341344582443932 1.8618944361521677
Ni 4.639926466639816 7.099601381321914 2.295684252506461 -0.5385147289178532 1.2260336277829724 -0.5796125273994276
Ni 3.226787098333617 1.9620413788094697 3.9477484039199333 -1.156901805982317 -0.6362223054736721 -0.7992554427101783
Ni 0.6410455762843087 3.567164625500675 3.576776308131717 1.119519508679117 -1.5458251249908668 -0.90641799403131
Ni 4.359087716579002 8.849491924926673 10.902917370822273 1.0102332261467635 -1.810686288709469 -0.40378635216331105
Ni 6.383082356774508 0.587129494753759 9.703780867425053 0.1996081081470627 1.2827724752359133 1.4072310946333313
Ni 1.0060351165792667 4.2449593925952005 7.122884965551049 -2.235994059884323 0.31116698876367704 -1.4638683835114015
Ni 4.558324298701004 8.488928939144664 13.49046096772868 0.8358772076982702 -0.3566120084703536 0.29900644214174305
Ni 6.802952847222168 3.9620484414666755 -0.0038150701800210535 -0.4368785067315895 -0.22100508576560002 1.1277434392508061
Ni 8.741200917343438 8.496255650062649 11.25160312914519 -1.2356109870587624 -1.1574859606205614 0.49883977892573445
Ni 3.1502266695997316 4.402474426434237 11.339867793552603 3.1105082632285006 -1.6120832247881527 -0.6446632371521736
P 8.95950359946792 4.439977565400787 12.825963440878485 0.6454412529687789 -1.5130595005240717 1.2307685713647964
P 6.944047537779107 1.8661373231443912 5.78200158331442 -1.2330326848086248 0.3057329622322993 -0.2600735125219714
P 0.7001273590479422 8.426235605948731 7.8207847084512006 0.5850907769051795 -0.6008102445229653 -0.15458012137314667
P 8.552417849536235 1.4016497534575412 10.344895825441542 -0.246050458770002 0.018065085031826956 -0.42783799379587606
P 7.945318442082159 1.1870659321777923 0.061881104384570396 -0.099655444310809 -0.45574911838384735 0.037846124313496106
P 2.0498694008490426 2.372152172264109 5.848237085210474 0.5417417204955831 -0.528268882820129 0.3127451318840743
P 4.616956487840125 9.476341998807387 2.0250538679734205 0.9015881767428343 0.44245111572336054 -0.6379930242208496
P 1.9790907831299807 2.5934891488091716 2.060406173242457 0.42669385288910383 -0.08618054975282577 0.021882144785071993
Ni 9.095195765812607 2.2050717102821493 5.747651150258032 1.0331332706733884 1.0217067740040018 2.0214941222270926
Ni 2.752068035874935 8.899261754142273 8.372523969255665 2.569402119434388 0.3931939213594454 -2.1498685317391493
Ni 6.853083461445093 6.503399531268576 8.05168896331871 -0.35527657748838165 0.01712508971606083 0.13624918427444277
Ni 9.151987026324608 5.858084665730921 3.0173995062491104 -1.7345777784806642 0.7919285700314619 0.20791534246117738
Ni 2.1362912864498105 7.933884332619244 0.4382233462433543 1.5669752767059206 -0.029947438291709715 1.9596223244229605
Ni 1.069653539537571 5.112776847778506 11.167901007445796 -2.0264944036551613 1.3970785795803615 0.28980009305212673
Ni 2.7163410692521386 1.045638209306401 0.5204009200143607 0.562921954117624 1.3460180134591204 0.9872200530810418
Ni 1.2627937801255429 9.243792934342379 9.928890360021068 -2.1274783369694066 1.7152171145658655 0.5919039431722709
Ni 5.202815834350147 0.3276677189218325 7.72546530951594 0.3890428753055493 -1.1106440605663583 0.2802926677823237
Ni 5.576431836679221 5.201779733816291 3.2467070561867675 0.5309274034888986 -0.7285873867706549 -0.004623100594308167
Ni 2.861561660149254 8.779962178386812 3.0234653198209815 0.010407568486569173 0.20965212264662603 0.033498388867761665
Ni 0.8803588970917787 0.8180531765062796 4.121962233059541 1.7758923209587352 -0.3791292157362632 -1.3584819502540861
Ni 4.518961729312086 5.518715486404848 7.788790479019573 -0.6292988388809614 -0.030640607703992392 -0.15505294724450716
Ni 2.1605101364287025 7.158168814177669 9.585972536366537 0.03087072143692748 -2.6724123391500427 1.6751603557542956
Ni 7.744712727111846 4.241545811372049 7.316799506270125 0.9052962217220408 -1.8273053853233883 0.47299067907311443
Ni 4.472771997476865 1.503844419506747 5.893906916599242 -0.6274759267396096 -1.0640932093900126 -0.4413352569513625
Ni 7.399644994849565 3.2030677968264056 11.489400227832133 1.2487002161425527 -0.6301838125890761 -1.6632666896405033
Ni 0.1242136525731782 1.341158133896053 1.6920058269936342 0.6092971989480539 -0.09782301908776057 0.2622494371273677
Ni 6.089902909283656 4.293989150000903 9.276077641959391 0.8054034645894451 0.7158532270334381 -0.3069308391951424
Ni 6.049717010006227 9.536842869266499 3.9061138140746303 -0.7245183589076039 1.1379579178899626 -0.06939047477868049
Ni 1.3021933531049552 7.399413722408971 4.555758099700184 -0.5648844771606336 -0.42451767117339145 0.6975174048387278
Ni 7.769708652491132 5.798499634136558 11.843000988062531 -1.0591965434193436 0.9614421727859893 -2.049432243398258
Ni 2.9558930632183005 4.326922345541337 4.203213791978414 -0.848771547162435 -1.1014510812131804 -0.3024527488191307
Ni 8.72712105116014 6.168461531904264 6.330288409125714 0.42601713853705336 1.5799354364110145 0.3545903500546345
P 4.464427687820272 7.856287803351502 9.14242807381002 1.3219198348593364 -1.0752865070026707 -3.2402497282914133
P 2.3020673718668263 4.919923385016869 9.378491554282279 1.1121095893682913 0.5120421365486214 -1.43280534355801
P 6.8780608850291305 6.983835648458715 2.6761338929101752 0.6849480528141494 -0.7393621087886556 -0.5166037877773748
P 5.050000256503959 2.2849624621605726 8.613692095036692 -0.330507855184134 0.014223599798549699 0.8346263660103045
P 8.259793455902807 4.864103468755358 9.279313605948166 -0.17592362004592926 -0.14060077637491913 0.7408590050491564
P 6.8175230109795235 7.89355966987746 12.83763529841033 0.37941100864274013 -0.5712556707943001 -0.4787417226242787
P 7.212961880802947 2.847296776013482 2.352536568942779 -1.5935268019422038 1.0409260272449299 0.4011615129459543
P 7.113597989426598 8.09376759624995 6.4405554084413765 -0.7912333437366502 -1.3799488618786104 -1.5492855727356414
Ni 7.335193991105125 8.948587540271934 1.7222941909034473 -1.0825843262156645 0.2849836455000898 0.07307692249133221
Ni 7.787146594511838 8.935118233331801 8.207449101878527 1.0752194012101612 -2.285260253109303 0.5257913678139139
Ni 9.140155128263874 8.930224508488854 5.853639609422725 0.09765975403701892 0.1389393295120962 3.04643945777305
Ni 6.489606442911613 5.4850792226450125 5.973478512509648 -0.5284887121404188 1.0813622808831056 -0.4644008805215744
Ni 0.9220212396299524 5.811339880038277 0.6082446685798939 0.15656115635891746 0.5072578277861006 -1.2768885056513106
Ni 8.68606556750608 4.034325704600779 1.4614808589286956 1.249448407162487 -0.41089982327964075 0.05847022832175092
Ni 8.083526852580496 1.6612854461647932 3.8217345266691796 -1.6304524713239594 0.04912863920585087 -0.7516704938423635
Ni 1.9188951922924518 2.6236008205743717 11.368179240640227 -0.954383209056679 -1.5792155275258544 -0.2409858997629011
Ni 4.382094698969188 6.207639083340707 10.460537596276582 1.0133689435622677 -0.5870661554639954 -0.4210693076134749
Ni 5.097022569125315 2.801754607011921 10.718994724626574 -0.7275026383469083 -0.9240372497749698 1.7946924843843737
Ni 6.04230704100963 1.7538314259924623 0.8893470692229825 -0.6334401147428446 -0.5965026182865468 0.26000332140566834
Ni 4.486750103786303 3.112001960618531 2.0805527780873887 -0.8294427649268361 0.5816208160787081 1.296100045582755
Ni 2.0321261792067524 6.403008790255995 7.135896353058807 -0.19039430285827857 0.710992299396711 -0.02760002110545569
Ni 3.5406978073992192 6.487247464017565 4.558534294077062 0.011095595692529278 1.6198813806763328 0.2069295815091404
Ni 9.161709719727135 8.30441978603962 0.32867976712186714 -0.8231551321459113 -0.24320964688709726 -0.15145880213534563
Ni 6.275004119836617 0.9316856523774499 12.114605492115352 1.3934985755385871 -0.8935010288593256 -0.06475117623445623
Ni 7.745758078543327 6.168322768439907 0.5863459437250301 -0.15233889074745377 1.1645132997809877 1.6633528215964064
Ni 0.42545155698405007 1.1024109680231544 12.423755689263789 -0.8208776489656443 1.388857734332466 0.22019158872536918
Ni 2.1174102043998033 6.149330675618416 2.585215145974519 1.7148486754828531 0.04927956296141836 0.2946332527747119
Ni 4.3930107581651745 3.260728641715036 13.415763669776211 -0.5914876815704588 0.17278044643125728 -2.4761361235896904
Ni 5.847039093968203 7.244017144125767 4.5792230015227435 0.5063165469187539 0.8930269174363846 0.9095480550198594
Ni 7.986651452664928 4.228344780463004 4.646487203234555 -1.146226328546342 -0.31720830986175047 0.15477115433803024
Ni 6.641043637011867 7.372169828907124 10.259649728928746 -0.44397140902262894 0.702108623753836 0.3627913978081881
Ni 8.949457124648564 6.900901351262089 9.141371621301392 0.6426444069499319 0.15937651432052552 0.4379928228416908
P 1.2688901216595727 7.232953070567801 12.117949691606324 -1.0347466379070953 0.6045103190823718 -0.6118814147354623
P 5.5250153476866 4.716819927688154 11.821986649020497 -0.396486218957472 0.03350198841218746 -0.39647130655913654
P 4.647613962565123 4.857868363756974 5.417244240549818 -1.2182794377588502 0.08603373976231635 0.04907541737041226
P 4.206780938102119 1.0312993179896388 12.269972467526161 -1.6096838713180406 4.240544869388858 1.7916128170177854
P 0.7769856666853111 5.141917175293216 5.044931689695925 1.3238517617747267 0.6825669541764825 -0.5036395143072229
P 3.4020823574054377 5.1445166775254805 1.1890280475637829 0.6515537936244199 -0.3603781603810051 -0.6973037461660249
P 0.9264773970152971 8.058651188870321 2.477913984437021 -1.6583767085380536 0.22300334714255138 -0.8222213074777323
P 4.103392906259454 8.804051515798973 4.793798496994632 1.175917942073504 -0.4915327037413598 0.1288508349278426
