# total energy = -340863.37604067207 ev
CRYSTAL
PRIMVEC
9.33115729604912 0.00000000000000 0.00000000000000
0.00000000000000 9.33115729604912 0.00000000000000
0.00000000000000 0.00000000000000 13.65709191060392
PRIMCOORD
 96 1
Ni 7.7153835172048 7.216903757646919 9.046335019432204 -1.0235859933045854 -0.0036890188158130014 -0.30228048490732456
Ni 6.581489263218633 2.5024857789406747 8.6976828549267 0.6758949414729457 -1.3971099470389294 -1.0500249042224046
Ni 5.87363699388071 3.0076746406704 4.523570615715857 0.37430814019853603 -1.3699228451011762 1.250368347873595
Ni 2.4270900271346867 9.027633513767656 1.8076252800531805 0.16855098173094196 -1.8792318989893506 0.3642224738277598
Ni 5.296271629648594 2.7722215459525175 11.484276249509366 0.08436200848684826 0.9884508401643493 -0.042719650355713526
Ni 1.9441186511784834 0.09345807318851886 13.135841654481553 -0.08790807396689378 -0.924409288402408 -1.3142988279789687
Ni 0.6898823264136708 1.8711676626117493 11.959775234618261 -0.43866465209773486 0.8485414334294998 1.9503023325736153
Ni 1.0596369033831894 4.06418560632401 10.633288691207586 -0.8402943629293593 0.6991076321439831 -0.07128692047044496
Ni 7.417281031691694 0.38053486311573886 8.809357213594879 2.5859749361914046 -0.013658471323699059 -0.6199600779785388
Ni 3.504120207914703 8.765278692260582 9.911320246952322 -0.43220964050101046 1.0870698727908439 0.6420324843975459
Ni 4.68512747562221 7.738356826727862 2.2299301361620287 0.1922159294480496 -2.6040747311159085 0.8835174352840527
Ni 2.985942375081768 1.8287015652764707 10.912221246954575 2.0435644717635713 0.5517713368174433 1.8801734369670133
Ni 4.671587966232298 6.751167029411714 10.076612369166588 0.44613370678127034 -0.29306230874316624 -0.06797251138523132
Ni 4.36069246392142 1.7468299902336815 8.568773848537525 0.5168675829617227 -0.5148731782395133 1.1640738982507242
Ni 1.2124625993087426 0.87648401278627 10.122663497175612 -0.6169889111653568 -0.593011831524469 -2.127994614484193
Ni 5.96516631683429 0.6930101303747309 10.928910021967571 -1.2622219047780712 -0.887715018305168 -0.7749279217084074
Ni 3.415343576394633 8.89074543468426 6.554926257443125 1.591217951303369 -1.2552416168054963 0.04966625687687575
Ni 2.292404101198099 1.003146076473109 7.842039049081458 -1.138540015645678 -0.5783861111914942 0.6332873912150643
Ni 8.48579186576393 1.701713844196311 0.5043126660497028 0.894621515617014 0.4564070636828204 1.3177456488769888
Ni 2.799804447232035 6.835959256721244 0.3311562443772579 1.9338804395721663 1.3249398526325826 1.6256550499353166
Ni 5.418369824250246 4.276152177861735 9.139858410722535 -1.608815352670158 1.5574650232226404 -1.454034171029799
Ni 0.20307864411257626 8.484494834885089 11.364367144434159 -1.314065371811924 1.0037573886144326 0.31854348373340624
Ni 5.671542786874015 5.335779750087522 4.155197983157535 -1.2261889224139142 2.022303762612582 0.031005447242578865
Ni 7.120242298122386 5.473759574586921 12.498997626739321 -0.15748289684223843 1.4265850736799108 -0.8412233025015319
P 2.3235328422902746 3.106053033156852 2.7644962807396243 0.7709005457165691 -0.8531449936397824 -0.17645840950347674
P 7.1550475152308435 3.112146278940182 6.478159758614823 -0.3253237398800333 -0.841303520920164 -0.47382757315211305
P 3.718363581858451 5.942071702265006 4.95689650183189 -0.668583752523513 -0.14988117323558056 0.09190048295573851
P 8.574017958997297 1.877139603348857 10.077349530601323 -0.11815170334278359 -0.2568352080903319 -0.0756955910611019
P 4.861094441904056 5.383517951354779 1.7113016084265897 -0.41821512599413135 0.4867147135274263 -0.04258466743974601
P 5.588532810628214 9.02976101765525 9.114292905673272 -3.262349131293614 -1.6844700631909957 -0.37262046808346794
P 2.5455770638218693 3.1398504852659217 9.338432905157298 0.672224434599894 0.1310614694259162 -0.6677455728929338
P 8.876599400063235 6.0917994539331835 10.960799252387988 -0.44651320160787616 0.20477448283935054 0.47965163603305777
Ni 8.815303027091263 4.701438338760437 5.936915304684809 0.40751933684318203 0.9008255875451969 0.3201033720213584
Ni 6.803048264565339 7.688939017128294 11.236809289636755 0.27513426350983583 -0.025763225007033052 0.5596908487748361
Ni 7.698344823789239 1.3215251670201764 12.170708847031616 0.1937627051098792 -0.12383024178479965 -1.2407727337653598
Ni 7.2415940001319 7.496623863078614 1.4106815766464973 -1.271730358489139 0.6338183240178697 0.1083408878999489
Ni 2.7250898699163737 4.545981256447595 1.143515610383091 0.021152722818215182 -0.4234151821378321 -0.6159381013033393
Ni 0.7549512863231627 2.684527328691048 7.965963351186629 0.5448005619265649 1.0095508553677581 1.5988248171163497
Ni 5.392027966905158 1.3914621917461516 6.240034220417084 -0.9376098462530821 0.781241522631261 1.9222839929838185
Ni 1.422618926310532 2.938400128119948 5.613652286353675 -1.0613015055774884 -0.6692165010115055 1.469277984562747
Ni 3.4511005715580665 4.477397249544871 11.403630788549163 -0.15592815076060887 0.32019953127959044 0.023514538182172404
Ni 0.09898305148608387 8.455129682541841 5.174125846144192 -0.6207342371404019 3.7291655632352163 2.8028392603157535
Ni 7.345944333355459 6.673055910801821 5.272511703556566 -0.006290203884085941 0.5827492732561964 0.22407215472669798
Ni 0.4680583201967567 6.289097446035387 8.777781510063162 -0.5500607818842398 -1.7854905061701316 -0.8720508294053496
Ni 3.2436409490453775 1.69723488864348 0.6214662803441777 -0.3908323631058043 1.5787912955042422 -0.2332525356743854
Ni 5.9974987772312875 1.2041765315360053 0.2807735931023506 0.8602661780655959 0.5967689845740561 -0.19665211084253229
Ni 5.043098667024823 6.277125571088966 12.915239096768525 -1.3769316723188414 0.2225130377696942 -0.012570380465842867
Ni 6.661587918355093 4.0273275345871715 2.7621196349494035 2.6377255864011344 -0.0642670375091861 -3.3500466319115985
Ni 3.1517103863235225 3.3218733727014915 7.270817318882642 0.34073493222878093 1.1397792873694175 0.04613510379516571
Ni 8.844976107628767 1.3505077419099534 6.605935029379689 -0.5801128640746138 -0.663568815807425 -0.6493220760804237
Ni 4.563831760557107 3.069530883086476 2.3411258064554983 -0.8390154962169357 -0.0724274618327914 0.6451861995351793
Ni 2.218902574344663 8.02790264090358 4.375814537606665 1.542918492867033 0.8403972070558107 0.22556030923645026
Ni 3.0704546676692472 1.149309326013826 3.5416258619752217 -0.19547197449150205 0.1959910802197657 1.2125710745201632
Ni 2.5616453168676503 6.45922310778375 2.7392984232919897 -0.12399633504901872 -0.37493986024526393 0.2669794956131854
Ni 8.278294918621635 4.002982544926055 8.13775555764694 -0.3361992491419565 1.7257864054412793 0.4790204302069621
Ni 7.582050609091463 3.737940350087283 10.472613625675697 0.40904862900351485 0.6950951685504803 0.9428623529012728
P 0.7027723872484221 0.8346869594366957 1.7306674924981427 -1.429229196170977 0.9057592774013884 0.3269463630851208
P 2.9849999281841932 7.604762646207276 12.073620953613824 1.128159186631986 0.22379756090907263 -0.5700953319376117
P 4.4043156247745125 0.9815071224584945 12.560987304706243 -1.5413462632839068 1.0696979571712997 -1.500869643326099
P 1.9076898126821251 3.535575539515939 12.719969698285459 -0.13652377809206812 0.06426600906792157 0.9973244885048952
P 6.728930881323388 8.627765425631269 13.22470879822842 1.254645377982394 -0.84514243505028 -0.6994935547284921
P 1.9338077222495706 0.6002528271070822 5.5804930854108825 -1.8312044632674787 1.1603982491713498 -0.8368035761672815
P 5.610209089272437 5.009935733619071 11.039164178479206 -0.06780410412816709 0.4058005543798624 1.5748482516960942
P 6.487617819757218 5.991816102373634 7.648203849491036 -0.9131216313037307 -0.6558297952919544 -0.44948436842105816
Ni 5.723284054666615 8.203057796491475 7.025768061892818 1.7344409957924838 0.5781027756231205 0.9713535183624304
Ni 0.24287696354669983 8.690414816426493 8.762650105220514 0.6937029161886441 -0.3483621097567355 -1.2762788970917698
Ni 7.596868487045412 1.2318994001765486 2.7704915493702367 -0.47627526336165715 -0.35740287980276514 0.46954154418224936
Ni 1.6107257283720304 6.975926617747212 10.608077770139587 1.6255810021642714 -0.6255949076668129 -0.04263686083392012
Ni 8.577433162606331 3.0298734641291185 4.443348789301694 -3.45311084479364 1.7452013196327816 0.14483255506807963
Ni 4.82731565210979 3.8447447777074975 13.741220086349406 -0.8676393306012155 0.264115543801829 -0.901937075441821
Ni 0.5158665051445264 3.4429078153593466 1.5348522213070739 0.041726690314824906 -0.4550001560329648 0.35392751965965497
Ni 4.773166945707544 0.5943909940273145 2.0176033819485966 0.5485299470620101 0.6716780751781207 1.8203798618481486
Ni 4.582802003554826 8.520009219956078 0.05370547642566373 -0.4176674810207775 0.06749994262418697 -0.7526362001897425
Ni 5.170440972086248 4.51124135744095 6.328477729617913 0.5062023899383927 -0.2572360430731764 0.8187744865797125
Ni 0.5824405807429175 1.5898425981069562 3.8673336435456083 2.2063885783130646 -3.3111520117289297 -1.6005471991240952
Ni 3.4823599488538663 3.2870774867504364 4.839008525449899 1.450674510528947 0.7392870325763461 -0.9034362856951668
Ni 7.0738944393079874 0.10506509988053224 5.350233712902805 1.0826460326915355 -0.6927215261119811 -1.6394089091862993
Ni 8.778071709058356 7.34621493692011 13.296421542207943 -0.4714104790701881 -0.13673820809571935 -0.5850367837387924
Ni 1.2662660528871243 5.695915770007337 12.908560787416105 -1.424117843086341 -1.169895647138824 -1.299357376177788
Ni 8.292758212594316 5.416634228973524 1.2050172688179013 0.49870711000261203 -0.036565714939175736 0.6884979749489368
Ni 4.162041453995965 6.5827769629400725 7.128988391955029 -0.9264720844687077 -1.0471799785744418 0.07496874019740637
Ni 8.632095082665673 4.086813663023208 12.962437957137961 2.3340273952106765 -3.027500711887018 -0.04662824138150034
Ni 2.7649245808643634 5.480524663703176 9.006510572757357 0.28957949240088837 -0.9233186264413904 -0.5626226777096504
Ni 1.3520567140386408 4.519732710676525 3.9186568754866102 -0.36709825271365815 0.224316152416704 -0.27322161986815524
Ni 8.948645266362002 8.22986621170665 2.9991655582357613 0.3743842448521101 0.4691219401463275 -1.6719400490447849
Ni 4.788442050374178 7.922684510041659 4.750277616601097 0.43862762821221235 -0.19424581539388483 -0.1486277604444537
Ni 1.606022825041558 7.000775489908022 6.6943514782240525 -0.5171442336618771 -0.8792591742283308 -2.3223751556837295
Ni 0.43361421887974644 6.5135957619636375 4.502387955298187 0.2778094963491538 -1.6047674078530298 -0.6464900059482672
P 6.647367234474856 8.05113722283389 3.4896055925763108 0.591762018277768 -0.2216067239053409 -0.06065232357473425
P 8.149972842033028 8.24489870628084 6.928639111382458 0.12035796696548305 0.688978257019465 0.6029244626524907
P 6.76446392870918 3.2021359609224778 0.2727403996952003 2.518937020805301 0.976029326571545 0.3482073293464261
P 2.345787652693403 7.82491264278632 8.361035224418524 0.8884500966989797 0.8527994373749056 1.9503524690852605
P 1.3706257172680858 4.850232974688441 7.097276453525246 -0.4056527159480885 -0.8227774370915185 0.28674922204094483
P 0.8940051270395006 7.144437989265074 1.2382025970014179 -0.6656537233609117 -0.1988483471629027 0.7046763844810122
P 5.30752500547508 0.8513542727876677 4.173716598137011 -0.37397209701535594 0.6316570547004928 -0.9598925689106824
P 8.475602241881239 5.235703086953956 3.463287996240468 -0.6713590012758051 -1.3660448502030087 -0.2669800098338176
