# total energy = -340863.23298239976 ev
CRYSTAL
PRIMVEC
9.32039196014709 0.00000000000000 0.00000000000000
0.00000000000000 9.32039196014709 0.00000000000000
0.00000000000000 0.00000000000000 13.64133575333461
PRIMCOORD
 96 1
Ni 0.16799540237048444 0.326786917818122 0.5169257070759985 3.12158663252985 0.4379308592555039 -0.8848330687716826
Ni 1.0996757493458336 0.23973352617449462 6.635131946776548 -1.469854168781191 -1.4177443354598294 -0.9376849224653915
Ni 6.6787784096332565 7.246427553075348 2.1664346708988385 2.0145925100112527 -1.6359302066090793 0.6661478893885108
Ni 8.399788759307864 1.3481760360667887 5.520020696536611 0.7808764259823584 0.08459315066104785 -1.6827584798165276
Ni 2.7152072247866603 7.479139096052199 10.871394495314478 -0.4625787397111711 -0.4129826739505984 0.5382079963107118
Ni 7.410280041281574 9.382745241884269 1.061176938891645 -2.661812709257325 -0.6067348375375164 -1.2764848424549886
Ni 0.6358268775706312 1.2875748484492187 3.5235163413502146 0.11380705322084271 -1.373263736548951 -0.3577512642811193
Ni 4.491739148536608 2.3232008652038587 6.30437081388612 -1.1783437779061772 -1.2963335017497999 -1.4569508304559617
Ni 3.2054971161177352 2.5005958827254227 3.6665181810145664 -0.03130498076086867 -0.517853858134392 0.13354772618287966
Ni 2.5485120170751503 5.535781479105253 13.796983468354185 -1.743118983182456 2.66674819888573 -2.3341945169161606
Ni 5.08899917679276 1.7606499760876375 8.528713079166375 0.31004933021946607 -0.3603624766517213 -0.023357700889333966
Ni 8.351434566542569 4.861786664990065 8.379326771104909 -0.3879923225538479 -1.4098466778793073 -0.8666988210648169
Ni 2.233874229995186 6.188861333975005 7.519431149892673 0.043683814041195736 -1.6841975262558995 0.3329573451658911
Ni 4.243704881406683 9.069496193185573 9.551281226980349 -0.1637641018652599 -0.13997471275514603 0.5134544435151157
Ni 5.684945029802207 -0.04370611336436033 4.9999316484767 -0.24481581503195257 -0.029830195987555076 0.18532511586548728
Ni 6.9351544274426224 3.0988345521227387 9.479228073932802 0.7046578725382509 -1.1537475766240515 0.39106941881727486
Ni 3.3382381364267837 3.587474734101567 13.816627126155291 1.6174524595198658 -1.0462487250094241 -0.6128412075455704
Ni 0.12374963831971113 3.094509890317978 9.84414657876738 0.0499292807302753 -0.21239600394035033 -0.7709506822282143
Ni 8.06988417042575 9.02843054682399 7.260873228358103 -0.9071453591156378 0.09427515383550215 -1.037822705729258
Ni 7.097608856875758 5.050114502117198 3.8612621758710035 -3.522651986217572 -1.3141563888638335 -0.6954702925017119
Ni 4.945977764305585 8.604427282121055 1.7589956065394803 -0.6990749791338347 1.4673535138465246 -0.14352257800740445
Ni 3.1213432983694984 1.9512985907781009 9.98953630281617 0.07849320841089708 0.9943512648091842 1.070458232376092
Ni 7.745236282530456 3.622258436376062 5.902032799970179 1.863814793103332 0.8951259660572585 -0.754090673248082
Ni 1.9347176137292459 8.371566612875073 4.33303338069372 0.41946519635114854 -0.4866818034069619 1.4033106765330026
P 2.5346805556133734 1.351773707309542 5.544984433988918 0.4534754918583222 0.33769048897550225 -0.999653393748388
P 4.732960209245671 3.7797357765769948 9.576217935296373 1.0049023008521532 -0.6636384927030957 0.028192917494448223
P 8.088329225838725 3.011446558412751 3.7243577365356915 -0.6780824360425678 -0.655094974008459 2.1328383157297397
P 7.148535477783541 7.311372043281319 4.449244686108925 -0.8547341925037731 0.5877876070110523 0.11133545175189857
P 1.9888690902069575 2.1675782829752266 1.3587640011749953 -0.11594184017565838 -0.37040083472432983 0.7321475933180875
P 8.635436225708204 4.0682112238165224 11.57513720400349 0.14080337930402848 2.052041141776014 0.06942184223724818
P 1.5061846386014954 4.302153058513693 8.813721340648637 0.6136680743222399 0.6720449715992362 -1.039936409638151
P 5.063601109081613 4.521089062379691 5.681206620642962 -0.026258933696528975 -0.09235556821528611 -0.5575838297341623
Ni 1.3871818758360182 2.949065175957446 6.705957604221321 0.6018885651888085 0.23970523327826457 0.69545846542717
Ni 1.497572596559257 7.950648397864756 8.7442601885664 0.6199929880990032 1.8699481596945793 -0.2652586562673367
Ni 0.3524329079516972 6.106189458526245 1.2546738653224854 0.2430522953736266 0.4119195227934067 1.1165951359434705
Ni 2.7316763571336686 1.1728874270966814 7.772396836334879 1.4771054510269659 0.2811331614057481 1.5160430086324277
Ni 7.557104173631556 9.579591917135433 9.564922552448984 1.1914389205272384 -0.9362073094786005 -0.3469886264479766
Ni 9.05016570054964 8.363634959435739 4.901427223442278 -0.9743586237373413 -0.019894682041397993 -0.050710124760357835
Ni 5.934023180816039 1.2020602534951732 10.724804304799195 -1.592613288988999 0.48831291125248166 1.3195032549980437
Ni 5.825477897673281 7.837703889782673 6.7964269194672005 1.1384657107643168 3.217748976085735 0.39423470391913396
Ni 2.97287877705909 7.100004197573653 1.6828358888557753 -1.9306138530057524 0.15449810318230167 -1.2802131991491694
Ni 1.9795114168190706 4.223787204086051 11.195430033467158 0.6176530271119169 0.7866408392699614 0.04222034212179181
Ni 7.7170420972731275 6.634254897906229 10.59555283918778 -0.3155376070275469 1.150126949152329 -0.10324984653028671
Ni 7.210311034770506 5.978406886665758 12.789107054167031 -0.758665437102958 -0.28905498735598606 1.1179225965056425
Ni 4.046196458336254 5.1176687020329386 3.563785094211136 0.9254446716454579 -1.0574916449130949 -2.1870433410172336
Ni 7.6040230260564785 6.363516156301312 6.498077449132924 0.4386453688240252 -0.9231347925653586 -1.2651197951511568
Ni 4.741907785393451 1.9451937341356051 0.641544937952572 0.9668090935248576 -1.1526492013535505 2.7916431344896178
Ni 1.063876124362892 3.7079967207338025 13.614694313087622 -2.2726986143942085 -0.2231560706703318 -0.5689874435854136
Ni 3.624057271997439 8.53173754631216 6.4133923690509125 -0.8152446190495831 0.28075418079977454 -0.3825932630254637
Ni 5.636441710767782 7.30073747621401 11.351760033434974 -0.7566260380754259 0.4290363849793514 -0.8121153293919819
Ni 6.81206933305972 2.1256924421334302 2.034973340386759 -0.8683340426753948 1.0538918433769786 0.04421526106463353
Ni 6.093700133486634 3.6101978493602003 7.370167871003239 -0.0789601207449866 1.3110492106934195 0.8543292437558706
Ni 2.663274001562252 0.1902907116445523 2.5893577021897674 0.5391315365662457 1.5521592947390108 0.6129101131102929
Ni 3.831613077450479 5.818413040673263 9.970820024001215 0.9159673282826418 -1.8844782349899545 -0.842021372922795
Ni 0.39507742868769063 8.020681822004779 10.708475910368676 -0.7800421030065211 1.6557143312145421 1.5666793427320567
Ni 3.0066558770169607 5.24181632108339 5.583562467773582 -0.5869314296583441 -0.626082903046825 0.4784768989986663
P 4.055544811332321 5.516040889229214 12.19958295112198 0.12426193000557956 -0.4562967633572013 -0.8149617977018416
P 6.727151243182194 1.5384145535171458 6.7369507031423765 -1.18397603649129 -0.47206842436916124 0.8506253125417221
P 7.893672842665403 4.998116036150046 1.0083079483284485 0.07857394105016144 -0.3467844808569705 0.616957286596473
P 8.108144378849332 2.1325708912970365 -0.10997689532640396 -0.2836145330667051 -0.748308519348666 2.4959798977884953
P 4.879793661987473 1.084418267935504 3.088671596881551 0.32588758280330327 -0.18927458743153855 -0.6793736440501654
P 5.170627168357613 3.8862958162619647 1.8125654905675863 -0.8741089974859592 -1.0131982223123583 1.367621193551193
P 8.913566038026861 8.130699727055193 2.0472231313565796 -0.014589981999032936 0.3254042154089815 0.6677010928082436
P 3.67819942808333 7.41869635509558 8.346560001620391 0.6763492554015449 1.0630573119263305 0.3761140830590232
Ni 2.6427784599487434 0.22180761658592615 11.69901359965196 0.40846987368190946 1.013859252935125 0.11994479068746439
Ni 2.171343721270751 4.4253033956393395 2.1919986415843926 -0.3024686896587307 -2.0058541016969906 -1.6683731576291332
Ni 5.975610769119576 2.294661825449168 4.460703175813177 1.0810041262127381 1.1628027448477847 -0.13186751026697935
Ni 4.900195999682777 5.784263125042568 0.9770268493001358 0.419178261238349 0.6157311274988557 -0.39509602347816475
Ni 6.3028963279001005 4.833061217398962 10.885171898503694 -1.1147143739809897 -0.41745073702428104 0.5003032508451384
Ni -0.22519278289516967 3.037301325323108 1.9735053563298732 1.3059864514585315 0.500404552309693 -2.281973097717599
Ni 5.0488282880459545 6.692749676972343 4.9081798473163065 0.6230749694584367 0.5714027378951256 0.36429883559165
Ni 0.5462970578202692 5.1007987928376455 6.257144388531118 -0.8321244255240573 0.3297133843072967 -0.2707890991672627
Ni 8.953764887949129 5.965805716924301 4.124157807758882 3.061839594378204 1.2784463370567338 0.0952089785036812
Ni 3.608790470195289 3.9508395296196506 7.759832948160704 -1.2101064150297547 0.6104361976485035 0.4443151655152928
Ni 0.13099065072513869 6.125119174313892 12.513756582689279 1.6266168996279533 -0.061285329173042837 -0.3891845430897362
Ni 1.1503320788908187 2.080796114733579 11.742707596506955 0.4275271474236766 -1.006715442801492 0.2840379937573689
Ni 6.298273413557081 3.7556146025452706 -0.008598061454507581 0.7527398156471423 -0.08678733009888924 -0.71960806609018
Ni 5.2745029351982495 6.0598018684350965 7.727966528526058 -1.1210847962837078 -3.627541168123494 0.96557033602175
Ni 4.004469064155408 7.491507255998142 13.053994453786974 -1.240418949970367 0.5140036311503664 -0.1013991664747931
Ni 7.687999756360124 8.816046778407877 12.086004656396096 -0.466195510528152 -0.13340965794311863 0.20435770701690614
Ni 5.385285112377954 0.23746960300126985 12.951506493288424 0.07109460195398079 -0.47933230502042606 -1.0368498002930273
Ni 8.946811875650958 1.8329202942646043 7.799024263727164 -0.7118106815329482 0.34502507496370255 1.46747666968795
Ni 7.437896362246025 9.61361134728064 3.4303730056910045 0.6807337576224857 -1.1746411322436094 0.14848969220469266
Ni 0.32781682111429883 5.7971439065386425 10.11413596086992 2.7508029605448043 -1.943761446131304 -0.4943277499879938
Ni 8.122535063820344 1.980191805421975 11.47254019492064 -1.0242745347311781 -1.0358606969068807 -0.66718198707998
Ni 8.592450578631578 7.157268684919447 8.435092539445948 1.00857512171805 0.2856513609910758 0.9181393962332962
Ni 0.9899654172254989 3.3300734731919346 4.4386856142153635 -0.4894549952767248 1.5221408940000496 -0.1955485933657084
Ni 2.985647713853318 0.11788990798209711 0.45650719913811233 -0.6711941935631667 1.098115074861412 -1.592256934090845
P 1.7355594813065702 5.441636201325328 3.813326468698453 -0.6745417698791608 1.119491226544343 2.3793703421218506
P 6.073791776557823 7.612933320636976 13.629085930097817 1.2211973827365936 0.8346559336966592 0.13391565104525968
P 1.7167136490453083 7.887213811133723 13.199874430445528 -0.6639364835594888 -0.3360339272086858 -0.7694039065663847
P 0.6023368456808353 7.341840404142876 6.630357110046852 -0.45313070692439383 0.08634844278925774 0.07137150976445128
P 4.147714166046278 2.163234980386825 12.308386409118171 -0.5872163078886146 -1.4121784113362776 -2.1628605731234427
P 0.9807568701067417 0.6835538079664003 9.701103729379017 0.3191793175451923 0.9138921909211679 0.037182522587568226
P 6.5397740860207625 7.340964287311739 8.932060491516488 -0.2828673704880354 1.1699804935431461 0.40534418356873414
P 3.788962964479393 7.585438164766193 3.3798863072771543 1.1099850868261207 0.40556452710965635 3.1349702529256076
