# total energy = -340868.0824432567 ev
CRYSTAL
PRIMVEC
9.30985030175349 0.00000000000000 0.00000000000000

0.00000000000000 9.30985030175349 0.00000000000000

0.00000000000000 0.00000000000000 13.62590697070145

PRIMCOORD
 96 1
Ni 5.27465383108941 1.9058287200210113 4.363028656190077 0.07487875158676136 0.2953922424279235 0.9453421819003333
Ni 3.974654295267818 5.045128787181667 10.760064979307396 -1.7816037695212155 -0.26277497061353455 -0.7351791810555596
Ni 7.335063301862598 7.1955179589919425 13.306747470519198 -0.7226975036487812 1.5649083668745631 -0.07537317472467664
Ni 8.569754239362911 1.4747547317002425 1.80291205131076 -1.5658074816500647 -0.6053035044076286 0.481299456049126
Ni 6.519362167277349 3.866371428970626 11.298043045128294 -1.5125257395077887 -1.445049965253318 0.20751270770612004
Ni 2.2179414440011804 0.4262561409036251 9.81115664778693 -0.9437234153499876 0.6212865100994461 -0.47044760093628657
Ni 2.6428616214181195 3.1910721434635256 7.3600881788815 0.11048801614993876 1.358589422366228 -0.5456901636203699
Ni 9.294917081906187 6.0409010420420675 0.19443063304075897 0.7247602997150808 0.3418531049936242 1.0736510282817766
Ni 4.759958769337176 1.445372844843228 13.23416229337427 -0.1479317628186936 -0.3660212175993955 0.15206866780520265
Ni 6.209670004318354 9.157522314404343 11.111150597698476 0.2736422523453416 0.12728888975736144 0.6287421950465429
Ni 7.372516828740218 0.5390105281949308 5.241068546920626 -0.7073107367800657 0.881516859914256 -3.3181556967402726
Ni 4.519308454582116 0.7198329533716535 9.424358444483461 0.028093158691790326 1.0566984595878381 -1.2834581884490281
Ni 5.1513355569106976 6.999294248825499 1.3023847194124563 3.0654759055792105 0.2112906866913135 -1.1625363785602751
Ni 8.074116440727378 1.4698112013069995 11.957809776759527 -1.4222969878275182 0.5175003314497152 -0.04434972975996878
Ni 0.9049174279156581 7.099738221354119 3.2760906253922153 -0.7351053903948308 0.45638186687183985 0.09301839861026562
Ni 8.915615169888289 9.027286821615123 13.1284657034297 0.922415912121463 -1.0356838050093842 0.923951374929383
Ni 3.323923704125629 7.105193793501842 13.461796506730472 0.8435385808982698 -0.04029227186114351 -1.8663290748847536
Ni 1.539765414818916 8.123998617463716 5.603299917829203 -0.20838122635400239 -0.5030579307721401 -0.7014702188388887
Ni 5.918560302121906 4.939853002460779 3.2804643929604738 0.5231197345190216 -0.14545270515058176 0.9269137999918166
Ni 2.1429226720449623 8.10483894599612 7.940387892187604 1.603843867597496 -1.7696370840776425 1.11350235595076
Ni 7.986575920411628 8.188748624780109 3.4396423476828644 -1.3750732789538642 1.3245307901196222 2.1219486654004296
Ni 6.9386778149452635 5.250485460278 0.685429333380712 -1.2634364939114628 -2.2018989179728274 0.8960603049460696
Ni 5.052753554398364 7.24098726678968 3.59850656045751 -1.0295764065600657 0.5336532870604939 0.4852023906479579
Ni 8.050981463275008 1.2967131587428449 7.047278147130231 0.9387398460924673 1.3057784492127833 3.2921423033956465
P 1.7154795252559543 5.408278109308273 7.116089111052148 1.0689664783219137 -0.3833298840811721 -1.1351330468466578
P 2.0749886960007182 5.443934835120175 13.040020265686035 0.12557962037573855 0.639683524549395 -2.286206419072656
P 9.121558363539751 1.4501022486845978 4.125188985174602 0.2264324274287584 0.35187963599169075 -0.6759797878772681
P 5.30964024769545 8.313063052917535 13.123396490060358 -0.26687690859705004 0.5510002629793738 -0.07624760690982997
P 8.62469166469347 3.1656469428911223 8.845979353249158 -0.2480672320897147 -2.0477288875539057 0.7602998873825874
P 7.450970935376487 2.9483736616905496 0.6190240347198395 -1.6150654473449282 -1.9077660018733018 -0.9875015888772025
P 2.9015916650313294 2.0268195316793642 1.0194015853520948 0.5113803345949063 -0.32847205570102783 -1.0254073627840405
P 8.638274735962286 6.979715634104236 5.093881679103127 -0.3038182617080897 -0.356878888978495 0.2886081296265545
Ni 3.1497550288021094 6.350267360248212 1.9375362074283686 -2.585787759881263 -1.0726367280846496 1.7744643302629568
Ni 6.392329262916144 7.901483890667295 5.474453454672134 -0.13636308414448772 -0.7855908007388922 -0.12073360513734692
Ni 1.2847872407885241 1.2899448977336405 5.706570360842549 0.04196554579850838 0.4122743350296642 -0.3900602608264701
Ni 8.966828655186273 0.1731203862043501 9.68485829059715 -0.17010932735699735 0.5212747108904829 -0.5306656651870796
Ni 0.8061296777165239 1.8999448947695432 13.535512830660297 0.34968751343637844 0.13868787562292245 -0.44543179561823926
Ni 7.351150722803322 4.706110596466146 5.490259718140398 -0.2441529846369731 2.44210037416122 0.06688930562338156
Ni 0.9359006089866799 1.8209508168285518 8.146724892497513 -0.37895386650066354 0.36407386406503744 0.9614869099809957
Ni 3.635747822753274 8.808924287955023 1.6187306322246546 0.8940005942035635 -0.5527180170014286 -0.7173012723338743
Ni 4.76938033761959 4.109172319094498 6.358801699817866 -0.6745266003705093 -1.0807205335340486 0.2652789679823109
Ni 9.07139689130097 3.993916375086311 6.990744082510707 1.367476954663845 0.21891734999863585 -0.6391217385086542
Ni 0.42406646416447125 7.096749759477978 9.539511049155744 1.270828929720792 0.20275796662995405 -0.9228260030756882
Ni 2.8237892479007627 3.267431533831471 12.459978435227187 -0.4904554115167811 -0.2219869900628951 0.38024353184636445
Ni 1.449590206930119 7.640500863334378 12.091261822751882 0.2716969556935127 0.8761769357585815 -0.8511122794804696
Ni 3.6215503013790826 6.746448030463756 6.423783522401286 0.10686353202347401 0.4748619279538983 -0.6135186932285692
Ni 0.5149529445994899 2.489472531476366 10.805848029052878 0.20390185042641013 1.2136964463738582 -0.8360502429410247
Ni 5.452034404691026 1.7546460645485589 7.254023849858715 -0.79642748634308 -1.4141208797746292 0.9689078850354153
Ni 1.5679277113152623 4.781976564779773 9.269731144480877 -1.1631094774549258 0.666690135045226 -0.068459735434295
Ni 5.440145726137031 6.664688927048578 11.575794043442887 0.17712741054604333 0.7900544929372006 1.7940839042660972
Ni 6.034626203087179 5.472329877868558 9.651107291096919 -0.5199333663712401 -1.5331107627479919 -1.0480916917554335
Ni 4.558512233275047 3.4935212430591633 8.977823588132448 0.5548252931524187 -3.1718010486007118 1.4717863528068977
Ni 3.1056542689663433 0.8795127090134334 7.207191580009055 -1.3607141820187145 0.8241606905922904 2.852072800530585
Ni 2.92103063200137 0.8010427756320269 3.2650128347803133 -1.0687615613999595 0.5952155240440071 2.1451029920297056
Ni 0.9835856611037991 3.5490172593946085 4.7491872727929545 0.4225466634899497 -0.0332109395343299 -0.6774869685504138
Ni 1.2551446781292295 2.1327097665056263 2.367910095023013 0.7207270101859716 1.7553790314967317 1.105876721084702
P 5.209484880519353 1.8058967892468685 11.151469696431162 0.44021785551746767 1.0174821943996928 -0.03590237032356397
P 0.8955182032734395 4.981700778576839 2.948168844988758 1.8411798293126354 -1.076350943711443 1.0905647733179797
P 2.712508609877348 6.831093187404179 9.825355100146131 0.0664524751962791 0.4885630795900748 0.6242558771404152
P 6.533019717346817 2.8146097357204654 5.939546566175481 2.0456972018358575 -0.41104406216698886 -1.1917055439250637
P 0.520162736705062 9.172315666183746 7.342823992890484 -1.5162479255543824 0.7000435136946911 -0.08373594486707515
P 4.700254700764922 4.848188218558953 1.5882222535077861 0.32620562826435434 -0.33891022031521634 -1.6597242237048835
P 3.21980234081484 2.706922699828486 5.1871645149491075 -0.5286861728632056 -0.6110074967709412 0.14887047258287908
P 7.524863215472851 7.178099229489574 9.061909223082978 0.10921583430573449 0.3428800035962417 -1.5036698317790556
Ni 4.518396089274135 4.721378750599702 12.951329047900218 0.7103857761609637 0.7391528209913271 1.801765846291387
Ni 3.7990984522821645 8.833530221720261 11.203670025837777 0.29361715280537176 -2.0633000025192856 0.8249165949217083
Ni 3.761077024549576 5.302713719234861 8.250649817971583 -0.8631321867594813 2.3220715084003816 -0.01209395505005659
Ni 6.88649610523881 0.23280024916639264 0.6485539481931488 -1.3871384376485143 0.07854900134949697 0.5553150883046437
Ni 8.203635075060328 5.050286444126783 9.662675710808113 2.6316989205910803 0.09761938771738671 -0.6912048323571386
Ni 3.8253242999615713 3.6492936546217645 3.174699841110311 -0.9880276365840016 -0.7921594550953455 -0.02687085624891501
Ni 7.566403766536221 2.9829969941434133 3.956990716708308 0.34811554096356817 -0.4319687281347979 -0.848435761089571
Ni 6.15120414580693 6.60204294585059 7.354092635429056 -0.1070476230098221 -0.9065216094887097 -0.003151915365420378
Ni 6.721795547448111 3.934603320217477 7.888718224235629 0.18180733252021591 -0.4207363497540883 0.38378856888514545
Ni 2.7071554460805216 5.475374198845188 4.277499063491917 -0.20205554124629072 0.648836908913889 0.39338623987590954
Ni 2.645254252889049 9.288679482351625 13.125440933138242 -0.7770984469971648 2.556716553546919 0.7892219697335763
Ni 6.4503110092233324 9.024745232542891 8.51252659091232 1.9568298492794882 0.706981378465105 -1.3697948041637442
Ni 9.198858048765922 6.529007171961717 7.182992486692377 -0.8187942840740543 0.4011717973585994 -0.08402853640682947
Ni 8.156722740499967 5.671793415863342 3.072464653426021 -0.3255150299552329 0.9684538282171323 0.8861893256892609
Ni 8.075540847789838 7.683018948656299 11.068950909249338 0.607294052475096 1.2059916215304327 0.7550234694749965
Ni 8.866282274306755 4.043295819918252 1.588589992586003 0.30396121504385715 -0.717818578289925 0.030434662340773393
Ni 1.1291172375768195 9.156088597491802 1.5603569412290377 0.5060023581124448 -0.25644568596139705 -0.018884495609328766
Ni 0.46176111615920074 5.820034158710061 11.515648687976775 -0.436757407772693 -2.437088265658609 -0.6115844523203338
Ni 1.818716452809007 4.241921471405706 0.9920110754274994 0.5344618990047182 -1.421781224533364 1.7242008061217142
Ni 5.183612807143039 7.423860651939343 9.389217484366068 -3.1719661134236663 1.506182056677948 0.10882348396332225
Ni 6.910953081402744 1.9076627604870544 9.686752845088723 0.17748402255451368 0.1292454992631 -0.6244157997570472
Ni 4.769492055820567 1.618163662354695 2.178646428777452 1.309660557876009 -0.18645074482949825 -1.7995629251027976
Ni 8.489196106608238 3.8710542835615893 12.63452695243403 0.5887273452165023 0.16012033446508553 -0.10580680862418552
Ni 3.947599870931163 0.25354725007287454 5.397112806105605 0.8644938429936982 -1.9465019849909189 -2.1274287146783943
P 6.069603309843136 9.171766385028942 3.0456764908016947 -0.8050540516698264 0.8725647929272908 0.20294000073377308
P 0.9624616112690191 0.536627206574083 11.58012684767079 -0.21532140511726144 -0.6940860105596757 0.9443908737306574
P 8.734315149402388 7.866581262711989 1.6592675814492468 0.5109226782321975 -0.9055049952987373 -4.3674300959498975
P 2.4811774550538064 3.2014898657046538 10.294509168255 1.7732217161051074 -0.7658768672497326 -0.23107918217215043
P 5.281729317151302 5.7863325014152585 5.3062281876406034 0.8531046273201501 1.501325499916595 -1.1563089095933248
P 7.460336644558412 5.762592383707595 11.528457179718814 -0.17469283296262172 -1.1363954584988494 2.5991901493300977
P 2.8244688669567073 7.878199955613622 3.5790489737873075 0.8703492733332108 0.9978955305170167 0.8688870869653874
P 4.576722300034336 8.615512152513173 7.391128150038019 0.4820178222723892 -0.29220895960393545 -0.10547770741954092
