# total energy = -340868.89407420997 ev
CRYSTAL
PRIMVEC
9.28285162026517 0.00000000000000 0.00000000000000
0.00000000000000 9.28285162026517 0.00000000000000
0.00000000000000 0.00000000000000 13.58639167127910
PRIMCOORD
 96 1
Ni 8.946273832020267 2.596747736089142 10.829875787525888 2.5081579279119253 -0.4665145844304675 0.8204750142105869
Ni 4.577754651967338 7.875311259049309 11.219247776882208 -0.37219700739280415 -0.31235663819640397 0.5210435687162833
Ni 8.947137137206074 4.290069802362217 8.218747986239647 0.2717236951663901 -0.7902432119092391 -0.07699631215039643
Ni 6.722056207883086 2.0719602944858893 7.747340653673511 -0.9783610600285151 -1.009876614138293 0.11084565659967362
Ni 3.588731808836153 4.291982069763031 10.428071275208833 0.6211119321947948 -0.6133410300001243 -0.40926691566190804
Ni 3.1097459563378558 2.5779035476248007 13.563593853481555 -1.8299564497929903 1.273430371899381 -0.19555373557203096
Ni 8.771069293559197 8.774466817193654 8.068102159601855 0.1882793133978048 0.04113199415361948 -1.1843573310901088
Ni 2.344848278863347 7.831988191284244 12.225863480100893 0.08626102528177401 -0.144477485721506 -1.6313613562914742
Ni 1.020426729621268 5.490685961678719 6.120845835062896 1.6359299494987634 0.8593583215393457 1.2816352763076766
Ni 1.839267056931386 0.14805591108037633 3.7550749372932546 0.3357873584155185 -0.2015580327845819 0.35521024302682047
Ni 4.222815543532585 8.986273638962556 4.974643894436184 -1.9813741142777554 -0.5907901412828019 0.5749971401146032
Ni 4.591419009316851 5.947077353722728 8.959287461482417 -0.13489652690129028 1.049189809915619 0.9251518229953875
Ni 4.256827911283001 1.0865763291271278 1.1335986131991085 0.11438812253529332 -3.1818676888080946 3.753013059276775
Ni 5.441997405769621 0.9162248654094831 3.629930960187108 0.7243026433523719 0.2932098900646241 -1.1373529373161122
Ni 6.746906401242219 2.0351630712973923 2.150073632953741 1.7542150930956175 -3.0027728701230347 -2.400804086515594
Ni 8.211990998661719 5.699234502585069 2.6661528316021172 0.24890078373460361 -0.9885212883909685 0.18291084999703983
Ni 4.7796195398222965 5.177231916419896 6.674858477918507 -0.8212291187677921 -0.02603679038339387 0.2008052137789574
Ni 3.033097451830434 7.112186606203711 4.723050771308578 -1.1234301565874332 -1.463683778304421 -0.4517407685554026
Ni 6.4552113598062615 7.899038227381751 9.680005264002077 0.3226166253615153 -1.084244230416591 -0.8152513039178023
Ni 2.376697742223522 4.792764057490034 8.231382875362216 1.1095891369392825 -0.7736626818427386 -2.1454230943732857
Ni 1.8504250443866264 0.38267255545744683 0.3544610415845506 -0.9669296782631219 0.05453412649213833 0.9574219958830027
Ni 5.297092094474859 0.9196158910479185 10.121386285234836 -0.6147942175068831 -0.17778921249975832 1.1854695903176808
Ni 5.330510359731819 7.531455875258112 6.4660760091553575 -0.4448869788583628 -1.1809848150734499 1.0990589268319202
Ni 7.997139401613848 9.276344181392968 11.069349219786968 -0.23313015116390817 -0.21258498002270484 0.5301113353455064
P 0.368507852414226 7.517940043531964 10.910796260275324 0.32255209067216706 -0.04674882611976465 0.4526326842420527
P 6.078745318835149 8.871017755231886 1.6646724018112535 -0.05473647231093154 0.2697675998812838 -0.559058871617792
P 4.230046884820132 2.4538289550068773 11.679079393677391 0.2722595130652021 0.5257214338079268 -1.5149556891055198
P 1.4636643211460783 1.2760207617282489 9.67572494119375 0.6983938939064102 0.7446207860844337 -0.6773818104311173
P 5.190190777058429 6.839075833391207 4.332768134224004 0.0834279267083531 -0.5945627209513566 -0.17565416843462653
P 8.824213618169223 3.0338772113530967 6.267048888991804 1.5729116967950139 -1.1647277297846392 -0.09804773350405695
P 3.204551718301559 7.927072438791756 0.5593298601720507 0.5870515001759761 0.12690425272443306 -0.06932285476553868
P 8.753654664219736 5.201125976078623 0.6750387470539819 -0.620188649049577 2.0181203206588534 -0.5106352288987658
Ni 1.7616067216147955 3.1080750430750075 11.447893691200036 2.255947877298431 -0.1548320894829527 -0.2349857163154082
Ni 4.6734515676712265 3.0025011734173956 2.2831655874801675 -0.38000467636268104 1.9156443761801139 -0.18001784471996093
Ni 6.956151156008089 8.557656538487667 5.371950865220741 1.0827640463266386 2.164340757213395 0.6307905929351395
Ni 5.070079962014039 7.001897048004284 13.37758221935044 -1.2572954140107313 -0.40923554820334035 -0.005140406550358889
Ni 7.073031538744306 5.91128267849194 5.305921014498718 -0.6464681515713963 1.2664482841545932 0.32897470636905923
Ni 7.069179155388295 2.7152154864250644 10.056103704055364 -3.8765219131664144 0.3022660867296213 -1.4870119115074003
Ni 5.017724679778135 0.37120359247828744 7.797691768279144 -0.7283225631450425 -0.5364179942898246 -0.42410732310885024
Ni 6.273805876569732 9.046547193494067 12.736100980325322 -0.0680864112552763 0.43649798346371926 0.7470111406934812
Ni 3.8866463607504893 0.5271833455651473 12.607450870222634 0.09545426174526786 -1.1771099054990761 -2.0515328346810278
Ni 7.770405754696836 6.826349044039182 12.044336391510233 2.1165256946126454 1.9964703464892455 1.0919678243130935
Ni 7.053751056261333 6.957469320915447 0.8227567623412045 2.0963031969181833 1.3372322968466905 0.6262232852794312
Ni 0.9128635448957206 0.44689132185957126 11.613321530503155 1.1562281769540603 0.07326975522842866 0.07680579340614514
Ni 1.4639056752840454 4.48310669847846 0.3388500702838202 -0.3097343700822085 -0.954093702840718 0.9950639746054927
Ni 8.061367450867433 3.6229762478730763 13.054973425981503 0.5489945454032544 0.01063562533697523 -0.16279839551788092
Ni 4.405353534647268 2.6450556950883697 6.64336454776926 0.636980266685619 0.38151571369056875 0.05771072444790706
Ni 0.4828178135810951 5.158276333738032 11.963225620305861 -0.1468074194062633 1.1458432341753106 -0.9983526726590936
Ni 8.556143433699642 0.29044649791455196 0.01701732329696076 0.08756226059170082 0.41248876503331544 -0.2081955927057576
Ni 5.145948706998798 6.111253864649003 2.189528536515312 -1.1158037503904268 0.8894086039575069 1.9777370317458003
Ni 0.7304165257253485 3.3758853077036997 2.6130976223661095 -0.4954955450438499 2.9598596156992767 -0.4253694776507255
Ni 3.5453344782594067 2.5627817825960264 4.316518502742808 0.7320470631844812 -0.6153295211850629 0.2562993901915199
Ni 7.724826954026927 4.998323520226178 10.632764647903732 0.32276086424886347 -0.3516628919951944 -1.3463854241008684
Ni 9.06538209910695 8.224151534074668 2.0015740015735637 -1.1766666473140703 -0.012681452122410418 0.19934534140397928
Ni 6.963614568582144 3.8339661787134762 6.5465211999100275 -0.8483678839661131 2.038061282557154 -1.1423622176052455
Ni 5.391118096915899 4.190771140291744 4.674112506695199 0.21789842181581828 -0.11618738052756118 -1.803718342032068
P 7.304434459945832 0.5900393893729047 9.167920476337054 -0.7243617787250816 0.7010254179919861 -0.3890007092137043
P 2.7996801518620305 3.9891847379805943 6.0492861897259935 0.08092238667767998 0.8183101453487842 -0.9976895851537978
P 7.311415164243954 1.8298263969962947 12.259313307052816 -0.8087147883508653 -1.5570348776637573 -0.40376912577213037
P 0.7181984366333456 2.2274759049997357 13.077527041889367 -0.2641782787189644 -0.5080638686271638 0.8593315820664684
P 5.977153792453992 6.206690860512004 11.422609060392562 -1.9859167393431154 -0.921208264966607 -0.9339506522339399
P 5.527111870808806 1.0653742963918789 5.766213989011477 1.5001049972459326 0.7655775908417589 0.642866293152751
P 1.1029327134001177 4.5035846687998085 9.832240314809868 -1.1266823449761434 -0.47919243700845215 1.3200401013381202
P 1.2219945662294973 7.869472345480801 6.365101792396308 0.11929790113208487 0.20604486491134189 0.37606137544421686
Ni 9.089285441617136 1.736310951385569 8.33194957494216 -0.32109864605509214 0.8944675065376532 0.4439127878705516
Ni 9.185121600092929 0.7700895762962359 5.8403412710622895 0.2699270082772835 -0.46733039546354355 0.5421127306817567
Ni 9.019561944299072 6.6804319019352505 8.823288117878633 0.19368480068409225 -0.9542888495706596 0.5689995277702716
Ni 1.7557956566006687 7.2381920319253705 2.000256764951352 1.1264725429581826 0.19389537403300153 0.2877645506793367
Ni 1.3120196596911629 2.4703338649032314 4.699559587403226 -0.8232199239455756 0.3405161313497555 0.8490016608953701
Ni 7.1122051719066315 7.6225856280435496 3.3646836908465962 -1.2668576037778696 0.026898367052740773 -1.663438439331677
Ni 8.202754561458754 2.2622680322728153 4.11064435134216 -0.8109753022502679 -0.32638277727216697 -0.07521710876278657
Ni 0.5284810881992926 7.194098487489104 4.330825233413371 -0.7195257907890189 0.6532512359315008 0.3431260581687768
Ni 3.4780987851326954 2.2495041115149483 8.699665600126826 -0.28619797752316517 0.0047794236665143494 1.8435557857439797
Ni 1.7330155391171742 8.507863323254798 8.755587353893764 0.6559966598871219 0.7511971537503708 -0.006639102583072437
Ni 6.922649345087987 5.627617303569113 8.148370047893636 -0.49047932277618106 -0.4403099010106417 0.40909028087472776
Ni 8.88157235734221 4.5868611292498604 4.706841984373806 -0.3144315184475617 -0.7154562487053355 -1.1942846175061497
Ni 6.103038541106667 4.869783876055866 0.7465844681136948 0.6021227926868018 -3.011260595879072 -1.2521856035879917
Ni 0.22958255403016792 1.2121176122757735 2.2135627672310885 -0.6347241236615907 -0.46085610059310955 -0.025976626569419778
Ni 5.623811334470403 2.3765120851943164 13.535510442958811 0.9581568171664983 0.49134527032090214 -0.6317246747136346
Ni 5.872368965170502 4.031542389193791 11.893105745230445 -0.6162697736111451 0.6016322262036283 -0.7202660113891531
Ni 0.5590699403311632 7.233597020452538 -0.029034902797421918 -1.2215637649370767 -0.7466151908066432 -0.2256947779317855
Ni 1.6681562559642915 2.538637085947873 7.150259293182848 -0.69455060890092 0.9451722319813722 0.36419059214855987
Ni 2.341330078159906 0.5366388580625749 6.442286845718132 0.7732672461765329 -1.458594793817288 -0.2562204573244684
Ni 3.895353675420219 8.231401441065136 2.614130803733637 0.9995649477996398 0.5748912106643583 0.20827246869028002
Ni 2.0638285166066956 6.402410500700265 9.807485734820775 0.8062012779003922 1.1175546716432623 1.7644740518194644
Ni 3.3123813208640156 4.84728224411618 3.281861161832951 -0.4393943311749078 0.22845485717542588 -0.20082218305982188
Ni 3.104259791124838 5.500702158404347 12.494738487792077 0.3771471523092279 0.2965219851569926 -0.7000805375802137
Ni 3.1777614089872293 7.204931575143235 7.151346315088845 -0.9391800189536793 -0.01235312224871421 1.4260286869558085
P 2.29934374100512 1.9983008681486736 2.524052798018648 1.4211929561300622 -0.9975075510499788 -0.16871553233326428
P 7.354190543772861 7.44119871050994 7.226628383861316 0.22205461007603694 -0.459501386337428 0.008963122730558758
P 5.308714224503112 3.877298529330001 8.477093455519451 0.16075616827687153 -0.6929323565712067 0.04699976578830615
P 6.7527731633651085 3.861322741966882 2.829760303733878 0.16725540284797 2.8426365948183494 1.5834781594569505
P 4.222741280720903 8.203088744111323 9.226858228543433 -1.5976991881523386 -0.18260900248590486 -1.9753420491510625
P 8.583305057072383 9.194107400306466 3.92629063448185 0.5041329090038738 0.9833050342973516 -0.3381620292952821
P 3.580414373927754 4.534942141032589 0.7515489370746454 2.218030019206735 0.670683058254703 1.7757437111960128
P 1.2805507932408589 5.590448766322205 3.135222742170557 -0.6519088629709934 -1.9477394569424453 1.0795964472319342
