# total energy = -381174.8903207435 ev
CRYSTAL
PRIMVEC
9.16627306094977 0.00000000000000 0.00000000000000
0.00000000000000 9.16627306094977 0.00000000000000
0.00000000000000 0.00000000000000 13.41576716578281
PRIMCOORD
 96 1
Ni 6.97557056427259 6.518320192358416 12.398637521845895 1.1999546713077334 -0.4343840224445099 -0.8101823740353272
Ni 5.390969418736567 3.7512881375892806 4.2911403803739665 -0.05825759809031258 0.4566227792380523 0.23392667892327457
Ni 4.165218702397642 5.315695983283131 9.420659272225256 0.23207754152967774 -0.7866747778316904 0.5428138705138393
Ni 6.563583249380952 3.1681115045621873 6.580366695595668 0.1841264675716958 0.27711452716465823 -1.3437752401715308
Ni 3.651164935512092 7.28081662784235 10.759405388085021 0.7348770764341086 0.5693178303416389 -1.1899852187998474
Ni 4.59866426283196 0.848473328143772 10.074114638443417 -0.9441677019762579 0.8599980120058738 0.038933700950720046
Ni 3.3687428921906335 6.94919919629895 13.080896068315559 0.25932455017108885 -1.2357009756694073 0.8983352170231754
Ni 4.577288513748008 4.296553064693895 7.1252888040828966 0.006577396107201575 0.23012838822310688 -0.02186286151136235
Ni 6.854126610750601 1.8305964191921185 4.134243115399615 0.1677040603496144 1.521833904282592 1.730756090741729
Ni 5.327804630169881 8.812060897127221 5.04723967379714 0.12293266967119475 -0.09452146551835335 -0.04621120844873977
Ni 6.508273956939886 0.6241251252581139 2.39888702455526 -0.04651459862177151 -1.7761910831460765 -2.250443916761066
Ni 3.743808458664536 2.580984207789302 11.509387110779796 -0.5745055451901654 0.476015067721735 1.5765300102738913
Ni 3.0007445223478317 8.399092791004032 8.653491703922633 -0.35213108988086456 -0.40907819668986967 0.9936341841375016
Ni 3.931992047298126 7.0306140347910855 6.814472396294304 -0.11593284131459387 0.055904010256471466 0.478816284615956
Ni 6.583474062207785 5.791077243571258 3.2937316121504914 -0.6462616919875451 -0.933336672799025 0.07414598718579489
Ni 4.252151637351415 4.729916128669484 0.69886508361177 0.6412313286524892 0.3703558404190073 -1.2241029864191628
Ni 9.13344876778825 6.679032460235315 0.16712590922940335 0.651967998343703 1.4741581954731837 -0.15977220709704743
Ni 7.115301232812797 0.7062805986241703 6.212331660660097 -0.23859400249195678 0.8348605935082976 0.45790550260521784
Ni 8.969225817278781 0.21444862783820184 11.768821057562814 1.320271500622636 -0.8061465134030568 -0.15492927718244928
Ni 1.5725474962884254 1.291592056677702 8.406883206589987 -0.12333787552941337 -1.5473292203402191 -0.2689944691606851
Ni 8.550217137122004 2.2589730305512115 7.530175923759943 0.27033735634182476 0.28359627823426 -1.0857596386198527
Ni 5.460468102078988 2.997298003627606 10.267583500199565 1.2543849252321557 1.449205125072272 0.08385087317838463
Ni 7.830362204527669 3.666325951371807 2.616798670405433 -0.5659455714352963 -1.1918148158094184 -0.5172234236392447
Ni 8.151273428982709 5.146862397358042 7.0251133542485125 -2.080686830537165 0.3046230169975721 0.2783121470171852
P 1.856151988851663 1.7042026781464017 11.569838682481624 -1.8596773738961907 0.25078128858676807 0.40707325044469894
Ni 7.33921495434915 8.684732196215911 0.052862814126097175 0.15730317673126457 1.1043857383614724 -0.13628158017427497
P 4.369388271478235 0.6990044109642899 7.690347381518508 1.2511594763163225 0.7279479534144431 2.014504321172821
Ni 8.028042052188264 4.332567352065612 4.791602397370286 -1.4734154037698883 -0.8431215479655093 0.9333996648264762
P 3.284798162297481 3.3421881987531514 4.6115089614560345 -0.6148512959970637 -0.6207298662650278 -0.3567138241555405
P 5.781535153178292 6.441277666178907 7.745432100266368 0.5142941658075917 -0.38656818851281166 0.7251559924916027
P 5.597733043130522 7.834257870634307 3.1205614623782245 0.008971350260674872 0.3688550875037647 -1.0734903343341964
Ni 3.3318669751388588 3.6664542791964965 2.4297562827842585 -0.8984046368085302 0.8023060566110441 2.8371161792207524
Ni 1.7556163044808295 6.400799403762642 9.540422131243815 -0.4665737198031771 0.1925928531714941 0.2873464893053116
Ni 1.6487467253342625 3.707949997937084 13.033740175878854 1.5175033952280381 0.39575525432871844 -0.723540825485683
Ni 3.9574101228597893 6.485092452037093 2.1546397591968955 -0.13462141886303264 0.47575050120643875 0.14638061628148982
Ni 2.537306916028998 9.162075038967146 12.698721140353872 0.3251458195412723 0.37260349880260346 -0.08009577701132657
Ni 6.193513301796738 6.270454998971134 9.967472382872012 0.8433814864951154 0.38806457055268007 0.8032133989166618
Ni 7.9180834389759625 2.0213648968658773 0.6416684555204533 0.17207776393727783 -0.9212316620053748 0.4246570249647332
Ni 4.966323480566654 5.312359459841211 11.935834221631955 -0.006849933042297881 -0.6421702955269908 -0.6089704117362544
Ni 3.1956378229580307 8.440386851734392 3.7115523433015745 -0.14224911061161954 0.8351716969908133 -0.08880924562492447
Ni 2.7519993667341094 5.370051983312219 5.498264312959248 0.24090670978553347 -1.6738416369428724 1.2543823541289945
Ni 5.690083245540819 7.074648811205881 0.7312788588736356 -0.8068484245660879 -0.845996298410143 0.6374104122445022
Ni 8.794663310608636 2.7296978240577565 11.693706198635601 1.2217113462585345 0.379056967737431 1.6857620425295419
Ni 9.151048012317062 5.447736148615175 2.3302252219552777 0.9501198057946347 0.9244170017118919 -1.1531189419011172
Ni 0.956509773867692 3.9695829336588835 3.903518852881539 1.3962884795788983 -0.3923554846185501 1.6286490995666338
Ni 0.7575594807426743 8.480003484470602 3.5227390316996887 2.8666900362231273 -0.3115058601603345 -0.9628336538168772
Ni 8.910616666488565 6.437546992989727 4.304381978627258 -0.032877467454311124 0.6999879778664074 1.8024065651991799
Ni 6.536606907376634 1.9201600745520213 8.534158743116784 -1.1750558511835245 -1.3866213888027796 0.5767133514747615
Ni 1.05688963159426 1.519089791032162 0.2981321189453795 -1.2534618991972541 -0.3386065730318684 -1.5946115503659506
Ni 1.4413047967240935 7.347583761773527 11.665130341959264 0.43148741762300524 0.8145208535096811 0.9826589160729206
Ni 2.2244986770757644 1.06430514660666 2.0687783615792776 0.5231346469173571 -0.5171727729069673 1.8505890384416777
Ni 1.7206469722530093 3.8038108829799517 10.494416679747598 0.12089866996030146 -1.074655558286891 -0.3475498982680853
Ni 6.256678090363424 3.2892621373420288 13.098148827717708 -1.0017863809309908 0.6173056710748271 -1.7499275214638572
Ni 8.706007116294751 1.559430559350546 9.792141742508372 -0.09616722865189245 -0.7940792978258776 -0.9957789983946463
Ni 4.846868608327349 8.609312100391403 12.129544156373054 1.9133725494268012 0.7514293243658349 0.7560133441920915
Ni 4.485974100208416 1.7880282464880566 5.817452278054175 1.5860119816223976 0.2575659156087693 -0.20443895387680278
P 6.782721342584227 8.076678297745488 10.855355185977855 0.08886478145320824 2.302712644257795 0.8002892832913313
Ni 8.708161190494891 7.049175738005066 10.497931945516765 -1.548725329356797 1.0001151638761552 -0.6112214125539601
P 8.861888758199418 2.106116258799933 5.196704924467346 -0.5502438444293234 1.2924146263113678 -0.5342631527303509
Ni 0.43884174546250115 5.207689786260745 11.717974823538976 -0.701412883238392 0.5892369378630691 -0.31750835760067253
P 2.8362832487353686 5.383773894280778 11.431602116471728 -0.19529919635906365 0.3451160920156121 0.24481247259784286
P 1.960647503241479 5.310471207563641 1.2010705257692258 0.37580220824555927 0.5345495736225181 0.4325935062029905
P 0.027405323589708055 9.021281082736657 1.410440121631691 -0.5309011782366534 -0.20867484633502129 -0.024327263891454877
Ni 8.041433977321905 8.795103291721857 4.2993506112721205 -3.138499863345421 0.3095615919497701 0.397112025466929
Ni 8.493908720903 4.474708750455339 0.2360636166524672 1.623595596303126 -1.9157006833393462 -1.5820460549961142
Ni 6.879123037745428 1.2470806340569172 11.575271532602574 -1.137116395825274 -0.3312928129792746 -0.8257928268790745
Ni 3.793260502535857 2.385641759792691 0.7232052054460435 -0.49741718754659503 -2.2243901570968077 -2.340110111069647
Ni 8.80112553320906 5.082148508621893 9.242793240696683 0.522674419451487 -1.03473969592856 0.12885366314132002
Ni 4.018347507040797 8.984212673947848 1.232030530102826 1.3676990979769799 -0.19387943319340156 0.02970369771201981
Ni 6.490528052040003 4.434340483317378 8.790855640724644 0.4111533340513435 -1.0724063572413982 -1.5356286440738391
Ni 2.8059153856499774 0.11122630879476704 6.487449100874779 -0.7432246770678554 -0.6647173275895714 -2.3485042486706136
Ni 7.379280734471771 7.430767690991736 6.120822922128833 0.8131136887495094 0.8221202631234937 0.876706068789174
Ni 9.104501677047633 1.5790097188888483 3.0082984480854322 -0.48675662250895524 -0.2147069114617141 -0.557149313299905
Ni 2.4955912067318002 5.034859705223905 7.988579412841681 -1.6579396210006347 -1.0179115686276277 -1.7627282727729514
Ni 2.0826780982477615 6.23660395207275 3.512596550412642 -0.8631044188453394 0.026646398942934753 -0.4863586157395883
Ni 2.5948711116753174 2.909769260916347 6.6112231210421974 0.1146568028156477 -0.9363209522383295 0.44450722692144096
Ni 7.6895682482971806 8.820851353118435 8.149555669386512 1.1803559232401994 -0.3486865829756898 0.945333954370217
Ni 4.47160138384322 1.4325876709184169 3.3719327552614806 -1.1426239559070646 0.3131292546963704 0.24892803742811323
Ni 1.8078640616757373 1.4462545842478216 4.608209103106883 1.3466456197407903 0.8110035843850419 -0.863965481294054
Ni 5.6162305824321574 2.9714399469527226 1.9093722876322516 1.1092039856857219 0.23587069002352282 0.918542802319302
Ni 0.8011964409009339 4.158298166137614 6.281906424070011 -0.7674773789676331 0.004415612569192395 0.28980292126560414
Ni 1.9058698546455544 7.668788306970714 1.4058780674639881 -0.6183533956130512 0.2725983844618596 0.2244205392050522
Ni 1.0888249273954984 3.295476870566265 1.8315203795298811 -0.6047741142667198 0.11706489803650806 -1.3399301553938279
Ni 4.43417549039992 6.602411582622642 4.507456178061396 0.43901175102450846 -0.5152760701048869 -0.3933322467095226
Ni 0.49136907398976787 6.813437524050918 7.365873226673703 0.811277663982035 0.8629228989621526 -0.22615603383892016
Ni 0.4962876961846429 0.47004098952641493 6.2398616455652185 -0.9903166897284944 -1.9506818274002213 0.9602874903562558
Ni 5.475986602593194 8.29580722467557 9.014885773930535 0.38099043731471804 -0.501860053809297 -1.5615345653063237
Ni 6.096249976955481 5.661310313990851 5.779807310681584 -0.15639249199153712 -1.4952199012394893 -0.22105367961534833
P 6.797644035340948 4.949952516645584 1.0764999564614155 -3.358118867396772 1.4555889171114287 1.94733270842233
Ni 7.646945077953966 7.3272804666530496 2.014874258818559 1.134653021886446 1.5564070142717712 0.5860315435518939
P 0.9913966096367832 8.578485923646406 9.631555052574205 -0.4781087170259701 -0.16025274627789177 -0.024221848661842155
Ni 3.2491688583998313 2.854670792758699 8.908794411377976 1.6884089932340858 -0.10506324558994165 0.23996851424198026
P 0.9073712165395406 3.3051564550571113 8.529865260753608 0.5388438301224978 1.5247101973891224 -0.35195445509368417
P 5.527455226566775 1.2103238785566397 13.281032477191632 -0.1368276824857321 -0.12537778877757763 1.345101158071806
P 1.7923180623419546 7.3222848477633615 5.552705559329023 -0.4082289613156969 0.9225331544256177 -0.30311069411810376
Ni 7.336740060587285 4.437732004398451 11.247685428009056 -0.6121382679412748 0.16004294425993082 -0.8414179350108411
