# total energy = -340855.6513195518 ev
CRYSTAL
PRIMVEC
9.43994702161337 0.00000000000000 0.00000000000000
0.00000000000000 9.43994702161337 0.00000000000000
0.00000000000000 0.00000000000000 13.81631667059502
PRIMCOORD
 96 1
Ni 6.722422428111322 0.20123513128877699 13.230145528185805 -1.0303533939354061 -1.1425097989267032 2.22303518573081
Ni 8.037803556393419 5.559949565218796 0.7717053029080986 0.3570840630107657 -0.11861964411813765 -0.006690267535982026
Ni 6.337102661678958 8.29009558632314 2.4420756471412233 -1.6173197905967438 -0.4746295002281181 -0.5295564912833008
Ni 2.7043088855091324 9.130468009447949 13.177644317617176 -0.38004118602757125 -0.36798014109797916 0.2602164658577389
Ni 1.6510373322861045 6.048042037250386 6.391774116118006 0.26841391406686677 1.0070422300132915 -0.5637308231721646
Ni 6.5201526786050685 9.070392185214141 9.82586077886986 -0.1374123513446085 0.12620928353993746 -0.8150088488896932
Ni 8.378906609954766 8.197735142529368 0.7736914678073432 -1.1856495675389709 -1.3089601893748748 -0.17152677652981424
Ni 4.34442419883884 2.7588151408714845 10.400246640604232 -0.9573271221763513 0.6397943390956465 1.0147421697607104
Ni 6.170421513266583 6.221727626514658 4.117137645152508 0.2688209196972983 -0.3208420499595958 -0.04142407147274156
Ni 8.071230409569395 2.6011397021258382 9.812569333156283 -1.4332079783130671 2.2970127656595407 -0.7407970414629693
Ni 5.218865391551928 6.130915334068204 1.8640006540255545 -0.653313456628004 0.35788727563835143 0.4113176275433496
Ni 0.5136388572518179 0.2156452107502647 0.5851351296562827 2.117436636462689 0.5124478566274723 -0.292363997124561
Ni 0.1908002136099506 2.017486644186197 11.545950381220056 1.97914831027103 1.3992660741499836 0.7138287404042416
Ni 9.259106170484106 5.749229947323146 12.335635951635718 0.10484084516649042 -0.7635415342483367 0.12980419998004744
Ni -0.21644383028674807 7.585913282026294 9.917849288742387 0.046166728364049524 -0.24973484960012476 1.9662969082296589
Ni 4.695325917635054 3.7574671593652833 5.314695015956312 -5.014236604697319 2.782881329136588 1.6344410236580624
Ni 1.909578607288545 6.764222514488963 12.748025710772806 -1.719073512197478 -0.5237285717476142 2.295157457618357
Ni 6.357464627875111 4.251752236786154 9.379800615918008 -1.0771736967230545 -1.0789511003384513 -0.4978496470983232
Ni 2.7572858694186437 7.357815836872066 10.920789875267207 4.5048666156642225 0.5640642952521834 0.42247570104269816
Ni 6.144499418146213 7.17190551593231 13.751988643583694 0.7403159880614928 1.7448989579010143 -1.3719046514178954
Ni 7.349272684620088 7.040048332887396 6.595771375969134 -1.247479456361574 2.023737666845631 1.0530163827505605
Ni 0.6257316227608538 2.9187184071657133 8.710497028682612 -0.6924176217183172 2.4822221818827703 1.0344414479618507
Ni 7.503955660090732 9.250666857651764 5.13430895214126 -0.14565196564558142 0.9326039083980585 -1.708516048396606
Ni 4.031489947840924 9.774970967295058 11.320702856137512 0.1216183217351454 0.047859285575124026 -0.927170653197629
P 6.084470793648604 1.8639270224370843 9.466912449046477 1.9551516902461163 0.8266564604309505 0.4772031744925653
P 1.468176114304789 2.58713082042204 2.7196733436365594 -0.3802743850842999 -0.9351922379505249 0.2632184859088563
P 2.275263283462217 1.7092818067553999 9.986337049961541 0.4420739348896 0.6497622489416358 3.2759227562129904
P 7.228951117102156 3.1996512370208556 12.665334604936715 0.3019295293258091 -2.1566104784486733 1.1552113056537718
P 1.7302856893638572 7.9826837044604835 5.184102785841526 1.6244636007303765 -1.1483294909322739 -2.8029001954606763
P 0.7223022830235589 0.9262013674233951 6.073431719346434 0.9607770283981647 0.00620098660438932 -0.27668952381209766
P 4.512219261025504 1.4953631623552863 0.21881608902809876 -0.7873597197138569 -0.2140487090524249 -0.5623169735437734
P 2.2262982771296023 3.999365807384034 6.287681705894663 1.9332188947287672 -0.6932573440107931 -0.44831888735804726
Ni 3.9195416135246566 8.555537462757844 7.1079423214251705 -0.1998528771680171 0.19802045194496865 -0.22795914848592996
Ni 4.687991078629763 8.900784653157443 0.6820022042623162 -0.05056614298332581 -0.4025427095641971 -0.25030254917813666
Ni 5.278903455996776 5.5733920500882075 6.479977207147391 0.12342117927183906 0.2026561509447671 1.3748760753413933
Ni 1.0873592027057875 9.421256144221397 3.5584617436145374 -1.4424032716590902 -0.7655693633116428 0.8287385397709598
Ni 0.8365549084610512 4.820367458772862 1.912095297222664 -0.6026264717960977 -2.5579326853422075 -0.6636135530024313
Ni 9.039646277054256 2.4469476039116618 4.989486945557266 -0.2204636114398332 -0.42090090035641065 0.5171506614197804
Ni 1.9575052194247866 1.3351200579604265 8.06889496662228 -0.6719495836719525 -3.4875039775615297 -3.29823607499821
Ni 9.521413984435208 6.8801073068042085 7.802833829648649 -1.4997656116286429 -1.0800556462565398 -1.1032107442167647
Ni 6.612654721607439 1.6778184626052928 3.359064570053341 -0.6334593980165542 -0.61762294520493 1.0870022527777021
Ni 4.764634010269344 4.946853311838355 10.90893518952352 -2.6173899601675763 0.19981662461344296 0.6340414957722693
Ni 1.3759478297723715 4.1855121270047855 4.283942456873722 0.7658041050302682 -0.29579976227898735 0.5869409427400407
Ni 1.4472477512742496 2.9688350870615787 0.6452166178584344 -0.389450138046297 -0.8054034645894451 -1.0836446491593787
Ni 9.255688909583315 0.7640221298496611 9.605974199824772 0.40920598051698553 -2.2841986446140083 -1.232915185394154
Ni 7.706102690282869 6.024215610417241 9.507311647253738 -1.3491796990165539 -0.10812208702092346 -0.13428074769416232
Ni 2.2824565232589116 4.420019296334806 10.286510380280754 -0.486890319873342 0.05192342834216864 0.026561809648928448
Ni 5.413224465271266 7.086889351091067 8.387429938317542 0.798740707857289 -1.1135416938291274 0.01879862076374182
Ni 6.817473256868427 4.979251210765198 11.767398327538599 1.7024680424303131 0.1251114224900684 -1.7636749529569367
Ni 2.3425323474927193 1.8096945255446855 4.634628000878146 -0.7862973398876135 0.2979648882511062 -0.8897842421293708
Ni 4.2900878625268035 1.1549114651534822 8.850870932127233 -1.160076604165873 -2.228264295340234 -1.9512744666788977
Ni 8.729355211283472 2.3053200754736007 2.70798385696957 0.8783101800515003 -0.39757199582248304 -1.3937487438761804
Ni 4.8191213857372155 3.155774362250469 12.703219001199304 1.9412991006337408 -0.7026331287987383 -0.2094888575958844
Ni 1.1549020252062425 8.74607335784508 11.034774406203091 0.37915132722345024 2.9600408784721477 2.098452124940386
Ni 0.21506937396863954 4.19499927398074 6.740801061392403 -1.0264512306675224 0.04173234674177974 -0.15247438788405354
Ni 8.313525535372216 6.889934291880795 2.921515463532853 0.33678726043494256 -0.20915384285396882 -0.32759890906745515
P 0.18745658429762893 5.202685321982986 9.19994035716421 1.2717342151438809 -1.0489661239405872 -0.5478079812943211
P 3.945029471071998 5.237622566717323 8.887787733797747 0.47717694924032017 0.40940138435724327 -0.23508084713237581
P 0.6741396722063233 6.73604427197829 1.2252060322743261 -1.6229497351890114 1.2444692087803406 -1.3677885723669927
P 5.377635864177385 7.516718468758881 5.621403621749608 -0.6717870899521592 1.31914818565147 0.5921366280083673
P 4.09281184511038 7.121883235508842 12.782953515559905 0.12412026222139269 -0.14544164940698823 0.4836239904172445
P 6.541203760949724 1.74334113639644 5.970555174327571 1.3067356709197302 0.5748104780250939 -0.7732129958998297
P 8.139622827321428 5.595179448317566 5.335889585499012 0.3990871469154288 0.062392189083976424 0.5685619260122209
P 1.3403497887312514 4.022153840020805 12.244503644977836 0.2318209454341814 0.29807595990767377 1.3020058695442287
Ni 4.275786342458573 9.291645668619545 4.856822647023353 0.3522511603984965 0.2813385925483348 -0.476664785490592
Ni 6.331731331699536 -0.05525295518901651 7.110484499216836 -0.34529118414089566 -0.5797547094042467 1.5949159689802468
Ni 5.449870340456 2.9988446793367634 7.396731075373237 0.9193814961705133 -0.10242400819488166 1.0294357672171432
Ni 3.052114301610707 3.297043172693419 8.13724396061701 1.2840487708451758 1.3921914266913895 0.051666575136356176
Ni 1.5404955501085604 8.53044608299457 7.0728766934083716 -0.41025961859248056 1.0608795875487214 2.1178554691676625
Ni 6.706695476009888 3.803600181525972 4.951325958840552 2.8365641633720244 -0.936896108015509 0.1601650716600919
Ni 7.430210792253757 1.149153097337231 11.475349015813919 -0.5254992904947917 1.543210055965523 -1.4145736510413316
Ni 8.371930488944587 1.7494959819967608 0.4403754267240707 -0.9997878624437233 1.364859571645656 -1.4680968197704523
Ni 8.495414438787837 1.625709953841839 7.2163176357111904 -0.7433110661340747 -0.14118261702031815 0.9109243665420956
Ni 2.425773802252889 0.668887285562123 1.8355250531768303 1.7765214699023018 0.8105955503133458 -0.6383666055101845
Ni 3.9715179630267534 8.290680863052005 2.792554456301097 0.1679380307372914 -0.3045119453410046 1.4133899151458755
Ni 7.472001438684156 4.80308291537687 7.243687818738139 -0.3962149675739563 -0.8826810554256863 1.120276955670432
Ni 5.694544332963238 7.009491223672305 10.85752523685581 -0.9489928912790428 0.985598972537851 0.6865781322184047
Ni 3.517947378050952 3.386930350310377 2.7148787944334876 0.034347881352250524 0.18169111865732582 -0.07057241090192362
Ni 2.1523362905061134 6.793514670773925 9.034503393798037 -0.42123925753243585 -1.10292149511112 -3.2187205959703857
Ni 2.7374431003206765 2.16754404550936 12.697844839235712 -0.3053079588797387 -0.5778546641680564 -0.8655901613816706
Ni 8.520836216704499 4.45237943547269 3.7496518270454895 0.3288006426850402 0.31510154793139283 -3.0648575552689215
Ni 3.3095794226278152 4.828108215509463 13.277107377714142 -0.498574955300122 0.478616252790008 -0.3031821707859875
Ni 5.815545576682432 5.016019805264048 13.69803556912959 -0.7021281641378618 -1.8340920692279188 1.4243574699009727
Ni 2.701618500545802 7.366302349440608 1.2619614108470405 -0.1741791265509968 -0.5266555155864221 -0.8917804466237932
Ni 3.470983640533165 5.983472798130454 4.901130927382597 0.22891045665560575 0.5122141433501114 -0.05261685486476745
Ni 9.072157455347975 7.5795507575866985 5.0656002961566955 1.1362401638679076 -0.4710880627337629 -0.2109811258706947
Ni 1.336224531787478 6.361552125029926 3.349987116787591 0.9285351376453234 2.911477110630831 1.8515238915511212
Ni 3.687923068050001 1.5453854427787541 6.412318273295885 0.9816456443170578 0.37798147528506515 0.9662442221603228
P 9.065473972702229 9.556624987639498 12.375095875092622 0.16044532190467206 -0.7485157502634657 1.1720306912039555
P 3.3881481035043053 5.608574733450779 2.8341685757181136 -0.40451320302700655 0.21689466314165226 -0.5247876091397479
P 4.608421763345858 2.1451241708149396 4.313232725169238 -0.5240484169808781 -4.3721033330558505 -2.903052891122878
P 7.6210770854943855 6.96020525913354 11.701135561883854 0.46835240897015473 1.4947619877664644 -0.10721603026688632
P 8.251901559791088 8.5563587381677 8.347998334702357 -1.375907087709069 1.2848802656075355 -0.7562306024092201
P 4.082701661616601 8.482594990436247 9.236456905071758 -0.46664082559568665 -0.5923963094276572 2.019716975722012
P 6.564539310526402 4.430799716082608 2.0442894863840366 0.8840743362287872 -0.05270864324762536 0.3670514586361227
P 8.09620850996579 9.213143067373734 2.766496425940474 1.7714985627664135 1.7955430053101271 0.9947996652005126
