# total energy = -381172.43130390334 ev
CRYSTAL
PRIMVEC
9.21259854692412 0.00000000000000 0.00000000000000

0.00000000000000 9.21259854692412 0.00000000000000

0.00000000000000 0.00000000000000 13.48356919715548

PRIMCOORD
 96 1
Ni 3.165863385162147 2.3195848814028026 7.807633864502638 -1.193947031661073 -0.4892179395652542 -0.6203136046632155
Ni 2.8093634639771463 8.839506612317509 1.0480307241894309 0.4588686378494355 0.005077928743539642 -0.5846979123421349
Ni 0.6039751888495826 3.5399593693355795 2.4256135979159765 -0.6785074393951281 2.0983392535116057 -0.30232702187454386
Ni 2.6261617317321417 1.9070262988122473 13.124474997244716 2.082636498064368 2.137737809913886 0.9823329001920694
Ni 5.1535736209653304 5.453268660272492 10.16770350967647 0.9239614022317119 0.4351047026606184 1.2488601387591847
Ni 6.424737164005554 0.07713892911766414 4.275706959732302 -1.461803530562573 -0.4612577069069024 -0.5075092816752743
Ni 0.045033023612593245 7.430200155920457 9.892018344380014 0.3455768337021145 0.9959456058794977 -1.6293360983313296
Ni 8.056675273899176 2.797138345869476 0.6817709762348254 -1.3627636083485757 -0.03200020705568037 0.3585462493785889
Ni 0.6652988502540313 1.9821550389539555 6.73617550252285 0.9178881994544386 -1.0828491498412771 1.940794135972864
Ni 1.9638219680916624 0.2021750786977139 8.433985533662485 -2.8710051186587138 2.1361966906790113 -0.2964091137282121
Ni 7.143725195350677 0.5485549605147605 1.276290354062771 0.7727813076790497 -0.19357192925531178 0.28348649212927307
Ni 3.9229455109874607 1.8365407082758636 4.192365188096255 1.1167548014497863 -0.1477975512336745 1.9186042301393862
Ni 5.061816140669632 1.297308897365445 0.10988234643362478 -0.9854315937220511 0.8486507053138546 1.7325766888902354
Ni 6.257721967190224 2.2300384247286877 5.094456376883253 -0.06837771724344999 1.4474187225958104 1.0152139671908065
Ni 4.813582676154816 4.959473384785606 3.8291990306921813 -0.5482679516498751 -2.155986214601113 -0.8086119442244138
Ni 4.747334880893133 5.743612912180043 12.895415713828237 0.01120846712130973 -0.2573386300893116 -0.5165479948387749
Ni 9.298551966551848 5.547578030331433 6.2820625734843265 -1.8673739712095 0.3551683340452915 0.7547383341344098
Ni 4.0437871645053995 3.6353650386068894 9.391737399603151 0.7507441253733522 -0.5892855317128174 -0.3625545992070337
Ni 3.2139992119236953 7.026430392225696 3.7814399992061443 -0.9054869975766083 -2.710133250739584 -1.21628374748506
Ni 4.252212991233297 3.662035511042235 0.963404716333181 -2.0363638402500737 -0.6104937903593164 -0.7941466607287032
Ni 5.572783699617481 6.982044093022416 3.811184715735333 0.9718749380835391 1.722422631175369 0.3498348376475201
Ni 5.389784644537789 8.232248974649718 13.126119446063269 0.45391875004332793 -0.1395078004210565 1.3806152918180157
Ni 3.0661738576240203 8.31820251793876 10.0026376986875 -0.1512304881746234 -0.6568386961724431 1.0691603395002747
Ni 0.8342275037618746 8.2218663762267 11.901366210099916 0.8302621755043378 -1.1686826006673292 0.8688652325885166
P 2.8615344088480836 3.0979849599795464 5.68136891219311 -0.5234498641649308 0.052569032345967534 0.02186029040820106
Ni 0.6990878974910325 5.7409136208420275 11.271845407082468 -1.7074868358011435 -0.2996577025724968 1.6626282847255558
P 0.7224197242577878 2.455369369563273 8.922077289465529 0.34701330903832495 0.21421351676506334 0.5003089072720932
Ni 1.4037881099415166 1.4303111808020903 2.1491868184464487 0.9715664057041848 0.42798069002132744 -0.35497267309471764
P 5.756823778319002 2.52933732230365 8.008336769972315 -0.9180720333304705 1.3241363828946808 0.03044803207721208
P 6.315236219146653 6.75058677023636 0.9597279683024567 1.2922284784424907 -0.24618826989944698 0.09382032568627068
P 2.5066835427808463 0.3495858660683421 11.810743721929963 -0.20858665749658917 -1.85844015905498 0.5684927633371823
Ni 4.276847479417102 6.518502990757524 1.4972158343313517 -1.2741168564434442 0.13211665016330795 1.1833677134833298
Ni 2.8088383458670205 1.627202834304063 10.257031627767953 0.47137731183940756 0.8214445772127079 -0.6728553833156735
Ni 2.9678570072509594 9.137580234302177 3.52784111736962 -1.4616587774545924 0.7424163222339472 -1.4957446633947078
Ni 8.173518659701417 2.1343563775046803 3.4811608811589476 0.4225623472192336 -1.069032812783475 -0.6731340908983569
Ni 7.716315825151731 5.54889543190596 9.895227092410837 0.26584229668494863 -0.36060544590046284 0.26556307488163294
Ni 1.4764570863042135 5.032409526502578 4.694277684053879 1.1068681384636938 -0.9959816013237557 -1.9200612743008867
Ni 0.585730558932153 7.592258974784074 5.481960376801902 2.0853785795858792 0.7317115342219334 -1.5711420064891006
Ni 7.038655510333365 1.2045103934479189 12.422101887155948 2.3112466498707356 -0.7314811633786822 0.97539606386292
Ni 4.640026534458968 1.2256993698214234 6.437581368727268 0.291202372716292 -0.9513055985726196 -0.07229762112314646
Ni 9.11494487997622 8.71688692730388 7.348760785858815 -0.43384177678779484 0.10594719085679172 1.25923274024276
Ni 0.37637333850366333 0.9382202360235075 10.604449769427301 0.8529249072091764 0.500300422631661 -0.9180972301414511
Ni 1.82396551142811 3.7417981881908444 10.568111596206583 -0.36634774770087875 -0.33578992951867975 -0.4978488757673748
Ni 1.0695642517439654 5.519037400416166 8.992865974490037 -0.6297084156145543 0.832775685954811 -0.7128234390681788
Ni 2.322376298725051 0.2448229605785244 5.733725951552198 0.01579634360230828 -0.09675446861393014 1.373809581750092
Ni 3.2355014166435905 7.503744329133365 12.313046832060733 -0.4882879715518171 0.4435281508376232 0.7619412796407523
Ni 5.776354486976318 2.3412068499022003 2.749124125407115 -0.6927896603457552 -1.6762589881351133 -1.3813040903549243
Ni 7.608077006276816 7.738232596800673 2.722305330137155 -0.1903284826173496 -0.10807529294338807 -0.5990590661598135
Ni 1.094336928904119 6.701437557648253 0.3411204093772059 0.48620692065307236 0.47377537975793893 1.0067918045653823
Ni 0.3682238739384451 8.786856612328563 1.5151757949575024 0.11859701841031833 -0.07141367585629636 1.6476930035719624
Ni 1.2291725194269936 2.0292037791015587 4.505561290392708 0.3155563760806243 0.6610380789657713 -0.6991580257659442
Ni 6.0821022034475645 5.053911731222473 7.861190384176435 -0.11784239963248093 -1.0479860194155046 1.5286193026355417
Ni 8.263977163619435 5.522842203564974 3.9002843613859195 -0.1829288477191688 -0.905944396829001 0.08685263611918591
Ni 7.586464250375841 7.454392439379946 5.221323069770005 -0.8934064122629903 -0.334794655484946 0.7470738756106167
Ni 2.697430393134503 6.007563069604945 10.600741698561936 2.5442559591860636 -0.5918345233869162 -0.46963770344048156
Ni 6.536301730911268 5.138087243015825 5.591905368904805 2.5664476647917542 -0.2962882718796317 -1.3151938289894123
P 1.6570424405970112 7.297547951223897 7.683598203111355 -0.3721191029670172 -0.28456147036100665 -0.20023211488430678
Ni 8.344025431319166 7.795636297576023 0.07935916533767047 -3.1497605238609045 -0.622895763568095 -1.4614248070669154
P 6.894736297765154 3.7929004716446837 3.712053471661656 0.0011744799240753967 2.701917290587695 0.5689115960421557
Ni 8.105179604597653 5.437441416181327 1.3932304721484574 1.2114816981107264 1.5077810257339515 1.3039143994208513
P 7.897435510153078 8.326512281716543 11.3860245094207 -0.9619700202650013 0.2775475009370188 -0.04737257574669261
P 2.2264915743357316 5.349958581554023 2.2675585743271105 -0.033108095407878464 0.8834840109429559 -0.11666714837745713
P 0.8314637242348957 3.156604723746768 0.2271384566452291 0.8554669569047396 1.0625459195075508 -0.27490492110784914
Ni 7.340036455151984 0.9993366139634329 10.177046926997342 -0.8050118855779814 0.3797964170066169 0.035016882394817116
Ni 4.123568266850856 3.9461151960219674 11.654603997553293 -0.20404866041691955 -1.1737553872045463 1.206847798883141
Ni 7.922042360541612 6.581701415941106 7.786855770018812 -0.2525242394198038 0.03563986069079668 -0.7739542449412283
Ni 6.792872596999136 6.289275116789899 11.977278942367443 0.43367902595768537 1.2502310509647825 -0.14979118462493557
Ni 5.1059076367233684 1.5056886611012266 11.305365446445508 -1.3451980886609864 0.9161074534049319 -1.2399918897352775
Ni 6.611117242706585 8.929218895763242 6.992107014280146 -1.0008394436366892 -0.925305317854116 -0.1048416164974388
Ni 4.50571606204622 4.552230471485274 6.145244431780766 -2.0752887994500453 -1.2810508645591163 0.3410612052199481
Ni 8.4623704706644 4.892728109209067 12.775721950073837 0.4099857961058036 -0.586675604893796 -0.02633966633579335
Ni 5.255409683936078 8.362459840764114 10.846493289061527 0.8856460515912812 -0.4733714594513009 -0.054926991055182825
Ni 0.6767473463146201 6.912452124533089 2.9996625820474323 1.266665542371722 -0.16804627418038157 -0.2120738447142412
Ni 8.612314722601425 3.0978191332079277 11.323096934630762 0.5811544179652507 -0.6322833754305821 0.40690741429079597
Ni 3.7069929913477577 8.420407084846437 7.687602919645948 1.9174557183572396 -1.9356478158852342 -1.7035070252177889
Ni 7.1062667701616915 8.212681415598707 9.198733462635795 -0.7703176766299055 -0.6421890645800683 -0.2591574284656053
Ni 6.87795094343797 3.306327873321635 9.900782289260064 -2.0042834147757613 0.318375076476342 -0.4999055011860874
Ni 8.0876940927903 0.8182316691195632 5.637102376769332 1.7532126199730322 -0.03494591994756562 -0.9965600995350451
Ni 7.605976533836312 1.5560078736890879 7.8653968566164965 1.0963631251673118 0.570561730051069 0.5226538506261966
Ni 4.8351401564652505 0.8286308502197424 9.001334194960702 0.5841628657742713 0.13607614903168824 0.09683957212856871
Ni 8.298791573060944 3.9133736212256913 7.943036029828543 0.5225947152534871 0.7478457207796346 1.5178762051864247
Ni 2.286170786921628 4.944816140694195 13.269153327923005 0.5665202129918436 -1.6298860572975284 -0.3012772404537908
Ni 3.4780138575375603 5.602199526382959 8.071992140037691 0.17719837299329486 0.8096056755962509 1.32191957774902
Ni 2.924585432456894 6.429785667941504 5.968488754652519 -0.5204056780219682 0.8024934900315018 0.6093812740214279
Ni 5.375772282336006 6.906592911935893 6.5032469277686005 -0.4995141792849397 0.656094876027883 0.18620777558075674
Ni 6.2174168490884485 4.285737636895551 1.4876153855144694 0.6851519412948394 1.081949520845143 0.24374777877875442
Ni 8.394105116348022 3.3807380307863286 5.797354605082147 -0.36489147487032636 0.25614101023678465 -2.1851096143296305
Ni 2.9198040938752206 3.3936817315710126 3.009411353698929 -0.5415812836583188 1.538949738027272 -0.2679865967214611
P 4.280495668392714 8.405408974613366 5.170180250883104 0.8614056909866779 0.24009321274530265 0.5610386210519821
Ni 5.115921731209455 9.04810747841545 2.2661425979494547 -0.4305001140090715 -0.38479027067678245 -0.41550055527644564
P 0.13171067713770368 9.390954328737175 3.7838804165284667 0.3742407772957103 -1.0757055968179603 -0.1366181375780873
Ni 1.5594902358930813 4.185182125105637 7.289850825241261 1.0925856604027506 -1.6328415403814267 -0.9745010628524765
P 5.063815274527481 7.150229289837502 9.042418698889083 -0.06108041225108835 1.188345112093263 -1.802827454786682
P 3.7058598417416966 1.6124350390315725 1.9630057318713614 -0.04018094309425983 -0.638567922887713 -1.193693263779054
P 6.204049368776294 3.26085448750441 12.334202643079914 0.2657857324154003 0.165631751201618 0.10496297256665148
Ni 0.5340580156359142 1.0761973226087145 13.15923505235553 -1.9914422971470347 -0.37791616926476845 -0.25358147703972456
