# total energy = -381179.66934847075 ev
CRYSTAL
PRIMVEC
9.16043645128340 0.00000000000000 0.00000000000000
0.00000000000000 9.16043645128340 0.00000000000000
0.00000000000000 0.00000000000000 13.40722469756918
PRIMCOORD
 96 1
Ni 2.1117095936135533 5.783120885336255 4.158063137919677 -0.6405515289766452 -0.33769948783656684 1.4227207056284983
Ni 6.187700717942421 4.5710852286821115 12.869554763423146 -0.42758679701701846 0.6118857856108365 -0.7860731396919495
Ni 1.923902327207458 2.905259875255696 0.8511419450844954 0.3445453071138066 -0.8325476291044048 1.0616110663981073
Ni 3.2434998276885634 4.590917573417708 10.325936091344685 -0.510253934299947 0.523704403377898 -0.4714413323081235
Ni 5.744692854774673 4.454967537287923 2.4931538281300085 -0.25536299442017957 1.3646474556348498 1.2177042819816706
Ni 5.746030278484326 1.5070291889961336 7.704609437560882 -1.2688224408137245 -0.3578034576752934 0.3590823243877171
Ni 1.336370259469963 0.9379370796663776 5.502606338716706 0.8164206416355552 0.41970482316578034 0.2981852317920284
Ni 3.464889253817844 4.703911556010587 7.4026787067578 1.2459277956037382 0.28232178239721056 0.274724686776243
Ni 1.6174765702788518 4.025480478198578 8.703862814096631 -0.5322726046628833 -1.126914772701924 -0.02966024606859408
Ni 6.450486156016348 8.947080644045982 0.9442357957126577 -0.33890919187395185 0.712431860056715 0.8647440113312913
Ni 1.1343185145124348 3.8500947635067866 10.976280355210362 -0.13895886989612197 1.32828922872079 -1.2987040588645054
Ni 4.438066532189921 4.950098283386638 4.9013995715698355 -0.27870963956592 -1.481801056730422 0.5923204618843991
Ni 1.5592253554180404 7.107719984074006 2.341665859833702 -0.029840480400200223 0.5697860282273091 -0.18300109571800094
Ni 7.207687826152325 0.6379135517150039 12.177527765954522 0.1732769264517016 -0.10781561152409819 -0.4717766041603553
Ni 5.071391621328453 0.5668377259397189 3.9201785140234735 0.6601595330155599 -0.5450211625778033 -1.5235639995998214
Ni 0.6941155769604099 4.697306881389633 1.994592498611672 0.8124506012442136 -0.05120506211890535 0.08836033101296395
Ni 1.585726497829163 0.230478411093095 0.7883673067454218 -0.34587045368313335 -0.3854901249572845 0.8572947541420977
Ni 8.082353771828512 3.545455291669839 2.9929756336925095 -0.3492856500122694 -0.23752776601097156 0.8253549680107077
Ni 6.577339878833224 2.887690158302867 0.9608647358505458 -0.07161884988856698 -0.966572294923703 -1.3260757660092386
Ni 5.882713149523509 5.620669706795349 6.872892197793631 -1.822117927585178 1.6286084761366855 -0.07487720892486459
Ni 6.376249979694282 3.728169355455615 8.054845897460604 2.393495725779639 0.35899619243181397 2.324036602546552
Ni 2.2340563817376293 1.82320165021974 10.007098859181777 0.6451993121613017 0.75465065951661 0.39176335956050595
Ni 2.601893704073828 8.448395648636685 7.370608019035249 1.2301252813538428 1.5854887621290759 -0.22497538326725772
Ni 4.148367732068335 4.159754154473114 0.5498048105580248 0.602935004175452 -0.6939592551738242 1.2248280375106455
P 0.1356788872133078 8.623369143691939 12.857528026516281 -1.0857670948190206 -0.23794839848815794 -0.3537102614425263
Ni 8.509880497535217 7.969414751853839 1.8237311234417801 -0.35327240257415937 -0.28898042536430874 -1.1087532713015484
P 6.9143798141019515 6.6121770183387545 8.90186106596155 0.9560580256559406 0.1096943166040498 -0.7929192160795054
Ni 1.1680930433993373 1.1909666530089373 7.9969803369708625 -1.189638634093706 0.2719088145940027 -0.16288761279757755
P 3.1253027172389563 5.956289774427116 1.3266913424040825 -0.8680445364594341 -0.20800944483688047 -0.8481426553291845
P 8.587533516622354 0.007174453763011104 5.921086217466886 0.09222547039532504 0.327630533636339 0.2417736857715191
P 3.712843945412819 0.4998318820425058 8.938248151300456 0.3180223211226136 0.12770309447664457 -0.7844232627933523
Ni 4.34675530247887 0.7971833107054853 10.951664430603666 0.5464329553236653 0.4660420156694232 0.7823185577455236
Ni 6.701188978521567 6.122762384533348 11.084677630834035 -0.6434841292424079 -1.4447013236646473 -2.9661678173054917
Ni 2.1468123857737407 3.848693216742562 5.730851435423409 -0.3596862765203031 0.030107618018657828 -1.9105913871372386
Ni 3.0821204202026506 7.501261490857357 12.99684269092384 0.4253612501206093 -0.012913108517242278 1.9723125182961194
Ni 5.3433100144607595 7.36211446243532 5.018860182935497 0.9412955226347853 0.23902980447779476 -0.3201355108108745
Ni 3.4748283272765605 2.9727173286658255 12.018061973625775 -0.6661034093038206 -0.20849769732720866 -0.6336126357649668
Ni 8.730079066936725 1.722079593159117 1.2571984400330984 0.03299290998625286 -0.29213953981858076 0.12954117612664787
Ni 0.3814515628655491 6.2609842088822685 9.390420115010231 -0.27101998423114615 -1.6417164742735535 -0.2350294250691501
Ni 7.480531423357747 7.227327801724205 12.793696273820398 1.4366614840793064 1.3518181650806653 2.1093052656048057
Ni 5.344858128206863 8.035745471590769 7.694486239331179 -0.6849647649846978 0.10390830604989201 -0.6141059331906069
Ni 6.886330557944726 5.177084736136449 4.8179397518693525 0.21008046843329625 -0.09673235712674308 -0.771528409108555
Ni 5.594763992748112 4.01426810408478 10.549796087162274 -0.19615537371177183 0.4621704485291589 0.9123883526821318
Ni 8.080521684555016 5.48262193073741 7.256458905416431 1.4577584139589217 -1.2030788187590118 1.5364647668218894
Ni 7.564770796193102 5.155530229363766 1.153278785705847 0.9668615440293478 1.2438251474384385 0.32974320910396754
Ni 4.25380435465804 3.0201134264311724 8.848030677691684 -0.49951726460873325 -0.7573449185193215 1.145244167138731
Ni 0.39858524304728543 7.87842413741565 7.657763882021222 -0.8781114337771329 -0.055764142244497515 0.16790486350651082
Ni 0.4855425173528722 6.470520030352028 0.4050177014645306 0.30884451127808743 0.6707884734843157 -1.2042633259854163
Ni 1.3044644596020267 2.521804008912942 3.5316770793295107 -0.03262987021987929 0.103980296938408 -0.20953616589405202
Ni 4.882897322194798 5.91722051331981 9.154935525442308 0.3778328655223428 -0.194893990500845 -0.031554377767513395
Ni 9.089296418651124 1.09815311173362 10.137524236138336 -0.9344743859478938 1.6339530282780503 0.20705145179898532
Ni 1.32448917350134 5.605820639443661 7.11357808313101 -1.0020625174105129 0.7801966263065144 -1.5928403173981407
Ni 7.513105935080509 8.541621409548538 3.843355430471231 -0.9929222456721415 0.030903374447075815 0.061415169882687776
Ni 7.850512287803936 7.230964494962095 5.9436236390618005 -1.4009714868768646 0.10871112675517405 -0.8265528449735507
Ni 6.481915613193175 2.0266915836869623 9.982094532073102 0.7754593687318452 -1.0980587677021798 0.09411960209424436
Ni 3.046962665424259 4.201580706927032 2.837987462660189 0.49898684602656 -0.7311767447643859 -0.4546772254759073
P -0.13123973974962652 4.535799227794575 5.100805782504436 0.5261585213453455 -0.6351329290642352 0.26934748162472966
Ni 2.8532011153793015 8.197482136095013 3.904143170162198 0.3477869539795559 0.7752385109702906 1.7586620731233775
P 5.4382854187188014 2.2035338077611826 12.398304358890819 1.3718730268490116 0.3565158492121215 0.04013826278178249
Ni 8.235882685347493 1.7422233927312079 4.69529066934515 0.3621961874263504 -0.11756729159422334 -0.3505434336787705
P 6.7883322096854135 1.5203301426017162 2.587688615398775 0.9225688927595594 -0.8936802347496673 1.128562849828308
P 6.510093115459546 6.600479141097481 2.6043935871585133 0.4494285754824583 0.8693714828009735 0.6136194804724915
P 3.836006012373601 9.264956946433939 5.637282158147775 -0.03105224132011426 -0.5672637760260876 0.7348523938437602
Ni 1.609158894057179 8.629882213949218 9.57480962260762 0.665240547082893 -0.6413755675398373 0.45395088883284396
Ni 6.229508949523604 0.4191385141250025 5.788743561178615 1.1141603012497328 -0.5537300032057109 0.5567744464589895
Ni 6.178567762884042 8.57841888243671 9.889396412296016 -0.836538495431353 -0.051456516008079115 0.8458044941143111
Ni 3.1464083626296326 2.072924306033639 6.9717433826787545 0.41929473221155533 -0.8488288827629317 0.9058078712511368
Ni 7.758779678019981 3.160982616890295 11.92482796832119 -0.3575861994581648 -1.4247688464067787 -0.47790919942065435
Ni 8.155655583641096 4.301841682969111 9.892628214246463 -0.5708260394560492 -0.6528169766075596 -1.647144844377976
Ni 3.626607597449353 2.164876766290413 4.730980645476492 -0.6255997927628193 1.023862901115056 -1.038494792095618
Ni 4.720647673253974 2.448850293682323 2.4748393677005036 -1.0517218323088533 -1.163447577520635 -0.4382900423671355
Ni 8.831787391924866 5.481660084918824 11.792216911247353 0.5622056447768898 -0.03951271338264163 0.6534139867616101
Ni 8.44012377459685 8.077718591026567 10.14184154979833 -0.3013047512576166 -0.5614877927742589 0.813726896853476
Ni 7.565750962884422 0.09224009795871299 8.005748706661816 1.1220692716841643 0.1192408226419043 -0.2829869267850352
Ni 3.7583529932864645 7.6127806431950695 10.593021438249506 1.5312688244432466 0.8764494726936777 -0.39874313331244876
Ni 2.138769522643092 0.04378047353110186 11.842936415326822 -1.0093742205805778 0.5012704998544142 -0.5683474960085696
Ni 4.110773301216193 8.734741729047773 2.071952383735049 0.13698426266825442 -0.5255828513475335 -1.5395657743447164
Ni 4.267535848772895 5.643891412986912 12.088463591284416 0.25187323609936624 0.6714351059293792 -0.9721860415660547
Ni 0.8990601877227884 2.1902420145919677 12.262153709204584 -0.2603686751648871 -2.2563266007940883 0.9244301143380144
Ni 6.155684992838075 2.849912518723376 4.615879762519095 -0.9160177219046031 0.0455846306083344 -0.12250740920831804
Ni 2.131963318422054 4.848399118834863 12.928143998385917 -0.7391124546716948 0.7266505747592582 0.030161611185044828
Ni 0.5883803241451239 0.1650444980765416 3.295696910154107 0.8627120685029271 0.014777672529806808 -0.24872106362362975
Ni 3.66411042393782 1.1867436918435286 0.17721505383437683 0.9972316716807729 0.16797556884344622 -0.23735010278252672
Ni 4.23238725443087 6.33134552062089 3.1404953009544236 0.8522350802310033 1.233936684680133 -0.9559497822128505
Ni 5.128919161716234 6.757104282108671 0.7589183359112439 1.0729740568194102 -0.03809706398203762 -0.01884181529685142
Ni 2.6189595970264454 6.516789394444175 8.77866144121166 0.10997610951052672 0.07006898890294384 0.034069430879883254
Ni 3.445313401300537 6.72103048369353 6.171103839331819 -0.5407184214373914 -0.28263211454877774 -0.399953351570466
Ni 1.1193595219243384 7.5579920732811665 5.427740840416194 -0.36013930489732165 0.1339110230595694 -0.4021884115485718
P 5.602568684533205 7.689059596827084 11.917158850994337 -1.8116455672989444 1.2112520985984236 0.8910129723301493
Ni 0.26020127897466055 3.0448557650597388 6.729327090911559 -0.9379561738489073 0.17137739543614355 0.06170699009149373
P 2.8071332808872396 1.2718533061337944 2.3013636039913328 -0.5386540827091949 0.6855502051745225 0.9565946148857009
Ni 8.83272175643435 6.1730989823726565 3.766678913900868 -0.16016558588072416 0.844628728638655 -0.6691380823650863
P 5.108070008543847 3.500853126996574 6.516876418589666 -1.3632148369533812 -1.1341488285565176 -1.968436580280481
P -0.12136020912729828 3.8682049462052968 0.029779662587043922 1.1165012906780836 0.13212179236963054 0.9150612715286046
P 8.108937358166942 2.268866039934057 8.357755878911371 0.04384476509909223 -0.09214525197669292 0.7365192400232219
Ni 1.8729886218769989 6.662770108396352 11.22121668302225 -1.6270107926322623 -0.7577910049178046 0.1323483065581398
