# total energy = -340853.16670945275 ev
CRYSTAL
PRIMVEC
9.50278685125288 0.00000000000000 0.00000000000000
0.00000000000000 9.50278685125288 0.00000000000000
0.00000000000000 0.00000000000000 13.90828911322499
PRIMCOORD
 96 1
Ni 6.468689675337477 7.406424699778399 5.872691977628817 0.09847942172483685 -1.2643651763733192 1.410813412667951
Ni 9.14089239466091 0.11227542879782626 0.3173037607123739 -0.3322459209211633 -0.483658957420238 -0.29959573898630987
Ni 2.3507709479238144 3.207874824387626 13.614365501153175 0.21037177442146998 -1.145878715398936 1.040132070588725
Ni 5.897809744315098 2.674758969035375 11.871906912654408 1.3726369015982298 -0.38346692387966863 1.0601414238311162
Ni 5.579105272794023 7.763967061904359 12.255859420503171 -1.1307092067473494 0.8339391101352929 -0.9193562993595328
Ni 2.9662379557061933 4.042675659684405 7.802216729991885 -1.1674608124450863 -0.9699545811323746 1.6910662283512747
Ni 2.770366509376884 1.1929703813669328 6.372277248934252 0.44979187235914786 -0.44299361849039187 -0.8555939694009072
Ni 0.17663210370179566 4.366188541444303 12.293272843331772 -0.05428961458150005 -0.21232221327962142 0.25663286227153864
Ni 8.738686933478682 0.6809383596053489 2.815176901632165 -0.15771866700212836 0.18810344994157283 0.35224344708901273
Ni 6.984538966650317 4.648259768952206 8.179326280898007 -0.8970830897836293 0.9795342544010096 -0.19741058627511163
Ni 9.386605958979604 3.0835118504835086 3.7195077290938134 1.0095878792532806 -0.08322969465461795 -0.8631576406807779
Ni 3.9022149645459643 7.788531766385305 10.28384485647834 -1.358823649864221 -0.13154406548928957 1.360676901022876
Ni 6.266289814316326 4.90505358295167 5.914833987285162 -0.2784525292497914 0.5872479324574983 -0.8770678230039668
Ni 7.297180660044179 0.5051852637041286 7.5870555762637855 -0.5163597900873687 0.9687772729948219 0.821390841156637
Ni 3.6042930882666036 4.683695661799188 5.762079536561809 0.12823608416197915 0.06073614153779217 -2.9466803980048413
Ni 5.581813567098499 1.0400230240668045 2.201098251035343 0.03505262072875899 0.15127959624500398 1.0976666744700838
Ni 6.637440167473897 5.670531586840903 1.7861723591304117 0.4344619268702969 0.613542090267337 0.1570776909840198
Ni 6.688755217453436 1.490360101572432 -0.03195312139929672 -0.23821579321693165 2.3972554499323877 1.6286496137872661
Ni 8.371679795467607 9.061392078340756 11.224212152927471 1.3496422404752693 -0.848927613124325 0.14212595477019394
Ni 6.939723823001519 -0.3267960946798854 4.682712123341247 1.2080785859664485 2.3950905810705847 -1.338277193171437
Ni 9.51979702203761 1.71355206062233 12.258015602881015 -1.1479821348951842 -1.467294378473815 3.1473339166972827
Ni 3.2118754977286232 7.32354139127441 12.90614178913926 0.4207530619246367 0.25512979536345093 0.6652688292176672
Ni 3.8386983360157343 5.4329619110097 9.905288981385757 -3.0536750562895407 -0.8610812177677235 -2.733896671707769
Ni 4.937344053290647 1.8866453264329437 7.698669611084098 -0.48771950064285685 0.8015455242959357 0.4697842563206748
P 8.975914508976688 6.832750949368245 5.01613546169812 1.0337176824219487 -0.2263177562277651 2.4576480920878323
P 2.6768210738215896 1.9334465525716908 8.343123920432697 -0.6107120770177095 -0.7312389654608891 -0.038662192456888254
P 2.0907937002682124 1.3800327441164213 11.93240830685899 2.058842223858248 1.2556450228915021 -0.5579116453872262
P 6.979112875254332 9.459159737978453 12.670229399366658 -0.3196140910897657 -1.792899397039693 0.03696500726012344
P 8.565869248492033 6.467777407782285 11.436244038885524 0.021785214195891512 -1.1331692382520677 1.0962325131267183
P 7.077105615141186 8.90146017257119 2.1167163530162103 -1.0405653014714014 1.4795019762836004 -1.4720779159053874
P 5.520444568437783 6.06738697892341 3.5578653216582636 0.7989854768782433 -0.15699464435191027 1.3950080702045782
P 5.172091401372974 6.2511423717853285 13.773740543602592 0.095276598516823 0.43831112541305806 0.7146586925047047
Ni 7.798167592437019 3.5514385867876777 1.700872491883867 -0.799632623543939 -0.26690519073182417 -1.3576111176133587
Ni 0.252960389710251 7.943389183879116 3.285012747851314 5.7422040984957885 1.2741824195740572 -0.6806008315890472
Ni -0.017587758241135575 6.89133563142822 7.640004155334341 -0.07085960312503925 1.2202532736557694 -1.0947692983176307
Ni 1.5943395972902326 0.2445561248580464 9.609751354373039 -0.01771901454631787 3.734538140401039 4.863897517988714
Ni 3.4705318579866034 3.6764572529970896 2.4632972502993185 0.5647816330341823 1.3507529570409447 0.08460137819116398
Ni 1.8312060668809746 6.981155974466481 1.433485921178442 0.5885414544579413 -0.30139371142699706 -0.21458169873775945
Ni 5.339463989389573 3.0154528897513857 4.881099907676961 -1.6972944686491735 -0.8478534062235398 -0.014644746496368329
Ni 4.521891706984073 8.498142885306073 0.8628758693078069 0.8315037612209227 -0.764809859437799 0.1889567990808036
Ni 9.102966771611216 5.301471846830647 2.36089046583552 2.0462330197346694 1.1438850820076751 -1.0437390712136927
Ni 1.105658774105449 3.0497959620895436 5.804443911434732 1.1943128996409238 -1.164577063139388 0.7215538769626412
Ni 4.333109339781567 1.0426647988620474 12.448294659041258 -0.16093306017436798 -0.8052026614325488 0.8547478193505279
Ni 1.1696315364132752 6.488750058764665 12.072214259970838 0.1385194683658582 0.10909370690557339 0.08045624567453886
Ni 7.802567382833413 4.360515377585454 10.390034700460074 0.23610800284530947 -1.2181200293628507 1.548540724149817
Ni 1.9520625123698236 6.088701730238985 6.729957401472194 0.33510653029841 0.2112750029620297 -0.03756458851733531
Ni 9.088741099422442 9.058579253378912 6.46472606286591 0.9677318624494429 -1.1562598015229442 -0.8063689138265082
Ni 5.366746490962028 9.62784371060564 6.256936221039499 -1.6578545174859964 -0.49456274881693535 -1.1234728368999103
Ni 5.313217291603742 4.11527695261842 0.4391475457739776 -0.057640019110971705 -0.19883986252247046 -0.7111869319060203
Ni 1.4055002133655263 0.4343001741083177 4.26691007447185 -1.8275470690205493 1.4845827332406174 0.35261394305455396
Ni 2.6753291362573695 8.137825709366405 3.2789072071824523 0.28728246883659553 0.10851675135618086 -2.179430304556666
Ni 3.6741100645998777 1.8648839441268057 10.230047678525716 -0.37115468217121883 -0.8277810609536969 0.2572797518269182
Ni 9.401848429380934 6.828731270453181 0.2239160714218315 -0.9905527169987004 -0.4630430809420993 -0.41612918999938014
Ni 6.236184984994996 8.07810069286244 9.964302239140933 2.0975596950331035 2.265222360621822 0.824240137679974
Ni 7.727533376418886 5.153703508463639 4.108647808384026 -2.314063550494241 0.6250169236761558 -1.6589068700099108
Ni 4.169784939041132 5.923571799962233 1.8964094401096063 -0.7838936155421274 0.9177892119827289 -0.2870320433886863
P 7.8967685106940015 2.8768452380844285 7.991536004661771 1.2971608827471015 -2.283929193002705 0.5929532103723917
P 3.5978597014450946 0.16982620762858336 4.236367166668288 1.3165079198151457 1.8028217983597272 1.642845445671674
P 5.776468656687554 0.6755930418991467 10.39972849351269 -0.9310159950856483 1.1019933268698956 -0.05217462512102628
P 7.389851839192414 7.8020067183984505 7.969088521131832 -0.7524305119368395 1.0488403969960003 -1.858667444574438
P 4.882722033423537 4.871603772594637 7.46622003690641 -0.040722931640658905 -0.6094180407966343 1.1537882000539998
P 1.7781520068743504 5.207745858321721 9.41769242620147 -0.8402622241398433 0.3622848904854148 0.5269285667421506
P 8.920931383202314 1.2941275493358586 5.290282315098998 0.580951043705193 0.12211531597622195 -1.050134176106759
P 6.699008724662312 2.8914225133934313 3.2798669886728105 -0.9363656894333358 -0.9577184440774991 -1.0289868526051826
Ni 9.216401540427098 4.768641075089393 5.655541890574658 0.6978449633814756 1.363880495561838 1.1085578674612908
Ni 7.956579052281264 6.391698094794101 9.385535945159662 0.34781549322464617 0.5349887180424657 0.8647465824344528
Ni 5.314946798843793 6.714384234082107 8.468868599571449 0.2262046276886685 -1.1253525704211265 -2.104171029702034
Ni 9.683910154101804 4.724795215717986 7.9750828791924055 0.10990746105612038 -2.4514242226653074 1.2579469315518013
Ni 2.0631690983625606 8.278752041069474 5.707906048242668 0.020076973255533166 -0.7099054940904354 -0.5211019327580444
Ni 9.12542185737078 8.772868458437276 8.955741992662508 -0.4729014617934178 0.6214014384107557 -0.06754133738508368
Ni 7.60364554186643 3.047382254183099 5.105176576199654 0.43929560081351443 -0.9910353130620739 3.104881403960027
Ni 2.6341155488941723 0.13273397900170608 0.21957424802634046 -1.1276997304970644 0.5712150473643517 -0.4604154135112651
Ni 2.1700754524866017 8.85597033104303 7.930047270884437 0.8514277538383594 -2.140119422772185 -2.881980643833611
Ni 4.164016747311949 7.215494702706378 4.761141475562753 0.5135315766099543 -0.3189528033566829 0.5336026363282165
Ni 0.3372178012192486 1.529521086936447 8.036529800706793 -0.5675543106833129 0.845940248361227 -0.40155489172963105
Ni 0.501380347776016 2.51474153818251 10.418184806488664 1.8406216428163202 2.037319005074491 -3.058915992973506
Ni 7.624988801543105 5.120462759421337 13.507633048031842 -0.09593685780864122 0.3516744619594201 -0.4186534990831306
Ni 2.456137850548469 4.154466446343536 11.521487839688572 0.15671105167322044 0.5229662396602929 -1.150842744272431
Ni 7.883521625569654 7.497451896769882 3.3552354931909076 -6.796605020298701 -2.994434782570985 -0.6042570654209851
Ni 0.2737078246399416 2.504079411131206 1.452011604499759 1.1289973662625654 -0.780066014265921 -0.9049156984541705
Ni 5.450199966688013 3.3058960726355804 9.789363532088462 0.787743842526153 0.9942054832599393 -2.303158216435646
Ni 5.637176804354202 5.98157681201318 10.747769969162807 4.496844516690694 1.223719634937815 1.0409797633010007
Ni 6.863796554605866 7.655559267429065 0.18487767201054503 1.486127194909602 0.49202275600390105 1.6490137792659147
Ni 7.8411201898273 1.6989842881003605 10.175471272036365 -1.045347296241077 0.0007726164999664113 -0.9034396281292765
Ni 1.6778405869513835 6.229504525710623 3.99937050889519 -0.16885745722776727 -1.7546956322764617 0.817104040855825
Ni 1.3861905501139662 7.506878661506865 9.969976353278486 -0.00035661200847035356 -1.5473837277272384 -0.2111168801176106
Ni 4.61512355056727 8.917519882657379 8.482262777894812 -0.30777056148761833 2.258500982737588 -0.7610053980900442
Ni 2.583228124331129 1.6284450999525597 2.5769971468734285 0.2948181150920084 -1.402379937188617 -0.8634183505413323
P 1.8907980443664734 4.061529189158369 3.9603302089264965 -0.1106710786950223 -0.43396827506333 0.005380547585622992
P 7.957785906234488 3.1137877299714365 12.60618156504127 -1.17017949692783 0.11477430223011846 0.3492519685608566
P 1.2177061360144774 9.320628108607762 1.8871736813919926 0.07650214612279728 0.8210074896752892 -0.20817528099078342
P 3.8158251276267063 7.598799120479474 6.915577241150036 0.045019502133483755 0.006690267535982026 0.29747277910603603
P 1.9193919305495168 5.316334205750647 13.879680464285352 -0.7076982020264716 0.8629925758578235 -0.5534273843636275
P 1.4261592723758076 8.797243107177557 12.088445020223626 -0.2643430864316028 -1.4202755865221153 -0.03826547123910184
P 4.720718520080723 4.386790583732385 11.527496451929693 -1.584235349337949 -1.785427771252996 1.8355498847203677
P 4.302700421275173 2.2745300875560646 0.9095126972308786 -1.0079678271513544 -1.3617027711842289 -0.42736156838008976
