# total energy = -340893.50241532625 ev
CRYSTAL
PRIMVEC
9.04344285816680 0.00000000000000 0.00000000000000

0.00000000000000 9.04344285816680 0.00000000000000

0.00000000000000 0.00000000000000 13.23599274814305

PRIMCOORD
 96 1
Ni 6.369052517273019 2.0956641060856067 11.193837716471855 1.1348846782812776 -0.2634059193293141 0.5010627547189823
Ni 4.420552354166319 0.22132559914512265 6.130831958484732 -0.05783773694407458 0.32221373349614185 -0.6749423477516893
Ni 2.602151157672694 1.5035175652896329 4.745765405616763 0.800250459633596 0.42938451234738956 0.22299100584737727
Ni 3.450570777565101 4.501482122845618 5.289870465783053 -0.35101600243981484 -0.6313225541792095 -0.9191968909635331
Ni 5.248995009145042 4.599675823630045 2.6256903346640166 0.2383219797774928 0.4919258254147205 -0.34005976053862724
Ni 7.259298059630703 6.113837520971923 2.5988873792039984 0.4869026611685162 -0.4572686403521673 -0.03137440054622339
Ni 5.152863213295119 4.730444005002564 11.570295435954622 0.391805525652351 0.22380964509393067 0.04128677456392889
Ni 6.089456399465677 7.780055663790808 12.361940322606596 -1.386826305724734 0.8576986744487357 0.09517966792764253
Ni 1.9434267917546952 6.404267683128108 0.3960476250490972 -0.2078495222202485 0.5433730854514189 0.4857531209451054
Ni 3.1099042912371084 1.9152835980872487 0.448809782765673 -0.2169910795102005 -1.0758323522038116 0.41468423002273747
Ni 0.7695797908199676 8.883798801296653 4.3621063927158135 -0.20275488130616048 -0.7769377530495845 1.4156956804609169
Ni 8.597673317863382 2.1801208174160323 1.2853273277269346 0.32467762165560216 0.38006509728697124 0.8269020007828534
Ni 6.775491962323165 0.7908969939410812 4.903352820646152 -2.5441289466898955 -1.3275870604474427 -2.3481607492882657
Ni 0.6860834931037719 7.2313357348171605 2.6211496220867594 0.6549257954204464 0.15811513110959866 -0.9691297712382342
Ni 7.581986181880649 3.6034863500981524 3.644014538536669 -0.05914668556348523 0.41520950639858817 0.4158345415770967
Ni 7.673912776877305 3.777771577719949 12.591518967555354 0.6499417119422936 -0.06608069367915716 -0.141378277970892
Ni 7.893044436824574 8.888193914446518 6.729165118428489 0.5163585045357881 -0.10427186003689784 1.2262359736017654
Ni 6.884519707456434 0.7843350719214478 0.27232247684759636 -0.3255721084454135 -0.2887461978663156 -0.6158990205352876
Ni 1.667647006764726 6.5977340527064126 9.34572248031463 1.483418280618871 -0.2886947758030899 -0.43834146443036126
Ni 0.09867662062434995 4.5660794340173965 1.423014647105547 -0.3306446378723144 0.6671763306530252 0.5836054506089046
Ni 5.994545468379607 1.8803759092837962 6.916785806648621 0.762008642543578 1.5108604359902238 -0.325503202880691
Ni 3.584739293391013 4.383085371080127 0.6454160356477499 -0.6467046930622347 0.9247106216929107 -0.4375097125576852
Ni 5.867060056705443 5.787351152789996 4.657494170157504 0.7096771801297133 -1.081365366206899 1.243989955151077
Ni 5.5067692997288775 2.963825561381625 9.213362653027755 -0.7130345266377205 0.5824217147134485 -0.6608799561213521
P 0.25316665653063447 5.477522806052616 12.656468068647975 0.04934409765076663 0.23402489506403565 -0.8561593549860738
P 4.006055201674755 6.3482887728448505 12.76764996183124 0.9414996682257913 -1.266971760758231 -1.5438479466598378
P 2.308899441395608 8.390379524404123 1.351738753503368 0.3243888867705897 -0.17194380946257481 0.6977290066289016
P 6.262538849209013 7.85226755371194 5.656560362810739 -0.7918622355699008 -0.587193167960163 1.3454084048995798
P 4.977348077466776 1.118022733521559 12.456273377704443 -1.0362461052707572 -0.6301421607178631 0.9526343446863722
P 3.905021859884037 6.193609728986237 8.150803353555828 -0.7182680071225179 -0.7618250657778621 1.1293771181994872
P 4.7247828098753715 0.9918757513662847 3.766804594763486 -0.6983638119994231 0.1475520108817717 -0.10819844878481366
P 9.063519137978263 5.466137111699367 3.638574003411239 1.1274827293902518 -0.4738226880561066 0.9196710023864741
Ni 1.560536471482837 0.9611009158745363 2.4875327562652543 0.05933231921173008 1.4602076468303626 -0.4234259807711095
Ni 1.8623704148776632 6.463655971307452 4.8346316996053655 -1.0095097177171775 -0.20900549020156264 -0.12056288388743752
Ni 6.068358047657788 5.650813254977942 9.255015845737553 0.25441451446398117 -0.5075157094331775 -0.00385331230781917
Ni 8.795372018623038 2.167441910757369 10.122661824799945 0.4159337861591224 1.2573368087716281 0.9466354467904599
Ni 2.190593124057068 5.170733056060824 7.312766510221773 0.2376684053538939 0.2243367212419943 -0.5488677900174032
Ni 0.5639065822916884 8.941776312415548 8.970746981089606 -0.2888744959140638 0.05023729888899735 0.21516019694904878
Ni 1.6362662606123994 1.0595568764971235 11.6640994496548 0.030074965008509494 -0.1779776743614806 -1.020571631958294
Ni 4.1911382998746145 6.805389583873479 1.6406939301559669 -0.8495369645735498 -0.34301267251936407 0.4241258350516115
Ni 5.414996443258039 7.660736480870406 7.913442826167855 0.6508554820058146 0.5285324208941607 -0.09974234759766047
Ni 5.2858289512425705 2.9451146784452664 4.582459821771202 0.037461487280567744 0.12800314221556666 0.6847824737705626
Ni 0.6378729000956876 7.279528240939854 7.0859280284096595 0.28570201172335313 0.7025595952483256 -0.7610390795414571
Ni 5.216131138390703 4.886144957885735 6.945374842040941 -0.3508745917659441 -0.6109103090714447 0.4868011025936455
Ni 8.256572746286018 7.070606627795461 9.438811157697618 -0.6470103972281115 -0.39812992520848206 -1.4173023628264043
Ni 4.6760929144044425 0.3324686055247988 10.331459542779417 -1.4132505613545336 0.47085923455240847 1.0346671908194116
Ni 8.069536264463997 7.272474355637602 4.607554470906099 0.33413876706850193 -0.19306516482222233 0.31805266013991673
Ni 7.227700270853692 6.307828410226549 6.895448707953578 0.7730746705497524 -0.48711503428963854 0.3506200525529768
Ni 2.3002539101790016 5.076780729900444 2.670520488792637 -0.246724087798259 0.7873481497496311 0.2991571087869945
Ni 2.5699836320058855 5.278458545445987 11.435116767579656 -0.6916848573173507 0.1102476180043585 1.0018946243740812
Ni 0.954824766644071 3.2531162497582153 3.6951579200108045 -0.24243060262922764 0.03981713199693788 1.0443389095812208
Ni 3.72908168224902 2.9995833337984252 2.7319489776440182 -0.8911176162288137 -1.9827774223831853 0.4014145094970248
Ni 0.9892441095419829 3.306264562477876 8.190750048629043 -0.5742594906176304 -0.0881934664177965 0.1082753247693361
Ni 3.6494451258751335 3.0798438877182805 7.44024287845324 -0.8045249186392338 -0.24419797894229558 -0.42027226563347625
Ni 3.947679779077272 6.877547213138439 6.0167118507697985 0.17590279411032286 0.15191363028457708 -0.16878726611146416
Ni 0.5999483188091183 7.417314133843844 11.32299435635609 0.8962071149365791 0.19276845951740992 1.4890507963143
P 0.07989067711362152 5.5031790529788855 8.12356359981363 -0.18072721208215972 -0.5949316742550012 0.43418707594235545
P 8.335612435442023 1.6204311924531132 8.153728907267723 -0.48458506877893315 -0.9982233461700809 -1.720004765762496
P 1.9200585358303115 3.1765996811141712 10.215301043080984 0.2805274095009491 0.8792967123344856 1.0913569302019719
P 3.901992306581147 6.128641636663956 3.78546754745356 -0.5078265558053771 -0.025257746125524245 0.2783946794286625
P 7.19463744436006 3.954227231588593 10.302896733370913 -0.5881586171972257 1.0808336620731451 0.2850468946378575
P 6.318029413586729 7.737171658530193 10.143839758903555 0.14708844098179183 -0.05168740107196259 -0.1272562367472131
P 2.2481546368119836 8.485905409593467 5.946534735455086 0.22342809338479586 -0.3441892093259685 -0.3692086141884416
P 6.915782888853723 3.824272960058641 1.5142240970964744 0.7005955295434193 0.11156942213957557 0.048332111446484506
Ni 5.390986102902297 3.0640088195589943 0.22050807192547703 0.3103519490615494 -0.706413678887093 0.061925276749886904
Ni 1.1550918051291628 1.152867118226145 6.866211257720012 0.45114915771799075 -0.2707109376311596 0.35209303755407745
Ni 6.415581029939797 0.5599862498833214 8.879828729953463 2.4462583621936513 0.3760865722551974 0.29350813803133324
Ni 2.4437462154236593 1.3306069409575059 9.203290066553848 0.4014217085858764 0.7517576542395311 0.15695119270848454
Ni 6.3389740268688 1.757927695190857 2.442397838117806 -0.19947389656204356 0.7562493714622975 0.41960275037027733
Ni 4.248690769186835 7.013063201925935 10.35382849828598 -0.6880752855892215 -0.9579318456398856 0.3324966034793887
Ni 8.330900801797826 7.190522677933745 0.41293082821675664 -0.7827042232197166 -0.7809448173264485 0.11486326239949897
Ni 7.500712762378931 3.742619715963727 7.936089415365162 0.45158418837288034 0.29314741225780483 0.17511680787391776
Ni 3.4286675593573395 8.545248480559335 12.718968205458737 -0.12903004081818423 -0.4162353765599412 -1.345271107990767
Ni 0.300514505105597 4.93531415581951 10.517558219593946 -0.27186099207520276 -1.598199267717209 -0.7916750592597592
Ni 8.209465453286748 2.146307385178698 5.786471225815753 1.701351926547999 2.8433662738955228 1.3995686929920672
Ni 3.6632363759853055 2.764408606509881 11.543890391973193 0.1735839161691591 0.1549614159719654 -0.8808470875407409
Ni 1.291222748019932 3.3275528265823646 12.613596724207133 -0.46831024287830963 0.5406328037021205 -0.0221942767088521
Ni 2.9721726589892894 8.321676490248727 8.088462381336502 0.2665778892993925 -0.1269443619337491 -0.3895748365496194
Ni 5.623899969517042 7.81078528206908 3.5343935435625937 -0.48932104080202177 1.4047497229723744 0.12252155027570512
Ni 3.1998684591689077 8.321025362374673 3.787148723450597 -0.047416541610750595 0.018095424049130126 -0.5632202020843332
Ni 3.696706157400222 4.498208396589958 9.606498289529 -0.1957000313419081 0.07997133561832034 -1.294456339331745
Ni 7.416626832199009 6.06916291405766 11.509568718256387 -0.11820286829569321 -0.7833963641907347 -0.4148737203257242
Ni 0.44232201697614015 0.05419644772803369 0.32592205735774715 0.7764759829218175 0.3106882493550456 0.17741023189378477
Ni 4.621325825442342 0.1790348437253131 1.5346071125871743 -0.4554182174069899 0.7020924258039198 0.3134149042575893
Ni 6.23830242278589 5.738209085184306 0.47068406195681056 -0.8257771431497907 -0.7573685726684053 -0.5698161101342961
Ni 7.951220903682763 0.03034436761945707 10.95691308302179 -0.27759249524234125 -0.14034366605879053 0.5122645369720726
Ni 0.0571147666857731 4.832408821390887 6.012304076800161 -0.2712524119569264 -0.8862687727769446 -1.1545777858348307
Ni 7.85808248736495 8.87296475694781 2.358653750071762 0.8685268754124913 -0.17480621861203444 0.7681456086792513
P 8.576023316051085 1.4507309902777803 3.793607550223505 -0.25252372519917154 0.5182678057433591 -1.7523135051975305
P 1.7967421512386335 3.133589067655824 1.7089782529145754 0.39297254937725873 -0.408233075080755 -1.2979147301939906
P 4.433665346074352 1.2289224712927342 8.208869490413136 -0.5404127172715144 -0.9533192865685388 0.019127721968386413
P 8.598288271966654 1.6618953772105818 12.33800956454657 0.012462908353701117 -0.10531855613385734 0.11707955332452741
P 6.222259355444614 7.73047951093575 1.453232406527271 1.4438448892016231 0.18507263353504902 -1.2420094343859385
P 1.6676560502074211 3.11136932895373 5.9494593848227115 0.7125357326244309 0.9347921742986288 0.258225146459323
P 6.805579496170077 4.006000941018583 5.812188968152348 0.5315560382118328 0.001595112401261769 -0.14396737885430688
P 2.493837844512344 8.395534286740384 10.38759400027703 -0.9675333732853918 0.6401008145924718 0.41953693012934845
