# total energy = -340856.5085928396 ev
CRYSTAL
PRIMVEC
9.41583489224530 0.00000000000000 0.00000000000000
0.00000000000000 9.41583489224530 0.00000000000000
0.00000000000000 0.00000000000000 13.78102613197446
PRIMCOORD
 96 1
Ni 6.815576657891449 5.404500830425057 5.873996949117322 0.022760690735283383 -1.9862553536294565 0.54112362729561
Ni 3.885472457537529 6.069371753868338 10.529723294215696 -0.3327398298384463 3.006906432675434 0.3504045941080611
Ni 2.648711978817886 5.014186232488526 5.997089215234719 -1.003192517249898 0.1707500462647898 0.4167765937753919
Ni 7.636025418926828 3.220658029102755 0.08992592979019218 0.20472871720307967 -0.1257670537961963 0.6949622425170418
Ni 0.8434864839208479 2.772492542455587 7.652658491014612 0.5484407297823135 0.3723389322873072 -1.0365142713304794
Ni 6.775644102712118 1.2691227027591059 1.6928333833907683 0.18864158183322996 0.07518419864232213 -0.9400053430684521
Ni 0.251085474222732 7.666589218528835 12.616708228204061 -1.0141310185392727 0.5963290688231601 -0.0962854993973116
Ni 3.145905717013929 3.4580877181859955 3.2047499762908047 -0.9958417333117818 -0.8051196148004393 -0.5144795423455204
Ni 2.0112411345002488 5.574211835978527 1.509766957826365 -0.02345925946420476 0.13107252516950973 -1.6711103540546381
Ni 7.66933864227615 5.234582676507062 10.459164794925 -0.7073798994551044 0.5642599562027573 -1.5956299643281358
Ni 8.974392170445379 9.261989427082375 1.3345335651913854 1.5536646756399435 -1.0224187124693618 2.246302383788867
Ni 9.16695540693972 9.569407015870395 10.885094787807494 -1.6315580456833125 -0.9786086572629469 0.6025524240250526
Ni 5.943877508305939 7.5165008125966155 12.47837455037509 2.117201380523431 -1.1780439872775712 -0.43283981788584164
Ni 1.7652336199587746 7.895714141361623 0.48618474420507984 -0.6585371669207885 -1.677388987974498 1.053720865016753
Ni 8.012771798987053 6.887880852944994 0.9331770178422631 0.22516410223929606 -1.0107579883019817 0.01984505975038518
Ni 0.711812626011316 6.965222519590368 6.768937203618924 0.4801871968215537 1.812834445400723 0.6931318741765223
Ni 2.8171235991757078 8.468121567549295 3.1257982019029966 -0.5732495612958772 0.028658544276957097 -0.24970193947966027
Ni 4.515853178287602 6.376591610126584 5.786900477669829 0.9946495127758934 0.22631749911744894 -0.20957961753747778
Ni 4.643023442435693 3.9156972870884963 6.614740668984807 2.3005593453602184 0.6458112347136878 0.4427053978260118
Ni 5.502830392730588 3.2207051082765106 2.2192830617418924 0.6453108980385015 1.342831645311339 0.1631534648644545
Ni 5.882316780703376 1.0684712642135852 9.557954536062656 -0.46732705302943384 1.0351289609471785 -0.31219363025597846
Ni 8.086111735863216 3.013547327917993 2.9952372956610427 -0.1367556915972161 0.2671733567915463 0.28875828205117365
Ni 5.260118420351992 8.156862318182833 7.366123340537538 1.091970395416255 -0.09658066204022722 0.31601814620839125
Ni 3.585954754105665 9.52430516741272 8.910342837718105 -0.04413967063169172 0.2096282113872261 -1.0164992616611332
P 5.768582912745078 1.1879017121962876 13.392621032450307 0.9848523241798134 0.35025598434533867 -0.7648882780842182
P 6.016012218333965 9.366787667861898 5.471976585418248 -0.64077701472389 -1.0359856525205189 0.5619169098918775
P 2.385501734186188 8.287507025354072 11.344899187790473 -0.6106565411894257 -0.2866584620993515 -0.35004952476148743
P 3.5400054805203935 1.1932310746653991 2.7281467855284243 0.2501413410099241 -0.03268977692353725 -0.06511370178019754
P 0.666977245677097 5.5796071092908965 13.577741993157394 -1.2777246283993609 -0.049254109040121626 0.38662269589983095
P 7.189554782534856 4.690865298805932 1.9167344011036562 -0.6469157806317761 -0.014269365434820587 -1.939386971212692
P 6.618644474072605 3.1885312009320694 5.0436351972560045 1.1558147435657256 -0.23385957313076497 0.7043843071618902
P 6.379209212187385 5.781105972964014 8.091915656403783 -1.1721260791312396 0.15446493595152105 0.26060495954540924
Ni 0.8337090811153263 4.712342817873145 3.370260577961819 -0.1967043042367064 -0.4710446110903371 0.705853692618565
Ni 2.831426252162599 3.813017609127966 8.343598094549733 -0.013515517987931562 0.8942451061142018 1.4093836221999596
Ni -0.22691031849933335 3.5334426436988906 9.564500424381606 0.4801740841954311 1.0875434699931528 0.35555065708537475
Ni 5.292395901878694 8.954910808345394 3.3511181859128727 -0.32983448326619325 0.28663172262647413 0.18759462862595433
Ni 5.035616672381985 6.314221120735429 3.159714038676388 3.8348733843876923 0.502759939915747 -0.9067085286885352
Ni 1.0960219966952462 0.9084886991249306 9.25343514121102 0.3848509487113888 -0.2797784471500665 -1.249428352557829
Ni 4.740213688736343 2.0131619647894694 4.478612610263604 2.5162211645360344 1.6065859491190073 -1.2837232691849567
Ni 3.838572184642398 4.298356811372399 12.145852462973739 -1.7325460927626162 -1.2115901986641329 1.7365035347484674
Ni 3.848317573609766 7.740936649723365 12.966112907314098 -1.4162602947151353 -0.2318451138038975 0.15428393028896656
Ni 7.629519077113832 7.330829967140064 7.099158061007109 -0.3985161049033072 -0.6039945557882178 0.07161319346161216
Ni 9.354820141893274 2.460141056258001 5.265647398517826 0.14736714856447525 -1.5979660686604804 -1.6053546478150673
Ni 3.009555013983535 5.928124816767382 3.459988775222238 -1.6635309990454836 -2.543257085607904 -0.9643565182193069
Ni 0.36974947325669627 8.978996513638657 4.84888183759856 1.3945712397774757 -0.9204932411774533 -1.8956651048447093
Ni 5.256860541528118 8.93038255881883 0.9604000792745864 -1.9155255912140623 -0.4296519070761633 -1.7472898267306938
Ni 9.645675277354146 3.7664845537881275 12.006223166283021 -1.562273243244561 1.1045862844080523 0.03028733812963171
Ni 6.963122788440876 8.029993360746777 9.364441241841929 1.0122867662416823 -0.20378975032857805 -0.3310521577233782
Ni 0.6943114139594831 6.557639280720355 10.578370204457153 -2.0506581453855586 -0.5839710614784395 -1.5311238142249501
Ni 6.5300603007344415 7.215749634812361 4.578167172670251 0.5393189699867034 2.3786342352867744 0.8816747256483589
Ni 5.813430533664473 1.1561232699113917 7.29732842709572 -0.5163844726777171 0.17978336011165166 -1.9462315049383514
Ni 0.5001022895506515 7.080839554498882 2.443527757423195 -0.15041956223755384 0.4426858574419859 1.2327046120452447
Ni 6.370998604284442 3.1615454185354728 8.433423274908089 0.07144658597676083 1.3858739691137938 0.9070695115723798
Ni 0.8484109654956629 3.4168369461415122 1.123414543153089 -0.6280893919538925 0.9819662608812701 -0.05473904341409283
Ni 3.2840925078207825 2.2060453396653488 6.476241272464216 -1.5651197115544206 0.9283011672576463 1.2602550108596877
Ni 3.36809116963517 1.1696726561181963 11.076402893529517 0.13266095270255215 0.03919981012791313 -0.14676628175568274
P -0.23325659112156147 8.696455560262992 8.194405134502341 1.1967675318290034 -0.2277658015282013 1.0299301903550586
P 6.994063221432926 8.472151544822758 1.8043083925922825 1.5589536919530247 0.12245958668951813 2.3351239707089655
P 1.6750205072086746 3.420829260075971 4.933345641649651 1.7869511498760577 0.27541039998935796 -0.2810637416203933
P 3.437796594297417 4.421741909950555 0.45594014140113487 -0.00847795556402411 -1.985920338887541 0.5577023575898976
P 8.183132497138349 1.7560908444154757 9.722238254465605 -1.324808212150725 -0.5733076682273224 0.30410493971057306
P 9.192867784174695 6.553439818421374 4.876140679202939 1.3944282864417081 4.514616495962135 0.23743597762811366
P 5.7077660360878495 5.153003884223703 11.934051734499466 2.259897091754166 1.6626182574232269 0.5830770889092604
P 1.2445285423892845 5.163464876632153 7.882167579905243 -0.8182286413785715 0.16062349935374917 0.6619058262827052
Ni 5.2014577698527615 5.6776353648843925 0.32744224455314236 0.7316431428778433 -0.14275638926534123 0.26185760100558775
Ni 2.1634198557472084 6.036463411413312 12.110848155703124 0.5183619081190621 -0.4079556530496523 1.2090234663782211
Ni 4.279948854434037 5.707860194435361 8.27400377673755 0.02178212887209797 1.0105726117640532 -0.8605081188730729
Ni 8.02913651978443 0.6034486086115585 13.351140514037898 -1.309600136951719 0.4445046558182796 -2.325497246252479
Ni 8.373530091639942 5.296811928376951 7.9750792708950025 0.9493320197860166 -1.5055274538130845 1.5352116111410785
Ni 8.333729358147126 -0.16490892983041994 6.396711365822692 -1.5543503888530585 3.0436863205079447 -0.6119426069907009
Ni 5.049005989398021 4.408051286222484 4.31671298121963 -0.21062657074475336 0.04347478335418319 0.30500713980986827
Ni 4.115859102226961 2.1861026016625607 0.6593381789435456 -0.32943441961429715 0.9360538146198718 -0.17379088997364261
Ni 3.060212204944347 0.164386351001735 0.5226842860341674 1.1453115300415564 0.9662496214769616 0.16932436956185676
Ni 2.303649882695047 7.6113935952180025 9.210410425899433 -0.43484347857943173 -0.2923182314882901 0.5596065165911459
Ni 1.4969670720657464 0.7180082452775268 6.660535522880161 -0.51775769887616 -1.071662022876206 0.6202292724795254
Ni 6.63769270777404 0.0881472786057131 11.316110273039042 0.4392390365439661 -0.4307266281975808 2.1012967934780327
Ni 4.948878002655033 4.185121982655907 10.248604131887443 0.6283117923773438 -2.100906242907833 -3.77969005434733
Ni 6.727934068028394 3.2516737887728135 11.484514360729063 1.1100848456287786 -1.233064823598141 0.14776155578941652
Ni 7.327816900019719 0.7301348988534431 3.934744579206457 0.23060609919047384 0.10859696977481298 0.5668765678899979
Ni 8.110508163703267 2.677722165685964 6.945981261276534 -2.8990789940767945 0.18418843115788278 1.3379257233692894
Ni 1.4801692228698193 1.2838773158140488 1.7489084456673516 -0.38093027350074393 -0.06864022687621726 0.9277069853170732
Ni -0.09471388176111649 4.898201980024719 5.969155258278689 0.9952953738900084 -3.445568256559692 -0.09928829077937738
Ni 2.0694969041051827 2.7403374667806477 12.863595181711286 3.257572021619944 0.46201386834663655 -0.10667327038953887
Ni 1.5188118086882527 0.5256719304006852 12.5237965372143 0.34219274772123004 -2.0134709948123 -0.4431121463461272
Ni 8.06304294072307 5.711052162415977 3.6014089636826134 -2.5635212351735785 -1.919901865904887 -2.6065314201865175
Ni 3.041888990518745 7.869943001647916 7.089497414552501 -0.8456132040391114 0.20363137037384285 -1.6887139260690145
Ni 8.068673609904216 5.5955104541854706 12.650720106491914 -0.7096332142656553 -0.022993632681695884 1.1002269789980923
Ni 3.545061783781724 0.5119671829204878 5.256786156433584 -1.2146176726365467 -4.938712763327391 -0.4132248718683915
P 9.669120705884334 1.9164330943916217 13.344650179143978 -2.377042208209306 1.2954001913022528 1.60453960811294
P 4.938605326941604 8.265229160333018 10.012783608963163 -0.06646224538829199 -0.12583184559586072 0.3733097808410087
P 4.057735154308543 2.1972132866688354 8.656951425564834 2.1176965749922947 -0.7571163474482833 0.2860455111057009
P 2.068244598083289 3.892967461999389 10.78740079434766 0.41125772083969175 0.06762721223067063 0.08684003771369561
P 9.355507497830104 1.249791994015138 3.4593268420392373 1.1745048637760611 -0.8102811043967207 -1.349451978841334
P 3.9284745748457124 7.130536330315084 1.6375162958116467 -1.303420233393252 1.0213943849699054 -1.9894774601111802
P 2.6736827725777506 7.087063421269346 4.939243720537728 -1.0592381952905565 3.823316532788029 3.8036007995266563
P 7.952331555719868 7.379509832803149 11.228352809992025 0.45552568951913164 0.5302859132501576 0.2042540915595063
