# total energy = -340868.89139225596 ev
CRYSTAL
PRIMVEC
9.23605332156742 0.00000000000000 0.00000000000000

0.00000000000000 9.23605332156742 0.00000000000000

0.00000000000000 0.00000000000000 13.51789763069243

PRIMCOORD
 96 1
Ni 6.938187774647109 4.357699178398699 10.27718446458549 1.0277802338915913 -0.3552287549695818 -0.13842382332825837
Ni 5.538574753210311 8.174895290718244 12.169446713548288 -0.32024632535712594 -1.0549231128549703 0.6046478731015006
Ni 4.9352665257474095 7.457521806918684 9.905590338416037 0.17011498378395218 0.6293834281749677 -1.04680485462321
Ni 0.011299387417187638 5.21929363205226 11.702524512056765 0.3549366776504597 1.0284970574529577 0.46127133375365725
Ni 4.312146964289193 4.284872899352986 8.289148038933739 -0.34874109036270906 1.1665660685449588 -0.9835567452968417
Ni 2.5406904432480335 4.612050845949729 5.999891594048334 0.06161288771579067 1.140419492056578 1.277948828595025
Ni 9.144154415879205 1.9614328981738491 1.7934734245274206 -0.4175890623743582 0.6888877541881877 0.5447313992515264
Ni 3.7908179445383703 6.251856665466781 4.209973126376296 -1.6374988366477798 1.1808174362576502 -0.9850574982120843
Ni 2.320521408385422 6.2524200647086055 11.26113815029962 0.6123835511828615 -1.4743656834982994 -2.591282721557563
Ni -0.1310503580697036 3.1132703218986224 10.552449327271994 0.8592613909501653 -0.355549114423478 -1.8954491321791616
Ni 0.9028685279464559 0.17768041958119227 12.296096092294556 0.7179360777043958 1.8611950960922978 0.17156071509154322
Ni 2.242079609027751 8.51157713600085 4.638152855741877 1.5116281673941838 -0.30250648487520154 -1.5197919341518988
Ni 0.28736501591133384 2.479372286420578 4.30804615669296 0.8847546501252633 0.3543419814892543 -1.4865953927952722
Ni 5.831200624992848 5.43977669272179 3.782766877012163 1.78443995341843 -0.7447490841321819 -1.7895356227737824
Ni 0.3505700983962449 7.7111345902181405 5.3815156694852195 -0.21662289753750436 -1.633022288933665 1.135451092307709
Ni 0.6946361681680142 2.7029401888404276 13.045446639291589 0.6927966023242907 -0.0352541952166038 -0.9312024000648416
Ni 8.190522692639023 4.080987026184426 3.0123285734752243 -0.24341893468442594 1.9134082877607432 -0.6983807812802876
Ni 8.936841966993974 8.33720968868265 7.834162512526384 0.052944156297199146 1.2787258159703654 0.7652091517587466
Ni 2.9987524989578755 2.384222466924202 7.56626432582807 -1.2590203671216382 0.17584314451698102 0.9173364407160267
Ni 6.643132820887525 4.23364051255951 7.604236511121745 1.9491157684646818 -0.34052744420366515 0.8517784523095588
Ni 3.029046753272389 4.386035389446542 2.6057094865705572 2.2247398271267427 1.1638540689304344 -0.570611866562714
Ni 5.215340601306341 4.955225636593038 5.949145947255581 -0.26520543443189815 1.4995049017680886 0.2907994808509185
Ni 8.136482545689566 6.964094903717905 13.365848093696087 0.780027961939134 -0.990735779543784 -0.2727778474625173
Ni 5.29901924279704 1.0681403101277858 11.445211765867555 0.6361377161796657 0.40815722753749706 -0.8124413452728331
P 0.1828775466856973 9.34448440858707 10.116091072846809 1.4343865720022007 0.3414802950352377 -3.1428483701221035
P 3.920556783061531 4.1147078562156105 4.579836416186439 0.7029370331924023 -1.6173611853576404 -1.9411453486646955
P 1.8582107682290323 4.957710134888954 13.344895183532092 0.3608846677037785 0.19892342337521224 -0.87679400051729
P 5.158483458147761 1.9235743163338523 0.1626081044544075 -1.7977829503842393 1.0947399877415922 -0.16040367003345923
P 3.158573162573222 9.04204061231175 12.423961859239979 0.6532458366148621 -0.9676511298101786 0.6606601268010621
P 7.2790350798979615 2.121096548885736 2.8218479078408354 -1.0227311015034581 -1.6299246238449479 0.8921010631880055
P 3.3223653290407764 3.0926646873328667 9.770857565957552 0.7003142508575746 -0.2925077217912769 0.7248240630734807
P 8.084871480717158 3.446627188049148 12.24369996280485 -1.9229514513644883 -0.304708634732843 0.6737128462199622
Ni 5.593483089155366 3.4384809891755506 2.258746066927306 -0.24246556963222116 -1.0534750675545341 0.0628596156386982
Ni 0.5455773536768356 3.6062077142827333 6.538498498416887 -1.0558849625476074 1.0535128627710049 0.3368163139006651
Ni 5.0074924613387175 3.6673873303130184 11.378447108500689 -0.5785606890961456 0.06410325823781218 -0.4447260278004664
Ni 5.6366524015535475 7.676619459616513 1.0927137531244913 0.6256021067556645 0.8519113783429975 -0.909055431654157
Ni 7.587999529693418 9.006860485883706 1.9449012866502067 -1.2660135106100197 0.4088884492765668 -0.818925667445596
Ni 3.9391489580417494 1.734059741858396 4.177489927466496 -0.4326510989138033 1.2807616154534718 0.038748581523107464
Ni 6.997935802439971 8.754180543951861 9.66636455510003 0.29406426764511934 -0.2573460862884794 -0.010237104346975917
Ni 2.8709439955419507 8.608869719826789 8.182761637181557 -1.7328965341234994 -0.7924934413959964 2.6381037956761597
Ni 9.105732434797385 4.598279890711028 0.8020727091627434 1.2129711381720594 0.5820409343352622 0.20922274841869132
Ni 3.40740167034374 8.896175624997998 1.4603927163659203 -0.48541553510002855 -0.41181025090905204 -1.0089795562453205
Ni 0.37887860128465434 8.59771256762803 1.022000683038279 1.0718828806377605 0.6884979749489368 -0.8350511122525489
Ni 5.981074059371386 8.57912039264781 7.560830755763061 0.5232542032143569 -1.2278280006792337 -1.0728449874407138
Ni 6.8348455760114115 3.297012363158661 4.70256601397811 -0.3141908631916653 -0.4948903073596831 1.1701563569993783
Ni 1.9341680692907872 0.9743204822842415 2.9372089824336904 -1.542896381379846 -0.6892153127309356 1.2771895818314971
Ni 3.3742627116606694 2.107048512052695 1.6713801907974168 1.293741058432275 1.4802969613810701 -0.936206281037336
Ni 1.7975114269622696 4.121330106320339 8.587892795924617 -1.048254699695859 0.9312257971036092 0.8893852069187392
Ni 6.929311927575083 4.569177087252177 13.621039318477967 -0.16439890723578138 -1.5934075027555203 -1.7578436909871402
Ni 2.460567682218033 8.464242363634423 10.507636921019376 -0.30322999330478745 -0.22842811770254853 -0.07004764874670516
Ni 3.254471102374317 6.33078797564112 8.85130318439994 -0.7817799116332343 -0.4642113902185876 -0.8316127759949613
Ni 7.8837102432262745 0.8967283998158802 11.118497469138672 -1.177274198991082 2.2292523702851157 3.212293095177487
Ni 3.3231688656643623 1.9784087638537502 12.238496370463146 -0.9827992983055268 -0.8553060058468431 0.04118984397474842
Ni 1.5373687540895322 7.221633009603846 13.004203967579384 -0.5746855224114554 0.24775021506992817 1.3473925252091439
Ni 8.864144992692285 6.077609286839463 7.136639154145347 0.4236771775499671 -1.456507572270956 -0.9481058606883993
Ni 3.8894128118577083 6.3483272405628455 12.96547534953316 -0.1571327125916713 0.7358029306824876 0.30261087166354983
P 4.875952592452347 0.2971977180891481 9.135490074424192 -0.46301222770416384 1.0692624122957777 0.5980977306878086
P 5.4914431740130665 6.156586777279524 7.747742610462349 -1.4101991761227197 1.234152914455997 0.07839884892487788
P 7.415109850878365 8.87562540675111 13.127554228142378 -0.22991652932261694 1.3449440636686516 -0.44089636964173096
P 1.0868248456394505 3.8603100083988577 2.573861728117111 -1.3738504622903567 -0.9028655007933613 -0.2628816713947279
P 8.355219992314753 5.043891746781856 5.124040368760663 -0.16264875731389408 -0.39598742494418254 0.2344288153706737
P 3.7365468962602977 6.800053363815445 1.8884228216705579 -0.19767155324598215 -0.6791702697901078 0.882190488942513
P 7.707606417916876 8.490084840333205 6.046893868501552 -0.5228981054265188 0.8332832217188487 1.2939878843357586
P 5.140657875578551 5.888011587885705 11.260233017091444 -0.8040603202979894 -1.4860575180139308 0.7052757086279079
Ni 3.942944975884208 0.5140639403472261 6.898196588136009 2.8009474426096794 1.218561230665327 -3.1902217171997442
Ni 1.6900591846771946 1.5948908930745287 9.977033056700677 0.7813700777893253 0.4259490043032793 -0.011448865266889959
Ni 0.8740003202374794 6.599049139228021 9.325997524612701 -0.28425628041576206 -0.7336984827449751 -0.7589670275037768
Ni 5.730453757290801 7.894719618574719 3.360035495396622 -0.5284210921272771 0.47560163433340025 1.1285019146833855
Ni 1.0127055191534844 5.576719652697792 3.955418265656083 0.15308631043643958 -0.381990082223826 1.499721902874901
Ni 5.403774557563871 0.8839447786583442 2.143817239621621 0.6522932428936057 0.2401880864519541 0.19827704804046498
Ni 5.375512234941185 2.5383537218024324 9.314142126796204 0.9895137342112249 -1.7790123546449554 -0.5277317793697363
Ni 4.016870345254136 3.9244082172228576 -0.1293084384466191 -1.4928082064742032 -0.34672457415331254 1.1000097207809636
Ni 6.144487547660008 0.8967607260018865 5.550462477212813 0.425022635834268 -0.3778593478849041 0.0876764175720619
Ni 8.079606930424696 6.789976829834612 3.716705083289606 -1.0854984145386661 -0.9717407264985201 -1.0731964572428614
Ni 7.254171624832513 6.509810393744232 8.853709176244125 0.39780030978320524 -0.3662973540789175 -1.0344105947239153
Ni 6.319224437103995 6.956299674863804 5.577241489700466 0.17979827250998712 0.3032269079809939 0.24902882467203563
Ni 8.191834212185565 -0.06690689258529424 4.144006464001129 -0.27645735319663356 2.551859225454618 -0.3827884097554053
Ni 1.4584836241809174 6.438120149235314 1.8671734342006185 0.8290123622576367 0.13567479982821148 -0.9356966883907691
Ni 7.241804549671802 1.831038299877417 0.0817427647515755 1.1098511323514175 -0.08871462902858915 -0.03741880696809039
Ni 1.3955676301594346 0.48989134205699925 6.390653301308919 -0.1687371295998191 -0.3089653531266679 1.463495059332383
Ni 2.086507529858952 3.833045179515796 11.295244123746938 -0.037339102770090525 0.5923168623399734 0.46842619963088356
Ni 5.175976542803763 5.367107426579536 1.0500339515429773 -0.7856059702475439 1.2187478927548365 2.7560212715209507
Ni 8.616914322115797 1.7251007703080676 6.155860823502353 -2.1501516101972067 -2.168196383514059 0.319832634858475
Ni 7.0849209509564615 6.598023937328963 11.04163503486874 0.22119303340669003 0.3464445810190485 1.647418152644021
Ni 9.086918594541695 7.6524025282711925 11.145777075706768 0.2608780107011378 -1.1935482535607573 0.880976928250386
Ni 4.910052100662464 2.8203304243091663 6.331918468546027 0.4342163865183941 -1.830081919627261 0.20682596605174056
Ni 3.9594405668005863 7.3395866443144095 6.2954739264424795 -0.3492036318214244 -0.26568880182621984 0.7693455425246234
Ni 8.77762164683303 1.885253931836622 8.503744039328856 0.9972334714529858 -0.5088128309780463 0.9576523667262539
P 6.945613561375423 2.026306935462002 7.546068772021936 -1.8445765136990102 -0.08174102592423342 -1.1316232339211865
P 2.1322444650313517 2.259221723664256 5.602276735354405 -0.022557830695857924 0.7827885554034067 -1.216825478921143
P 4.316931239818131 8.95044667327607 4.751541109383031 1.336021307257725 -0.8581172500433931 0.15314544580914916
P 8.803030029034014 4.4811390286771955 8.70758096141575 -0.1450580408153244 0.060307024420173556 0.4106367994262412
P 0.5554276043556247 8.142587576818192 3.040215912340237 0.8750906446729381 -0.47414510439253177 1.5977092154546677
P 1.6221003056387227 1.2131740526585177 0.7675788214833493 0.7371427325398338 -0.9182957193055025 -0.8806413992878381
P 1.6865217763227864 7.197896353022047 7.130231180473576 -0.09613971784806669 -0.6390993699111509 -0.02786150229695847
P 7.236826317026827 6.092590165040115 1.559275748543372 -0.0746362965586521 -0.13135380385535442 2.2142674668405093
