# total energy = -340859.2721154055 ev
CRYSTAL
PRIMVEC
9.39584529674713 0.00000000000000 0.00000000000000
0.00000000000000 9.39584529674713 0.00000000000000
0.00000000000000 0.00000000000000 13.75176933838705
PRIMCOORD
 96 1
Ni 5.62013413166415 0.9505494594142065 0.3568382232790392 -1.4943421266202264 -2.3140098144381693 0.7784122807125821
Ni 4.783039501615513 5.216225543277641 12.105930020764356 -0.9509505292260461 0.3235584204494944 -0.611892727589372
Ni 5.709620160225448 7.286327527596613 6.451972725973897 -0.8574497916627234 -0.22884026553930267 -0.1891007808578356
Ni 6.055528196920557 5.6438304529610415 0.13986654989116884 0.1007417353964523 -0.3508645644636151 2.175147360910596
Ni 1.221271943762873 6.0287124550564295 11.181948252904109 -1.3413995408505026 1.290290123769197 0.7843029351654041
Ni 2.5356567122887097 2.6801272262700757 13.59021327881707 -0.9367313003028707 -3.301598820822856 -1.6249492821175433
Ni 8.239197760746082 8.112682706716484 4.791294691104588 1.133315791132261 -1.7449318680214787 0.19058482160252985
Ni 0.22697824840023734 2.8159817503112157 11.377319818032891 -0.7754146315368388 1.2293171836302506 0.39697524277874857
Ni 0.6656279739775692 6.387784070711469 8.6371287124914 -0.24535317559266132 -1.6180756949261619 0.7936270407798074
Ni 5.252587463745115 0.27139710602555644 2.7083420094669175 -0.46804850457649066 0.10269294558555218 -0.15138886812935864
Ni 0.9768484297988217 8.421871780831001 7.769034370763606 0.9170998992251883 0.3759045381513784 -0.9806290301270852
Ni 2.78958882147578 9.148527647785402 3.3221246498663275 2.378107416249027 0.47211393289511594 0.6901871897259017
Ni 8.031906626546233 4.286177817832434 7.157630758338967 -0.04055015350822049 -0.5746289581419072 0.3174651630675629
Ni 6.464266249679231 7.667629712715746 1.1390893055838398 -0.6198088971126551 1.1826483188188022 1.4423017130842193
Ni 1.6579626356406005 1.7056465494319268 2.8088813101827217 -0.02320934823692777 1.8782775054958816 0.854500222116096
Ni 1.6024989621213497 0.310013089728211 1.0472740470267048 2.697324271900374 0.8897775572611515 1.36513956477992
Ni 5.773417948332464 8.941913014431458 8.47771786524509 -0.8124287468673428 0.34970422560692677 -1.0334009225124783
Ni 0.49127115595926735 0.7882569064812373 5.811580112717657 -0.0725012524935203 -1.0158305177288829 1.051461379558615
Ni 5.5650368961030985 3.2582817617029183 10.811310351953086 0.060134246287735144 -2.083114723252367 1.9116992754894364
Ni 1.4766510130925765 5.811433537534377 3.777047039541235 -0.7708439814470209 0.24771576228756695 1.7616278406199208
Ni 4.16424793620287 6.854748175443511 8.718002509450505 -0.4918461212167207 1.265948461700039 -0.2799363128841695
Ni 6.648490584202685 0.12363898584998667 6.23821537118859 -1.6808982866793374 0.46256871240884206 -1.542400929800666
Ni 8.270279216277453 0.28394055921007283 7.6018813471697 0.3214218337224658 0.07678291058800969 1.2905420918790034
Ni 4.006360155444359 2.3937136806344115 3.83996161821054 -1.0518940962206593 -0.42803211208455316 1.159832606475867
P 6.449514772900437 6.479656643923604 8.889844999324856 -0.5921314858020448 0.028432030088447805 -0.3158111724039077
P 5.183105189363468 7.464951938451175 13.138123736434395 -0.5323245409467413 0.3507756042942346 -1.2249843605828517
P 0.5707769178744287 0.9042373390048574 8.674670751101178 1.6171578110975828 1.096511477819718 1.2972716972933531
P 7.16126882955473 4.165084166415171 13.028219596925325 0.9105145326981868 -1.923841053058293 -1.2288939800499028
P 5.380098477353409 8.706706824492883 4.593324235226117 0.29295329396912767 -0.6164965449099705 0.4413311431863045
P 8.186017277581765 8.107543179456611 2.377790541973887 -0.7704405753610152 0.3650552541417003 2.2897578838693406
P 0.36786048914477415 1.3769329092369422 13.050703854206635 0.7545593853543844 1.4130754692292502 -2.022566786465981
P 3.516949376811334 2.1804655806525512 11.27275157894591 0.7277543493463982 -0.8677293192118605 -0.18190554866097702
Ni 6.941894638579384 1.7661276042249843 12.625856625054812 3.473718750851979 2.1961468459803983 -1.1132776415344634
Ni 4.226410847265612 2.759409367072285 8.886021829960974 0.3602951137488956 -0.657568632359932 -0.21101377888084305
Ni 8.878669581184283 5.979158768093778 2.7068020304579723 -0.276426242848382 0.5279125279219746 -0.2512343169637866
Ni 3.4378457570656837 3.4183305868302973 1.759703664942397 0.7068129712080408 0.4502880952692761 0.43680368762959615
Ni 2.0979230816068766 8.186891091174394 10.02871162338025 0.08851819674706692 -1.0195858710062569 -0.09382829610607066
Ni 1.4660994790654516 5.318395962699687 1.508899432583136 0.24161890536120967 -2.6276242363010747 1.1638129312798537
Ni 3.8362295885439557 8.408416930673528 0.901755896318692 0.194024186301382 -0.38975044289553523 1.0404858543837177
Ni 3.5881135074626647 5.172732176392902 3.4018577912324743 0.6548823437770205 -1.5986386692474726 0.2578641635754785
Ni 4.956223718167577 6.898156979722512 3.052989123752017 -0.4914290882839601 2.811744276114867 -0.22980211523193975
Ni 2.4814426861653693 6.267122628167979 6.782551441417665 -0.42291433124201366 -0.12770540846948975 0.7626151657793254
Ni 9.03247016933211 2.1436714513113033 4.203035863870525 0.9104985918585868 -1.0312406816363657 -1.546078892872886
Ni 8.406331053065315 4.249524626167417 4.688417704132374 0.23073619701043488 1.9895139697760702 -0.25431295588911035
Ni 1.1272571178720334 8.761080579982618 12.967161637244232 -1.485977299595299 1.0096007347690872 -4.42934971627283
Ni 1.133073145977813 3.125415116397865 7.2339945496586955 -2.204655911892674 -1.5752508864511514 0.0339465321487738
Ni 7.55506748863297 8.170645675027556 9.707415063293025 2.2590306299888128 -0.20892887132735627 0.295049257266208
Ni 3.396560413775223 0.3281498894900626 12.679804748762331 -1.4349380736302966 2.42535246527892 1.0342072204638575
Ni 6.753686465741146 5.654100111635706 3.3196911259900803 -0.5318607139364453 -0.7735791209899968 0.8581694434375673
Ni 5.062002142101123 2.9907538646821434 13.308522084919634 -0.6889049805793684 1.512730656429743 -0.12361632600178064
Ni -0.053068672607840296 2.5395278004625084 1.0893928017759418 0.1305539336618784 0.5885185716398058 -0.2440642815779087
Ni 4.345512579525484 4.909488784729536 5.748157218829413 -0.5634222907928104 0.2885142843611676 -0.9274028238130931
Ni 6.163514644448382 3.2972463312581164 5.577319144794334 0.2842819914473749 0.3461705014220554 0.33036490184836653
Ni 6.973708970027153 8.727048829095489 12.739405412871202 -0.034366907515644037 -0.2864707715685776 -0.2924784112152382
Ni 7.651713151146779 4.236097963545189 1.4948723754601665 0.05290558974977985 -0.578477642464036 -0.34059017912080053
Ni 4.860893473965253 4.9844864201743375 9.686553468457383 -0.24855882701415258 1.0002953982077611 1.5436785109615092
P 2.2544202772932467 1.637442109981437 5.0202892878594305 0.8364986433323529 0.20174469487409125 -0.1251895840261715
P 5.423159635364374 4.4205947775760235 2.003096454700949 -0.7147985605166787 0.44534437811075556 0.09744892357779346
P 2.27318377992207 4.62159069557091 13.280110928560577 -0.3593196372095037 2.490657200024001 -0.19959499552094012
P 6.689691364887407 5.52773539112742 5.549980054359137 -0.42885949308185495 -0.31592121561921077 0.30216349971348605
P 8.061747830526775 2.3412754692315754 6.015463373906252 -0.3952042669212548 -0.9324450142226909 1.7219096960946927
P 3.3027522964761884 6.265046146404848 10.908411712953374 0.8090395186801358 -0.025619757450633298 -2.7864762455766976
P 0.043884234040151356 4.6204350066258195 10.064040000888701 -0.16666430623119038 -0.3636714864202963 -1.1706104138176614
P 3.54246849205414 8.576442828275555 7.62440694616937 -0.7348572789397666 0.2673728743968621 -0.20463127239326692
Ni 5.408802784079025 4.343426701917272 7.689810484200905 1.2831843659623514 0.6605565113436623 -1.066513903016363
Ni 3.04388736862105 7.601313838126744 12.473816818275358 2.0219720903047755 -1.3991881697241966 -1.6834956150928686
Ni 7.987990446632801 6.714261499776929 7.250345199270452 0.38824609043586683 0.7002108925104908 -0.3673813311717157
Ni 6.3183393797101495 2.1397064046866845 7.81788055059158 1.7712085423298203 -0.9047043537743129 0.8689595920745357
Ni 1.6295589959576096 1.111396931373559 10.778650394447935 0.3408822564399226 -1.353214788317876 0.30090314494382375
Ni 1.9970398929610698 2.804462444240641 9.180749758909732 -1.1883600244915986 -0.6187835411719343 0.7126074664026308
Ni 1.7400353424321737 4.230563810791871 5.5519738526855456 1.0810028406611578 0.8547293074077666 -2.0730159442554688
Ni 1.7225872581148354 7.112927206607662 0.36222204251104506 0.6306484109303203 -1.0584681498937514 1.9633594228678894
Ni 7.336952340898616 5.278294495889562 10.563572923428602 -0.27608428612793096 1.5374379293684362 1.2921778277102134
Ni 2.715352249482624 1.2168746882644805 7.287199462020225 -1.718547721600995 -1.0785476942524457 0.5239036638728977
Ni 5.575757555341699 7.815276022334839 10.77247544506002 -1.757846776310934 -0.9250181256310004 1.0861913268406325
Ni 1.9200879217392053 8.079261685759686 5.39076182193701 -0.6403455836134262 0.3178783393455816 -0.11367669829056552
Ni 0.9036557361942794 8.096183602752431 2.7528839526628115 -1.7618574401322238 -0.0016334218383649286 0.06035844648339928
Ni 9.511789810347029 5.2816863959641775 13.299762338549654 -0.8678203362637699 -1.2204607616808854 -0.6805625221519441
Ni 3.8133976849946114 0.4151046773862611 9.66907531743578 -0.10586311578341769 0.2456807341354091 -0.26755619405226183
Ni 5.218076524758802 0.7059004451681865 11.630214625922903 1.5551456310608442 0.5482550961340686 -1.8490222081751897
Ni 7.309178222836121 0.562581861793878 3.975691177512089 -0.6753745501931013 0.7536463866218118 -1.1604825813550403
Ni 2.5784359949472138 4.069086817212022 10.943025066651082 0.4178574855443965 0.8711131480824288 1.772788742332747
Ni 8.747729084121048 7.25103673346849 0.5195460725646345 0.04480352946793575 -0.5385520099136919 0.5662664451098247
Ni 7.504762134063756 3.331794853624758 9.596108124113208 1.2856120015672374 -1.6649242798485844 -1.0740379793075503
Ni 6.167075669734473 2.8167991888333526 3.3547169572868896 1.2515603112991671 0.9155382111650232 -0.6892402524316
Ni 8.685086984959122 0.4326683305981086 11.155902970336708 -0.255103827221522 0.19940550521795336 0.020519460109590465
Ni 8.774281742322877 0.31609783900333666 0.7453526590831421 -3.302026652388894 -1.1728146205578318 1.3002513487469671
Ni 4.665102854145813 1.7343226686222968 6.388618421754753 -0.2067758295400955 -0.360151903302812 -1.375702685007747
P 2.7405706976828053 7.089033572564047 2.5107840311875473 1.1841439295277219 -0.5683148429984213 -0.9185188910599019
P 3.0789620583122854 4.202009837587568 7.588982731041082 0.06177820964906135 0.43804861578029075 -0.5138354810036182
P 0.3199895980363155 6.360263640466189 5.60082003251352 0.5380210771108863 0.458859638988371 0.856769734876563
P 6.611940746833571 1.0418206985410918 9.868269112343933 0.46261550648637745 0.35924636076940714 0.13306847255361598
P 8.824079721257661 7.703972841493057 12.270799854003325 -0.047637913592937314 -0.5889075795481084 -2.7511873404674168
P 6.8954321846487225 1.5055338408747512 1.8801696739081806 2.185377009058404 -0.03929442672424845 -0.06915881838384864
P 3.703729381197102 1.2452501404122256 1.3893964977382611 -1.193329452681732 0.3247511552060149 0.3040522320957667
P 0.4322398800623678 3.6359289630851395 2.870283157793819 0.0601391313837416 1.9350348648915838 -0.048063688276446255
