# total energy = -381167.6778299784 ev
CRYSTAL
PRIMVEC
9.26156217774354 0.00000000000000 0.00000000000000

0.00000000000000 9.26156217774354 0.00000000000000

0.00000000000000 0.00000000000000 13.55523242017927

PRIMCOORD
 96 1
Ni 0.9288791124665416 9.239602968182378 6.982516747272605 0.4285275636637329 0.18292499106442692 0.5995529750770964
Ni 2.082147352267115 4.6199635614284995 12.109268357782932 1.7069435617031634 0.5232670587301634 0.2350926742069177
Ni 7.837013475788437 4.537054057222859 5.39522669974888 1.229810064106269 0.04124178025860639 1.8418974242049504
Ni 7.661432780890031 6.149667994084105 13.235735489085933 -0.4468759842639336 0.5920409829707675 0.22523815001034114
Ni 3.937164154809127 1.774895028538103 9.889111689718288 2.2002642105828816 -1.124628033550276 0.5466453284447876
Ni 1.8353545061357819 9.012500203143672 0.14741350598636213 -1.3919299454998868 -1.4319928749590436 -0.4412252137360595
Ni 8.02769977852413 9.312593339344648 1.3995239153282506 -0.2579199565140784 0.586381727802461 -0.5432980092391094
Ni 6.271253781752966 7.970713386725951 6.148721462434214 -0.9161601610197383 0.6842350859075248 1.1183931083841578
Ni 5.46834117584372 3.66248474509835 5.834375708268306 0.1373285333815506 0.6239905392941705 0.46706994271330526
Ni 6.856695647240781 8.766522374479955 12.718779170939383 0.25693599533425426 -1.709585884422017 1.0344728154204184
Ni 7.172403777196307 0.5552436160002256 10.395494082378734 0.8904041351015569 -0.27926705473128677 0.08539970572274325
Ni 4.037161241148302 4.340810817207967 3.871144035307397 0.2143060764788696 0.21035017715491516 -1.2071506748355405
Ni 3.2027222777417377 3.2063157638489526 5.581760118024586 -0.7334801960865819 -0.8763206604252972 0.076481577297507
Ni 6.100359437293351 4.357231566867998 0.28921080069588107 -0.3097035168442731 -1.603122416050439 1.256474974991965
Ni 5.099453156126265 3.071087695159659 11.735198494052627 0.628154440863873 -0.8456476568214727 1.4889829191908421
Ni 7.248061478252593 2.255736811307141 5.273636281298953 0.05183138284899461 -0.8016110874265485 -0.13172712803437314
Ni 6.336825641647507 1.593553641993595 13.429209522023358 -0.4492136312581747 1.1173245579103273 -1.3904163370688378
Ni 4.169638625884392 7.229751369917635 7.853847291119555 0.19231363136817847 -1.4620590982168045 0.12532790937624866
Ni 2.8057439400779356 4.040375003208105 0.9208391503797547 1.4513149723264231 2.225539697320219 0.5878472566043941
Ni 1.290543113721038 6.916386415181504 11.676070829089529 -0.2020668541002004 0.5360816939963284 -0.39138206496168726
Ni 3.690084200251702 0.5694397384361511 3.525797054217054 0.3031937407502133 1.6895047974014257 0.4496332352940966
Ni 7.1272629233649525 2.308110945163586 1.8788097556591135 1.4842634022279857 1.1265077670714922 0.9517285450426513
Ni 3.0903795290806095 6.924731082662435 3.6202362771208176 1.013757694360254 -0.15781688314288947 0.9448508440862114
Ni 5.008856555351068 6.251508131287547 5.072083387713787 -0.7229317311467743 -1.778747016798711 1.075737221386844
P 2.7383475524433907 3.127425777608599 10.864938586788135 -0.03277925131355 -0.4338044957919562 -0.4920600369997396
Ni 8.514098498572366 6.894945898845931 6.770974332771868 -0.6708581503799866 1.195804653695102 1.398910490582778
P 5.1359622340505995 4.084691578009712 7.8507029907757415 -1.977295059112375 -1.5428896965116268 2.177867073834604
Ni 5.239738037739629 8.117861085879124 3.967684706658911 -0.3419546635684949 0.7298978780519623 -0.4878724812809534
P 2.194332654371999 6.726663314907539 1.5787647795812219 -0.8228352869126475 0.09393859643168984 -0.18155382174851314
P 3.784357641193303 8.05213177942834 11.07026001000481 -1.4912251782577994 -1.0360869539850737 -0.051295307839866494
P 5.247693719611015 2.26658210056371 4.015330813046972 -0.34423317519002655 -0.4190070257678074 -0.37993474235669406
Ni 8.226730748740753 3.370560306697793 13.141133262688644 0.43261818879333885 -0.29087532839417646 -1.1404241200422682
Ni 0.8818238937425027 6.36656451765335 9.263658949664029 -2.167650024092286 -0.9731134384763306 0.07899637329956073
Ni 5.00881950910254 1.0689972859615295 5.955315038900354 1.310552473562659 0.5785578608826681 -0.7829219956574774
Ni 0.8317049502651991 3.4705851777233647 9.417809315945206 1.0365086149035245 1.4446972098995894 0.10248854288422994
Ni 3.5901889910959786 2.2087436450493865 7.575450290368995 1.3629991213981496 -0.47356352085744896 0.6398681297563755
Ni 2.9860665547879237 6.180120010374112 10.202928608686458 1.0287852781173379 0.3610245357157524 0.15840489443587558
Ni 7.040204239324177 0.2818682342376336 3.6495565305182947 0.09405429607394769 0.7378608416527809 0.5062206447708378
Ni 8.961607919228346 3.798185153456375 3.1956325519296933 -1.1365270989807073 -0.8262340281815512 0.9369688702349735
Ni 1.6053065643390998 7.946837079549661 5.059666411363418 -1.258560396766084 -0.09782481885997346 -0.37076875958670985
Ni 5.708243419748848 0.46404779215508735 1.7918121979284094 -1.1166666126113542 -0.6417216380253463 0.42371445854580575
Ni 1.99425512763446 2.6657091206421355 3.140028911357821 2.6776869572854207 0.32660106393056015 0.9933904435578118
Ni 0.7904224632180341 2.604388317766181 11.58717557727798 -1.2067485543011154 -0.46496729454800567 0.3142985924141232
Ni 0.17003857611861845 4.697723637088749 7.480549841671057 0.4086835323546123 0.3650429128465262 -0.5972001585742038
Ni 0.4821976754651625 5.8766093577464265 5.2261253937180205 0.6032227106191999 -0.7873887731795794 -0.6605387707318495
Ni 2.277158804518451 8.175329078908167 9.02272867236225 0.3980674474016629 1.1885526001183788 0.6275098653013387
Ni 5.1352490937664355 0.30179078053977304 11.48702937978848 -0.6035379278667735 1.013605742163422 -0.3221782522725161
Ni 1.903538126551546 5.108334994210852 2.935195572465502 -0.4282892224006818 -1.1537036107599936 0.4370821381019634
Ni 0.8070293702769187 3.2460293422709574 1.3454354663211732 -1.2154031446523197 0.314346157822607 -2.9100246944550205
Ni 7.03965780715839 0.551002746699984 7.603984237141464 -0.32471927352681496 0.5751141253084419 -0.44414701536854473
Ni 6.531531462348488 4.025704688791022 3.7465445353207842 -0.6132505271688471 0.09498734941117834 -2.1264007876345126
Ni 1.9830115912062154 1.315012160873775 9.218778345728582 -3.009845203588784 -0.5023771026550315 -1.282917999674842
Ni 2.898489223267757 2.2972656559070175 13.130167573124362 0.6516188425344003 1.5582479241352518 -0.4718979602295679
Ni 9.236435513933236 4.95670469898579 11.364408149473261 -1.7993880900878303 0.005311384910584401 -0.8868925224038726
Ni 4.3916753164368965 4.3920087326736486 10.047151912094902 -0.33844099398828165 0.015233786230618924 -1.6453435295031793
Ni 3.8043348307120213 8.241271401287989 1.954515616838486 0.5966458287326305 -1.076281009705456 -2.0359609483847003
P 7.381742866065843 2.6274773921612504 11.243509569714593 -0.12721278510378736 -0.6299503564220312 -0.057112685852591966
Ni 1.3861131733611185 8.635823209673207 2.728573825925494 0.6253498815355424 -0.08453195840580927 0.5311768004955433
P 1.5470698616531002 2.7454233859122366 7.34800669984383 -1.165235522658993 0.357022870755527 1.9283273709644208e-05
Ni 2.773115456686909 5.574978802231538 5.538939285507296 0.36933254136081556 -0.5853000647025082 -0.2884960295287225
P 2.225016209715306 1.3927629749718926 1.3221120744041641 0.28601054410270743 0.4778431220694093 2.0268931817554767
P 8.007629973384091 4.648628096227031 1.224049728394363 0.7790735684456648 0.3435150660770794 2.474893766542157
P 5.349376410258214 7.019124923911751 0.5903477149491351 0.30482227749257185 -0.03655620185747897 -0.4317303868717468
Ni 7.759457154495092 3.101410049579819 7.49734475844122 -2.0061829457913194 0.782801153808897 -1.0195367629358765
Ni 0.2585661439135283 1.43017042442303 2.4763916767895515 -1.5931771319122692 -1.2490902524921197 0.9978906454210106
Ni 5.394887726574849 5.527717050671955 2.3148403962086954 -0.4287545920728745 0.5896526852442491 -0.47474957074575014
Ni 7.211746893133032 6.624110037419933 4.6036011596099 1.3378545038117218 0.1466212715373862 -0.5323867616432444
Ni 8.773653777321593 1.0365169875646147 12.866070424305605 0.1425607283147674 -0.10078750103272319 -0.19850536200118715
Ni 4.077041527688683 0.365691854625702 13.638868134786447 0.9131203457521501 0.12263442170448557 -0.48759505924985064
Ni 5.996852218906149 2.2945520182023422 9.285713507568953 1.2007388577719258 1.343373376747422 -0.8187739723590801
Ni 6.886434523246626 7.4201690873515 2.306273451236598 -0.0252114662686211 0.050158108911629744 -0.6682009152627976
Ni 2.7105072966746064 4.6799506993574465 8.011074348340982 0.5552310132312696 0.11442206109702228 -0.10198409244398565
Ni 2.427103495435488 0.8456787952099567 11.569228522178594 0.49071586426701946 -2.3803936411800426 -1.2349576697454796
Ni 4.835109649754798 3.0538797127184085 1.8397157757437392 -0.3481083418747166 -0.8700679946473661 0.6415496312238563
Ni 3.002348381015975 6.742204216165031 13.151069992700066 1.793605679078098 -0.026868028035437596 0.24962429216418947
Ni 8.934369664998142 0.7892369832651385 4.985194190260028 0.0507710599052803 -0.5034356258265329 0.36475032130677176
Ni 3.483792165323593 8.727512674779982 6.165502486861181 -0.42125082749666165 -0.7007238275911675 0.012615888991797627
Ni 0.055185944119719374 7.447648142197137 1.1909516838032441 0.0409414754093682 -0.3574208775248941 -0.5121048714657568
Ni 1.7484625302133827 6.761810943198469 7.106858775831949 -0.23764629386670685 0.823262347147737 0.7532640635817285
Ni 0.9709636507943376 3.2780373009991397 5.1949343047698795 -1.4393629421708696 0.2945990571026669 1.0856387967712722
Ni 0.6701008787801906 5.350534105524713 0.19580146350119543 0.32590738029764516 0.257473355894963 0.7311782874262828
Ni 0.29748322799218113 9.07871111082532 10.677226171653027 0.8001442730730349 0.7448012775263559 -0.7247127343065971
Ni 6.5859801861225 5.447021059815862 7.451026760062889 1.157350720594278 1.2927462986191736 -0.3892058832459749
Ni 8.812672738583696 1.7213446762908944 8.7642171716653 0.5903096021019575 -0.5160250324557694 0.8937789651110606
Ni 6.715642055970462 4.6186391580436235 10.480485585751646 0.9574137683528866 -0.5947540110265563 0.3059540771041699
Ni 6.459745094263376 7.734506506111489 8.766914138558137 1.9714812806440754 2.181524982302166 -2.4193509962798463
Ni 5.5184369654156935 6.70287962335257 10.275706890075906 -1.9491293953114368 -0.5446121000648426 1.9628377460364648
Ni 8.029079751281797 7.279282204199556 11.166136627351461 -1.1277542378840835 -0.5975233462415774 -1.3480137037329107
P 8.81513631411081 8.895369226860302 8.613726974738688 -0.491348869865328 -1.1469850610892376 -0.07549221680104418
Ni 5.306171222912447 5.570996330514778 12.275415225493685 -1.2817424913095024 1.2928334590163413 -0.2369235567680694
P 8.7183715129557 8.20209499346964 3.901426565010389 0.46906717564899214 -0.8991469142911934 -0.49885212022090863
Ni 9.024373525796893 6.043586061424207 3.034610106546575 -1.087026164037102 1.1492394043410532 -0.8172770760985795
P 9.197824061404939 8.167262258291197 12.712544287312124 -0.745639200046619 0.44831580203425375 0.8657963638552056
P 4.727295804976216 0.010694325793817334 8.100566044753831 0.48583693890816326 1.2009422320319834 -0.6276150234206351
P 7.779619575256449 6.108305857602605 9.335109123043749 1.1938269611434407 -0.7967547877755116 -0.8934938297704741
Ni 1.8679088970297524 1.021837411585399 4.934538076179068 1.1730138810528314 0.6595666366265672 0.42819357736308195
