# total energy = -340894.70800058614 ev
CRYSTAL
PRIMVEC
9.02805398848351 0.00000000000000 0.00000000000000
0.00000000000000 9.02805398848351 0.00000000000000
0.00000000000000 0.00000000000000 13.21346958183320
PRIMCOORD
 96 1
Ni 6.105293534184732 2.0900034579366156 11.291398490053261 0.7599031661648009 -0.14333385903536605 0.14014414845347478
Ni 4.444050402226517 0.3359835322043538 6.177970269217131 0.3050130533471392 -0.09993415189349242 -0.5061270566157672
Ni 2.7904450036924104 1.73890244982367 4.669838413861938 0.7163520210467276 -0.9651476466620345 0.5981458103169247
Ni 3.4534742949452473 4.243410936957757 4.815913225416792 -0.11292439350557326 0.48145115113564185 0.013872129996401916
Ni 5.324375917811328 4.461303012833455 2.9282239367089513 -0.37331929392270546 -0.06048828719304422 -0.15293590090150436
Ni 7.35937144459772 6.386643799467113 2.74708055338979 -0.29629084298279296 -0.6858037159462254 -0.37235795845070063
Ni 5.323464084388355 4.553298879963075 11.751412132305393 -0.17350189797831408 -0.6698327944392658 -1.3998116622408086
Ni 5.5057766006607345 7.825300267629374 12.30773885696304 -0.5731469742797419 -0.2890580726797796 0.5024290389388896
Ni 1.4992166523335544 6.416165535042565 0.47280007469724256 1.5853229259751729 0.3284090636735763 -0.7935653343039366
Ni 2.6556019937367674 1.7248367421702895 0.2828227408396773 0.25434355201672965 -1.4641838578692914 -0.41291531104777274
Ni 0.621915534735831 0.09795257695612843 4.4959355296044015 0.25079362988194226 -0.0926882689643565 1.1988041026430578
Ni 8.542218011374526 2.08069553457934 1.4179641690983653 0.12308847852276866 0.7561956354062267 -0.6062532699154075
Ni 6.942203139560873 0.5604028908999463 4.699027014256126 -0.4062322426006423 0.6075663322998762 0.2553671081852376
Ni 0.7339320137346014 7.630077634576293 2.489655533198694 -0.2601979539149777 -0.6930418855658774 0.4725998713925989
Ni 7.745302683857483 4.093057730757885 3.5897031111427347 -0.28226444679671386 -0.9405128788324899 0.294267641905177
Ni 7.574934282620678 3.6716191563243443 12.65956030376067 0.13140265481541885 -0.07488106557960653 -0.7936005584172461
Ni 7.968051852619909 8.913352270631792 6.977491093029917 -0.11398214534612627 0.5434923846381027 0.07815228013171058
Ni 6.896999674721029 0.40806622130376724 0.3555689918855115 -0.39176850176682854 1.2606422189957773 -0.664686731461952
Ni 1.7146892098195834 6.441696870885801 9.043219017391964 1.2619287990176848 0.4664179109516032 0.7668487442446986
Ni 8.982778003529415 4.866978605519369 1.400931843001531 -0.7918087566241461 -0.8815004048540238 0.45331299813852893
Ni 6.571718900169489 1.867633467429288 6.8732233925156745 -1.0472673960819254 -0.29747817842267477 0.8284186945376959
Ni 3.377638643925737 4.325782898850853 0.38665077513907925 -0.13725808515493138 -1.0295321835856914 0.31708463979969265
Ni 6.305490624822545 5.82794269668826 5.056266196074805 -0.6716197111363593 -0.19051771581002028 -1.4723494243992192
Ni 5.579237873559038 3.0352497076263427 8.876068214491271 -0.3441413868071686 -0.339891353281563 0.6082260773710622
P -0.0957154252510529 5.555548260669135 12.410089901678301 1.3340572415528185 -0.8572728997652269 -0.05979151823633574
P 3.906601337840512 5.989120539265797 12.50535934107693 0.7150325309043557 1.7511374826115582 -0.07029164643671121
P 2.466076062563842 8.31978482449135 1.408886461110256 -0.3469958255368282 0.632079486949892 -0.6389862413720544
P 6.282469087905908 7.909802850193971 5.918907560086162 -0.6039552179098502 -0.3182997431537163 0.19690947826897703
P 4.54450555566629 1.027952249569457 12.478351015649553 0.30013721331207666 -1.2867903381460548 0.5901720480828287
P 4.0129969506101455 5.920281629858207 8.230801618879017 -0.19480605877272902 0.6469129524182988 -0.0653219611362617
P 4.684368163475129 0.9776298782857965 3.6442488059438864 -0.6273232032118292 -0.6865835315350434 0.630383844415024
P 0.27994008329556663 5.627249063097343 3.461294395053949 0.3193598089871145 0.22586138541663683 0.7512804574927964
Ni 1.6251399452407123 1.072108460180936 2.5257018431779317 -0.09236122464224093 -0.051516936932369334 -0.6127149663803513
Ni 1.572190410332447 6.524736908752164 4.939577699290012 1.2301324804426943 -0.23488878572622773 -0.5652138354755943
Ni 6.012539310544917 5.569677164698365 9.09276949008489 -0.1345913369560456 -0.12874156304348797 0.5446997746826425
Ni 8.446340081157004 2.292295057031158 10.249780475609015 1.0630061469734209 1.026834325038554 0.6291731119363745
Ni 2.308401104819111 5.245263083301332 7.001064244027184 -0.05533836756098857 -0.16174655721459885 -0.37895618049350865
Ni 0.79605405119475 0.2890195968944144 9.083559972512866 -1.32725384547774 -0.31490460142923826 -0.19803690700520085
Ni 1.4508353125938458 1.2012818524175015 11.325872113079214 -0.21943414173405432 0.5966519993802175 0.7756447452697739
Ni 4.032019059740873 6.693633737237044 1.4602208772128793 0.04702162016517708 0.19901701153028306 0.03292811818658845
Ni 5.524852878113618 7.789919325207295 8.2502922839964 0.31813802076487147 0.6158869363504297 -0.4153164642900976
Ni 5.255311307061417 2.590636119363387 5.008776828039945 -0.8458191494023304 0.12834844137012735 -0.5814968889063339
Ni 0.7217594889406008 7.515565801536832 7.08022583002712 0.5386378847592788 -0.16190647983123085 0.09666319445170449
Ni 5.18629183657997 4.614039625208226 6.766300541410382 -0.07081589437129739 0.13703748450369302 0.9234345831939645
Ni 8.27172849468458 7.521081942343133 9.256497757830644 -0.34988574549011353 -0.7200155859412438 -1.0939450026441224
Ni 4.537969244792703 0.28305024779273585 10.404562844950574 -0.047886796378949784 -0.6902576379525209 -0.25292404596138374
Ni 8.259766323541625 7.2385490020269945 4.914934723930148 -0.12520732463798437 0.1355927816373665 -0.3017863188797254
Ni 7.358883929698309 6.44362887437606 7.144311469165452 -0.07306818074058384 -0.668963504460435 0.3025049422133048
Ni 2.3735836524811185 5.160715360468272 2.4484424680910677 -0.8580311180874901 -0.3187345166982897 1.3746984121129489
Ni 2.24998056937301 5.406666627221189 11.352167222264859 -1.303176235703246 -1.846963268763632 0.31334754135476356
Ni 1.0665291229987863 3.095223068307605 3.827651008296986 -0.3241580017067062 1.4119598675675682 -0.33881714638077776
Ni 3.7557064484190725 2.5011951914288293 2.277262444827279 0.24946976886419617 0.4725723605887732 1.1012811312942195
Ni 1.252714674305376 3.3564588299624307 8.160176057645621 -1.0897584753666008 -0.11977818320261309 0.51019197071376
Ni 3.6912100328377178 2.8428347992717216 7.060180842412999 -0.4639730489555365 -0.9409234840073473 0.36739830045258015
Ni 4.000484068191926 6.777982842888863 6.039546733166924 0.3527255289317538 0.44813042549632504 -0.5429321412592585
Ni 0.7468457417367809 7.250727846458579 11.15510106064771 -0.6155930592590947 0.14413681455263563 1.1183699684557062
P 0.1265561594710229 5.582803954767694 7.9968838448932305 -0.22342038007531198 -0.4587999893950292 -0.8115594568885119
P 8.442792056055733 1.7710062087552625 8.100253254065038 0.6492937939456496 -0.2697249195688065 -0.9811206250515233
P 1.7549994695579303 3.3235606023058724 10.351907624592693 0.6372767148801154 -0.5764469851872525 0.6248665141412206
P 4.062082478537893 6.061092183304789 3.7461637956657845 -0.21078623625106924 0.30805775371073396 0.3028085894966527
P 7.0264709927294575 3.9848745633570775 10.390622627243522 -0.9596686258253344 0.8478793743654688 -0.5358505518221287
P 6.358259598656954 7.952776385771693 10.296107030328242 -0.7182872903962274 -0.5291937086272435 -0.7383128415885349
P 2.317411102404524 8.398220554974385 5.926531751429731 0.7142905105320085 0.5365000124806696 -0.3668979637773939
P 6.864868831628359 3.7217790226415346 1.4812038796056826 0.09967292781230577 0.9609467212068096 0.7573981403547602
Ni 5.282007261831024 2.70780220018853 0.37496486243912047 -0.1887464828422104 0.1722924510512452 0.16474626327287112
Ni 1.4942783069635936 1.1216815030080942 6.9800017947618835 0.493634323465395 0.2233447896423702 -0.5471168687645674
Ni 6.86903076438074 0.8119623846068307 9.349969711739035 -1.0968081831245304 -0.35773429500025483 -1.4005269431402783
Ni 2.804456543023634 1.5693465734192158 9.318270409612882 0.3187756543488704 0.9009433440699839 -0.7759463356705927
Ni 6.309824090595089 2.0236743474556222 2.679056877230659 0.7666638819274022 -0.43051914017246506 -0.02402464504937153
Ni 3.7872504680217114 6.818690336989693 10.34464004136999 1.8100679383991793 0.26130995603223384 -0.40807700911886496
Ni 8.180481956011464 7.165448851276403 0.3851584378636596 -0.8322725210661474 0.2365363486319797 0.01452930396442659
Ni 7.558286551611157 3.882270733138419 8.017285440628218 1.472899126255102 0.6276931849567382 -0.40086609319272254
Ni 2.983573128288762 8.192480239369194 12.363657718730868 0.17869552636411162 0.20626366579036737 0.5923736837198379
Ni 9.190468378732252 4.822569609404493 10.054895491764045 -0.9777607074403547 -0.344983937313122 0.88201668236881
Ni 8.703811144421932 2.3262676230771597 5.821299854781098 0.07824741094867814 -0.03629369222471169 -0.47742403225411967
Ni 3.6577610939058984 2.7008957391135393 11.4383318695143 -0.5513159944475796 0.26547540026383315 0.4357464500096753
Ni 0.9632843009679393 3.4349758129287022 12.908224500648274 0.2191433499665129 0.20304104508801157 -2.056679154768658
Ni 3.2241436750407724 8.316724314289491 8.162369874692972 -1.0008016484202182 0.08194002930891695 -0.15461226016266275
Ni 5.495936022135584 7.808688648834624 3.6712959520021426 -0.37012418402417546 0.2731527143034328 0.05543349837795614
Ni 2.9377918680125794 8.201093002592124 3.602150088768996 0.9483424021792376 -0.0679290597418056 0.5008822632770599
Ni 3.7367926759326595 4.1607771615075695 9.63072954230991 -0.8242046564563483 1.0793208249730444 -0.791830611001017
Ni 7.315233290093627 6.276673077435132 11.184593906451344 -0.32193579724440685 -1.29697370643696 0.7063519724112223
Ni 0.655268776298507 -0.0581126788151766 0.18110095146680538 0.3268666588871209 0.0931847489848008 0.25320043955122196
Ni 4.676450560386543 0.06204168778228264 1.5377041480313252 -0.872607216129452 1.1005941325295236 -0.3803458617521837
Ni 6.038549133233871 5.538241481740039 0.4985002351445329 0.418590249945363 0.3607702536131012 0.5461041112293369
Ni 8.0288648222946 8.89211828834633 11.310201217479253 0.3311238915015781 -0.5734760754843865 0.016599813340210122
Ni 9.006323167560234 4.782196153290296 5.818419002847726 -0.4480620341522347 0.2889703980619797 -0.049549271683037244
Ni 7.674567883174404 8.760588574095944 2.522623276868688 0.37920660594141786 0.6503366333878671 0.3575836283550035
P 8.50252165928729 1.6489649789360084 3.496204975878633 -0.6985072795558228 -0.5191836326894091 1.1574697626706454
P 1.7005061374681967 3.141744628986597 1.6529653095272874 0.7288704652287125 0.5573763417090465 0.5864701737512094
P 4.747122164693773 1.1335985338825887 8.270693879731386 0.08968702024418747 -0.3735368092501502 -0.5639622224566803
P 8.431001417932938 1.5308328963657358 12.443150634301329 0.7170068810219071 1.4842513180431276 0.32330799500158514
P 6.219877591653733 7.596005759939669 1.2834226961360617 -0.016437319620416856 -0.7113476258536008 0.6099836834921173
P 1.7754389831184267 3.310686597739941 6.010820369121808 0.24105686221015257 -0.602151331931892 -0.6344575002637654
P 6.8641917276013995 3.776335551107118 5.727589560255216 1.4776093872465776 0.40276845242175796 -0.10056741460211713
P 2.2798453709887885 8.41503981900407 10.25336100170358 1.1040142139546665 0.4351252714859087 -0.1837657417981674
