# total energy = -381170.94273902714 ev
CRYSTAL
PRIMVEC
9.30581073655191 0.00000000000000 0.00000000000000

0.00000000000000 9.30581073655191 0.00000000000000

0.00000000000000 0.00000000000000 13.61999465870484

PRIMCOORD
 96 1
Ni 8.559121913262652 5.346216263284846 3.770967683311281 1.066457338746815 0.595365162247994 -0.8144943711471198
Ni 7.060979421010692 8.777789857128335 4.788518087156458 0.6749387482072634 0.721687574327028 0.5131279134136324
Ni 4.3852423977969845 6.1029461917583205 1.8082856264064038 -0.9500488433473832 0.27777272957394744 -0.4593005831805316
Ni 6.884597081746491 0.06066830339764844 2.065907694581466 -0.4128734020662438 0.5488441358683193 -0.7972918912259044
Ni 2.675253121048374 0.9377930906061941 0.524624393708904 -0.9450020249520952 0.01145632146605769 -1.740462005175583
Ni 2.7968149284667687 1.9760796328170152 11.748172117070583 0.07925476916726996 -0.8713540604486414 0.49771414996172353
Ni 4.1387779968572165 7.079349091671636 9.576722568486536 0.7075976718928653 1.676550808343919 -1.366339498625292
Ni 4.897369087505053 0.18845104538384494 0.23003592242668197 0.6832418687563201 1.2615030243341758 0.8503201225964776
Ni 3.9701846212927174 3.2462948993858434 7.747775250201462 -0.4387284154561347 -1.0278820495767782 -0.1599969215133438
Ni 8.352458465421597 3.0855277107645325 3.545230114926286 0.3571156875796495 -0.16365045910553105 -0.7667358728159182
Ni 8.794791573591123 3.5197368460429748 8.254820036592438 -0.9266075816053075 -0.7681782616893996 -0.2703340139077151
Ni 7.4757487173779325 1.6867805844343275 9.162388784068096 0.19452195187340693 -1.6097738599286857 0.577578013467902
Ni 7.030642477568606 3.4661632928539907 13.532540878955361 -0.21774981205309596 1.6700729139290593 0.14041205740288076
Ni 5.1323873410725005 5.816969317856868 11.404444311479793 -1.210928653820734 -0.5710929199641906 -0.27502602006674565
Ni 8.383335145894247 7.939606166093946 2.9476118713200274 -1.6971312035984318 -0.9407278230567735 -0.21254744191655006
Ni 8.99785367262479 6.646051925858631 6.091106408586123 -0.8056204656962577 -0.04563913799535366 0.2985647266186342
Ni 1.1677117598158915 5.632481617323325 12.96731151008842 -0.31606802560972014 0.2142554257465923 0.9043197167413844
Ni 0.8435410463532869 7.327665348974893 4.139129756508171 0.19626695958897167 0.6425986413136611 -0.08716039716759182
Ni 8.253807564369586 8.912817172878233 7.751888418606801 0.5291440863362306 0.4095268541915141 -2.201514538050215
Ni 8.670056484665444 8.556935047707777 12.369529484210817 0.23090049050244105 0.20886562218958868 0.7946755366489798
Ni 3.340674433247694 8.568232302106148 1.9769832270526675 0.14447157218423506 -1.8112938403864807 0.8009811671520334
Ni 2.7776077348273622 1.0902129668754954 7.291137249559795 -0.557847110697878 0.39078711169016567 -0.82507985997245
Ni 2.147650867860492 7.943458771794874 5.914401157684671 0.9427294268678345 1.8379955180473828 -0.10270322999819731
Ni 9.177158036502739 3.8163967908252605 12.338026522666496 -0.4507056424226689 -0.5270530081351568 -0.44684564524663045
P 2.9961453973408414 0.29863277668710864 4.2900672171055945 -0.5468821270459421 -0.26547925691857505 -0.4658620384481332
Ni 8.160563339434097 5.876600953923397 12.888383344598116 -1.5300364946980425 0.410422626532906 1.1530106984580273
P 1.309504400069591 5.531029667198902 5.210628737720466 0.9204101945453438 -1.3322014192910026 0.009013516352519962
Ni 6.560810698272892 1.7790104759847913 3.8727769765731814 -0.8029069234198366 -0.4189494330569946 0.5477066798297664
P 0.03887130259261854 7.035704838682869 0.8219478428063496 -0.4296395657809891 -0.043546260022066935 0.2016768177506333
P 3.090999527557154 8.825147128654953 12.22613810564934 0.4375647341653367 1.065751313818726 0.4436168538966876
P 4.110637224780877 7.646128808629818 7.370365062160172 -0.4606858935638324 0.02330627882610825 0.4179341044186028
Ni 8.814324470611044 8.737076934564188 10.033427570966479 0.7813111995269317 0.3508373107701055 -0.7193198454257999
Ni 4.75767025469751 2.807125766912729 0.7398789661468101 -0.6148520673280121 0.11670545781456029 0.0218345793765882
Ni 5.748701889301303 4.950198175824292 9.201491801351422 0.8969501637501909 0.1470655581636564 1.7336969185376079
Ni 2.198283784813986 7.598175965207404 0.07938880312845946 -1.0943666635625733 0.22145888547356699 0.6946233711203843
Ni 4.619255623790275 8.86203536295079 5.580670584713461 -0.16428475025542028 -0.6638344107639857 -0.040406171731188475
Ni 0.4304523794294944 0.9561813728888816 3.740800105627062 -0.42453284068204306 0.10442535489562661 1.7245191086930818
Ni 4.89493096505664 1.8626976331549376 5.791099163633249 -0.2995150063470454 0.7514869170766477 -0.008300549445895382
Ni 3.9955057326749004 3.1723416203876056 3.615277745101627 1.4666714001778354 0.9295982888025152 0.29957337038880666
Ni 7.529880619219225 1.3440103467822455 13.532785621781288 0.8782983529769584 -2.6469774440167058 -0.8566668907501118
Ni 6.4365967347560336 8.564854292759684 9.125668984949039 -1.4081872878990134 0.2681334067119705 -0.2460951959650084
Ni 3.3789213159308145 4.95796852790225 9.477282534672597 -0.6236928055480936 -0.9258262233545926 -0.09872959006242997
Ni 1.8960868825629755 9.258490823522317 10.552240485785942 -0.0743583603069171 -0.05583973267743932 -0.6492613980458173
Ni 4.6378672455338865 0.7589037658931292 2.9610820325569653 0.21606702503403435 1.8438869438311536 0.12775503076050257
Ni 4.808600957598902 2.3427378869770212 9.979819586277271 0.3013638866303261 1.3461403979695978 0.09046195073699904
Ni 1.5559967184419736 3.3413630632522078 0.2588969642644994 1.650437913306951 0.5445336814184235 0.2315232116881045
Ni 3.225766280602641 4.480068610580681 5.6129496508844925 -1.0088682274784366 -0.15082991030209508 -0.45532642902413195
Ni 6.3416123231875146 7.456736945766834 6.721998509545609 -0.06204071928182864 -0.4284620005331201 0.11329103281637264
Ni 2.5152490089185506 6.725095483403746 11.295429528859854 -0.06679160370325271 0.1300235150797051 -0.16056282131914282
Ni 1.2118306091591209 3.990257255343202 3.0803387906224136 0.8798569557133299 0.1027417965456166 0.35769598556315174
Ni 1.7131811698776396 6.331106062713247 2.287573040128959 -0.1812964543220684 -0.9006780062237392 -1.9858594037426185
Ni 3.2094997231987246 6.713184045487835 4.033303144692913 -0.49723669610467264 0.9932706301504958 0.3250920834852014
Ni 2.2386058633215185 2.6506950861576795 9.375337376571968 0.0050735578681654556 -0.37687795780824124 -0.13757973016040823
Ni 6.933480506256085 6.242607801322377 1.8562691790046943 0.44184793492172286 -0.012168774152050012 0.6757334761944168
Ni 4.205882199053806 0.5135151166901426 8.798789349941652 1.2136951608222775 -1.6593393295616388 0.36122019666632627
Ni 1.5677220401404486 3.897124700138173 7.390876930483806 1.0562695995805356 -0.0893679463418719 -0.5611478929363367
P 6.967474633370791 5.884650480327509 4.901059772096811 -1.9368436359655483 0.5930342001219723 1.654144158513945
Ni 2.4204227961348534 2.013153983330288 2.53432685178684 -0.24175363116686105 -1.049384185314612 0.2582693694336971
P 4.226997083921932 3.720202623843408 11.680249003517275 1.1198684073781038 -0.4548754575296424 -0.1898191470810989
Ni 1.476953160896858 8.418157490176542 8.238720983784216 -0.17999316212961258 0.01920511217354112 0.442907743644805
P 7.874623688776129 5.046317896319171 9.677074571765912 0.0913626081743975 0.18051072519597947 0.4438037730965131
P 7.487622932050357 2.1372097480623267 1.8387807686333104 -0.9110644916643857 1.0115424318764903 0.35031049173235795
P 6.153942035335815 0.9414409684679419 7.313828538789605 0.17090071291004116 -0.5681394937628216 0.9297890646570826
Ni 5.6857759961861545 1.6598123445278352 12.141081133118867 -0.43915007637458564 0.48167972220668004 -0.4724826290884444
Ni 3.4504736957241264 4.99461481111542 13.31419863847019 0.12567372275144165 0.33649646866740107 -0.0903141123052251
Ni 0.10935351413567301 2.0689423195067618 10.752508980395893 0.5033543789666363 -0.5855620601146432 -0.7876191440228306
Ni 9.25968196731391 6.530399308343832 10.981189046178551 0.5069683215701398 0.057649532192668454 -0.4113183988742981
Ni 4.563979107211751 5.378656319983959 7.38792140495092 -0.3065670280978204 2.776363582622728 -0.10095436562789066
Ni 6.335935778555713 3.191455755918294 7.880433306503398 -0.6724514630090355 -0.3425120787338617 -0.1587440229428492
Ni 7.650158224737311 2.280482012244643 6.187576958150869 -0.9391723056441955 -0.7397632008818164 -0.36335549784177423
Ni 7.259630565691123 3.2952713820041555 11.025236240778069 -0.6624573279108009 0.7443988998816148 -0.5672200672723456
Ni 0.7876522074193978 5.073556004740946 9.36674252965077 2.394262428742335 -1.4828333546496786 0.798410835321696
Ni 1.0018542926477028 8.684983005303819 2.1860094202740745 1.3600454380864642 0.4764177024767924 -2.0669831077978276
Ni 5.509161011650159 7.995971462544473 3.3286587702500188 -0.7736518832094611 -2.1043080695005307 -0.24455561939203044
Ni 4.961541959277024 5.45448006696743 3.9069776926892406 1.9784831658832056 -0.3834949489041266 0.4511162475975263
Ni 5.54643078419174 4.22605719702388 5.776975734473109 1.3881884761795835 -1.0633419330462848 -0.988218412438569
Ni 8.868037610963105 4.377723302612565 1.2363970192796 -0.30913016083930633 0.6365264669776522 0.4756692543465421
Ni 7.3148791648370315 5.272960920101993 7.2007145464806355 -0.08969936153936164 -0.28983223184164275 -0.20928933999056856
Ni 0.22645783814647275 3.2942570486191287 5.3966230490341545 0.9927574379595032 1.9674875861036503 0.4328675857999835
Ni 2.156789174136605 2.0522570006136145 5.198234328220308 1.6204220836711511 0.6008912342725459 -0.7631607538701501
Ni 6.731013979118214 7.794519268791628 0.13589275616097496 0.5302072374934224 0.4915098209232244 -0.4509141588890493
Ni 6.306203712820296 3.9750887836221587 2.507809013126543 0.045834541835611385 -0.2444358059847145 -0.5396748106642254
Ni 0.5351520575481774 1.3581086502530306 6.693151426424099 -1.0770947638560031 -0.47479225105822753 -0.1778907710746291
Ni 4.469301787402003 7.4062622275981616 13.277887364448404 -0.4822037130309502 -1.9393682021596148 0.45469496608772014
Ni 6.942749093884403 7.18802235103258 10.985070499893183 1.1284121831830565 -0.7213710715278738 0.18945173643935115
Ni 0.30085128199894706 1.790214672274445 1.4525179627096714 -0.6595046730403804 -0.7525079021419944 0.06896315743327477
Ni 2.1589388164479923 4.218547407650333 11.27674253004818 -1.1884798378989145 0.16493678201712236 0.5525853480783064
Ni 2.1863351236545876 6.31029826960389 7.5228547320110115 0.23882231645267904 -1.5666160935942892 0.2975069747780812
P 3.075598410564316 4.175740677640028 1.7061357404665956 0.3814966875271752 -0.16355507117824736 0.955544833464948
Ni 5.7655081837357836 5.449361870987937 13.543450081040378 0.811357625290351 -0.5588292721054893 0.6530126375581334
P 9.145397303997266 8.791320506135941 5.577864882735611 0.12721175666252285 0.6991096890265122 -0.14365216160673325
Ni 5.1127613859438625 8.541105863414836 11.385716367100285 -0.5031548613613205 0.9602617793246431 -0.8616658866265998
P 7.07761821084948 0.24813851631560507 11.006222608004796 -0.4347344638053932 0.6269254535527783 0.7253449685739572
P 0.518032157287317 1.6986082700523921 12.85618523898167 0.037668975305683514 -0.7185374587338206 0.13400795364874984
P 0.8138638849020121 1.0720759414863468 8.776383749105605 -0.5341945042759445 0.2447597649830365 1.0587849098032218
Ni 8.947146309184323 6.6103362237326415 8.407241774023914 -0.9449714288244759 1.6243067634375383 0.263923482395681
