# total energy = -381161.2308997972 ev
CRYSTAL
PRIMVEC
9.38133866355423 0.00000000000000 0.00000000000000
0.00000000000000 9.38133866355423 0.00000000000000
0.00000000000000 0.00000000000000 13.73053741436439
PRIMCOORD
 96 1
Ni 8.866434588742091 2.581190924249443 1.948417749481561 -1.5257859469518045 -0.14054806876011278 -0.32060345158622844
Ni 2.6610730236820395 0.4516626777172598 5.278979693386486 0.05462771464720914 0.5550155547863538 0.8200075876558651
Ni 0.9157162276518506 5.790162274785495 11.607919757495946 -0.22186666243494693 2.3357250946280743 -1.8610817104428852
Ni 0.9424399092071876 3.4870060869874755 11.274075436837299 -1.530983431992344 -0.13704905446791882 0.6792340331485076
Ni 3.4636653161843864 -0.27591830643004883 13.40174617829753 1.1901567113807052 0.7487219527370009 -0.6891404936289421
Ni 2.100228449356859 2.4703597882897603 13.289801477428554 1.579352824434667 1.5174398889799543 0.5493359879030733
Ni 5.661469069851102 5.843861057774595 0.4229529667491359 0.011364790193515911 -0.7724977150003599 1.7049843810942635
Ni 4.029406949335616 1.9457178001901105 3.561193713800508 -0.8438831087218822 -0.5636986843826485 0.38590535811783216
Ni 5.716575053652286 7.461691687410545 8.110422519387452 -0.16715512982467987 -1.5929382764285855 0.3416517876160955
Ni 0.6529289810662885 2.5200058329400603 4.057442142047815 2.1046569681995173 -0.9567974749251262 0.559416769177843
Ni 7.8794896085180826 5.629488086061822 1.6896110049264452 -2.1622391374893604 -1.1939629725006728 -0.30126104250387475
Ni 0.3974103957420742 9.282900359747524 4.740824824955337 0.9403025625938967 -0.7891080698635313 -3.4033090907801644
Ni 1.9446295648954328 6.747818715440677 4.501515316718573 -0.5449609987638292 1.085876109593059 0.596510845816663
Ni 3.9533242920956457 4.296315418032833 3.5485617411773736 0.3239867662361646 -0.8084864743901431 -1.1262683973671763
Ni 3.5386972634846687 4.834597872670944 8.553465623063765 1.4953006338787538 -1.172125307800291 -0.7802161666905403
Ni 3.784122466450747 8.961082915362816 7.516110019081556 -1.6552129660980912 0.08961297247314244 0.20137959822518867
Ni 2.571012171708707 8.621318969954672 10.524182814747471 1.1589260355011974 -0.24484229739451382 -0.7942348495671353
Ni 7.997760146104312 2.1895950822628967 4.533383724442886 -1.1645025011477108 2.141818150630847 -0.7685960659531086
Ni 2.312396806464035 1.600597110357303 10.861308727699898 0.36698563839519377 -0.17108248990354405 0.3440105176562592
Ni 5.76495461757171 1.5474518263542898 1.6421311113928796 0.004189612601315365 0.8205724590203998 0.5573305760727756
Ni 7.448501525131951 3.9738225172583257 11.007209184164445 0.1106602800617449 0.38462083497845373 1.119283224298595
Ni 6.1937005609972555 6.747584181971997 2.9158720603243413 0.02902081271238228 1.4306967818554392 -1.2691086045955755
Ni 1.267034229861073 8.472878046957376 12.378299347141956 0.5399185512439153 0.7060452398040807 0.08172945596000762
Ni 1.3674145544563499 8.196503807464213 2.5574364364076017 -1.0364425375522794 0.36561626885149295 0.22166251684394084
P 1.956375001006955 0.8681443969985618 2.9955505847061237 -2.017139701913139 0.4793078795403939 2.778825156789343
Ni 7.573376525196225 4.925249748985353 4.211005276001094 -0.12676747003625266 -1.3720069813237146 -1.1126559487900642
P 0.8473197012474782 5.424562122467503 9.401985197537012 0.0518159562300269 0.19967778504273354 -0.3182894587410712
Ni 8.839697773312508 7.941237580152299 6.544481950630137 -0.4651436722248699 -0.1272634358360647 -0.29316489575930155
P 4.581095337043508 5.015854718606024 6.5368070774010345 -0.10298990800068071 0.046157986613301144 0.33211016667424736
P 8.920630582684794 8.644978706275166 1.2332867399856908 -0.5820692164700362 -0.5495866704612986 -0.4537595987576444
P 6.292814404861658 3.5834368679701716 2.594110903972117 -0.04172231943945073 -0.3242952986155189 0.19831818569104556
Ni 1.9739462484805017 4.931272568461068 13.149955736991464 1.9464888723647962 -1.359007483740253 1.8344733638267372
Ni 6.46551546985927 8.13230730641697 0.812191278308505 0.2798946610129567 0.9744365281631281 1.0030253955444144
Ni 6.5871726707332465 7.54012906067607 5.92089592089741 -0.6922692690659109 -0.18286611280203344 -0.46322048706022806
Ni 8.78099873677114 7.412664811117563 12.868644098915636 -1.3704275526517367 -0.18751749553111577 1.1528551467167694
Ni 4.010672415857414 7.713768259548404 5.56554957183013 0.42842831908170736 -0.6452335078333469 -0.4694978354285075
Ni 9.122273077717587 4.285189150278629 6.088738390557836 -0.734683986586696 0.7602816325501423 -0.702064657889778
Ni 6.734009384804767 1.6474756600771718 11.506684792940797 -1.236038047293852 -0.32473495725609874 0.17196900627355544
Ni 6.1967870214450915 3.103759636485957 13.35940069146032 0.6616723701156605 0.8146198409813905 0.7132759532245652
Ni 0.53737434104738 7.767560855924976 9.86331815923491 0.04589727675274677 0.32705100698378514 -0.9743303416025672
Ni 8.217771302404165 7.793828604417197 3.8302711480160823 -0.6545025918400985 -1.390043270000135 0.34946434168197876
Ni 1.142403144604227 6.244359790232255 6.897411666836132 -0.16852321381680008 -0.7287205699144095 -0.22340803878013782
Ni 4.9904125279235565 4.8681643027085055 12.166835528574698 0.11789407880602278 -0.09285256245636267 -0.39674461482518125
Ni 3.1167527906508594 1.9916394533577626 7.733849015136833 -0.008258897574682551 -2.4478403619687907 0.20203754352416173
Ni 1.3009665321097754 2.874854971053737 6.8033712509662285 -0.7171698889623326 -0.06555901684773224 -0.886999223185066
Ni 7.960140977727952 9.255516231944382 8.958763848424503 0.5519477144943075 -1.0291524316487697 -0.588806792304186
Ni 8.504455633180527 9.318793361794397 11.381901729996246 -0.27844944392599785 -0.7862711146353685 -0.9497835055011384
Ni 3.88404310544741 3.7469629836730003 0.7307959689359815 0.5331326386703334 0.1460564001728517 0.19993258136601696
Ni 0.4074915823598391 6.557621453679497 1.1869682561890311 -0.7040503208612391 -0.5856458780777011 -0.5264896794325191
Ni 4.356215265933847 6.839389962952312 10.300292474875643 -0.26449915239349286 -0.07441569590741377 0.37232299144770714
Ni 6.711344070391477 4.49672895768974 6.668840038929439 -0.051703341911562575 1.5682284323867315 -2.446387431572348
Ni 7.048424952917916 1.992286765731321 9.040735171996106 -0.038260586143095396 -1.2426876913998857 3.1516091470338687
Ni 3.5579759146102106 3.196738084809675 5.838636590226267 -0.6207275522721826 0.5363763424186117 -0.6503957687605766
Ni 8.71456947710206 3.6059051742697683 8.772549903095392 2.345893550520644 -0.3222903523703482 0.2713529420905326
Ni 4.251904160403484 1.9955983783090905 12.577900462863353 0.6788293415109212 -0.5791718403175832 -0.4038498584113948
Ni 1.7498073031318708 3.362562628505574 9.04484044583189 -0.7166983486425528 0.6638030433054181 0.1601506734823887
P 3.1863904681714894 7.09808976024571 12.085413013319808 -0.975883802132616 -0.22235465781495897 0.31803054865272967
Ni 2.817994676906824 6.915003553254923 8.439845415094533 -0.820562945938703 1.767074208446473 0.22902615629786363
P 8.731418361492072 2.0826947272383007 10.913223180059274 -0.40616076593275857 0.1880733680345858 -1.8844694932392063
Ni 8.210679010311265 5.938650104476528 8.440710374527026 0.08944019434070404 0.6984268040268745 -1.0380983279881475
P 2.247205883509588 5.230377791738752 1.502436410509619 0.8438221735769597 -0.29873390520664683 1.4173368156087656
P 5.917410753552817 9.413422925737624 12.693840675904772 -0.4524771325007949 0.371164966583864 -0.11895388752910481
P 1.3550218059712695 8.474538543915635 7.434221251290929 0.6198703464782098 0.5842839647331679 0.6429490826745443
Ni 3.2302482268147528 1.3823215017256858 1.5406897573852918 2.1204954778936704 -0.5389088790324784 -3.4192298757754793
Ni 5.475662274623621 5.689228451204133 4.624005580473303 -1.4803702378211667 -0.3106741082876585 2.5021191779170135
Ni 5.276899850586227 2.6938889466198224 7.509368589057803 -0.13757535928503403 0.3432119330143638 0.4390472322481342
Ni 7.6338486347608185 0.9572061363953152 0.19780365121742907 0.2032079096831791 -0.35157393182581387 -0.24075167226490798
Ni 7.599625511010952 2.4105818977924613 7.020410399150962 0.7785104968533431 -0.4397200899454427 -2.1786301772528733
Ni 3.0186802753873994 4.46971070209774 10.969614407268827 0.7457060487288125 -0.12555159535128055 -0.6568332968558043
Ni 0.3518639961243108 1.4411706396870103 12.669757841206778 -1.1260750504094477 0.04318733402075143 -1.8452074624147898
Ni 5.616532457251909 9.56314909214329 3.829433394465955 0.9475705570102196 -1.031744874966294 -0.7777134548733445
Ni 6.457391230504175 8.251253300393001 10.483031572332782 -0.17151212124179496 1.20009171110623 -1.3956958403002222
Ni 9.35123403118229 0.9259690927686896 6.451389049973703 -0.04758597730907934 1.6133060414516602 1.9196283005285266
Ni 0.6219377285148402 1.1093339255202692 8.580419147418407 0.7534795220266443 -0.0627570286225629 1.1224317972299056
Ni 0.40485261177024556 4.641117142348236 2.6486071007547305 -1.0674461850226455 1.6807404209452343 1.3387060531787396
Ni 5.133581138544914 1.1444951831448575 5.784854313322318 -1.5551641430036056 -2.4311191925593683 1.6135963189985696
Ni 2.4001967557992865 7.243697518941345 0.5242620438803877 1.1492085511031174 -0.44567142243287117 -0.8268480076164663
Ni 8.307710196973785 6.33778854281584 10.756764026834729 -2.1865823422204147 0.09506808205044272 0.31516453995884436
Ni 5.609430783820262 2.9545025370176528 4.774424089678512 2.6791406590128117 2.7735937331870746 -0.7418478513249869
Ni 4.550258876581389 0.6452062630095753 10.145507890617475 0.31714660338587963 0.380836428235357 0.0005044504402442926
Ni 0.9698146556715816 0.9033685095927567 0.9106184081766101 -0.11200933789047163 -1.1669355360692355 1.9521424711061475
Ni 1.8538838751935531 3.107418358597373 2.136870082235759 1.5520389671110626 -0.6299166749706183 -0.6661771999645495
Ni 8.979526627339855 4.038019018305567 13.464824423766103 1.1630765673344616 -1.5112461014644167 0.47062706393694437
Ni 1.908445741347397 4.420862071240954 4.554281594636198 -0.6640413845684692 0.06101999132679814 0.8922514727229408
Ni 3.501312628576989 8.788015978154062 3.2982263455109995 1.2261413570054303 -0.05595029011337461 0.07924474186494095
Ni 3.6728316448924514 6.485704110843291 3.014553424472496 -0.13874855365752878 -0.12528831438756485 -1.2539959173238533
Ni 5.8232033498532125 0.2913374747949831 8.05279576986489 0.7222511601399819 1.3189910912483156 -0.5999193572775797
Ni 7.348018005810455 0.39700699817594365 5.403969145783475 -0.5543586379286453 -2.4121902168653486 0.8957327464033219
P 6.25721222431595 6.069247721176607 9.856109538541542 1.2502007119474792 -0.3658098729195377 -0.06174272842543561
Ni 7.804767245396458 0.3297165316098688 2.8000275369381438 -0.12811292832055354 1.4179268837842807 -0.9529235937920167
P 4.297891482942367 7.827770288004647 1.3541343313257823 1.328079683813145 0.422261271039047 0.9157097037458809
Ni 6.189225662414831 7.224925460108153 12.421357815723956 -0.13195647043635986 -0.7785050975367044 -0.4162631444740831
P 7.68612145426034 5.5060484308258735 13.033629950927534 -1.886356940069906 0.899818229326605 -0.3693266278235446
P 3.8066845861378167 2.690089504427197 9.584903478564224 0.6905965093491784 0.3002737388899409 1.2148200184553402
P -0.1503800457163465 6.114794120794371 4.573093055092127 1.7381796368993097 -0.5362863538079667 1.421964544188764
Ni 6.563888187962641 4.146120184689807 8.77156204812531 -1.9814013679712652 1.9441296281040004 1.8630979695419654
