# total energy = -340894.0397310399 ev
CRYSTAL
PRIMVEC
9.04436642120362 0.00000000000000 0.00000000000000

0.00000000000000 9.04436642120362 0.00000000000000

0.00000000000000 0.00000000000000 13.23734447600262

PRIMCOORD
 96 1
Ni 6.362259711923674 2.0342227668875186 11.233303245644802 1.549398444164422 -0.6235459955575842 2.0251623151072993
Ni 4.597197296200912 0.28148872732983393 5.844988868508838 -0.9410299276782245 -0.3442267474321233 1.0908941316329406
Ni 2.8040340333320186 1.657832404855511 4.867927749414131 -0.3352001184534808 0.49342015057205996 -0.3028921503493945
Ni 3.24968615508243 4.3189925783975545 5.120906824225767 -0.12543718126060333 0.8477526189796174 -0.951801821482748
Ni 5.214375831252386 4.686899324522554 2.8214471524213165 -1.273718592563761 -1.283859537652505 -0.8862235213613059
Ni 7.160198958614222 5.973731809862664 2.5501478085465297 0.8852724703019464 0.5101001823309022 -0.3437004426150081
Ni 5.094547017657566 4.398365940017914 11.404939095782192 -0.03449263446023092 0.5966998218990175 0.29917690628133636
Ni 5.617790760800533 7.8559097291886655 12.420720052893413 -0.7472209427114421 0.2778393211458247 0.0850657194220922
Ni 1.7631811874619323 6.48024347472422 0.5706443642592096 0.6616268615897056 0.23637154091934132 -0.8681810620372983
Ni 2.824700411101221 1.6905097015207755 0.3743942703148682 0.2908161930214669 -0.12704257807451022 0.5203575983928522
Ni 0.647441890260896 9.10496389507934 4.717591382710646 0.16192036378830177 -0.2275511144142339 0.32304959913387593
Ni 8.692730708058559 2.404390604672169 1.2285750065108911 -0.13503408092041905 -0.32891994187172385 0.2701609786649606
Ni 6.599231162221651 0.9509789745823108 4.944028859184645 0.98292193992632 0.3203756518461386 -1.8058693269367996
Ni 0.846507495539834 7.442564085071337 2.804371388207638 0.7319113089375653 0.8215883018794238 -0.9456540567137972
Ni 7.5910454521772435 3.767069148643584 3.7995547047361105 -1.000945115976618 0.26226872040107735 -0.15306471316988476
Ni 7.608980431221589 3.841024934647422 12.680462505077395 0.19117463266772883 -0.13138362865202532 -0.3422652528303783
Ni 7.993465501395144 8.99567176861849 6.490680673825165 -0.3591669136817234 -0.17117659227924711 0.8375970186028543
Ni 7.025736359798145 0.5299401922021871 0.3786577847483046 -0.7293844287506536 0.10899934741955422 -0.8077040876981638
Ni 1.7425148096927296 6.563704890065227 9.341554577541832 0.5366607064282499 -0.27455396552633365 -1.6864680674576311
Ni 9.057480970226687 4.990790043579538 1.2125927062238198 -0.47625675141889584 -1.0493319919204378 0.04382162517064066
Ni 6.4920011513544 2.0865896497250165 7.125384478112255 -0.6125833258984933 -0.46443584752456785 -0.21369389681616746
Ni 3.789182625074963 4.303816131177982 0.6590168706849773 -1.8690102212613426 -0.40041589302918135 -0.14601577674290336
Ni 6.035332991038173 5.649292289802778 4.675747620457159 0.1406038616987127 0.4218295828182671 1.9332931996101286
Ni 5.399676814944038 2.7502562292988983 9.35120491674522 -0.6621331118021629 0.5247544419089671 -1.680905485768189
P 9.237644753667611 5.9244038342157355 12.352626825344716 0.18412235380663775 -2.038848040124508 0.29016313281850026
P 3.923482425291545 6.050455172057913 12.61123149620556 0.6527514134769468 0.6853627717540648 0.3865846435730439
P 2.3786141597521566 8.460905502377946 1.538537208892368 0.05115672537947319 0.1862049473672793 0.7844158065941845
P 6.30979334105315 7.661727177457908 5.686935848189299 0.2494381442953123 0.3092857125805641 1.123811708296568
P 4.802956637229078 1.044343971392586 12.644113195556859 0.03905685679214564 -1.7405221689895574 -1.0325871683619314
P 4.06603973224917 6.2611889147373105 8.160426318417041 -0.3171694862040151 0.14081494926825427 0.6121441814785457
P 4.695735670728467 1.1709108381331643 3.606434866085388 -0.2016518780499688 0.45634072922125923 0.4645109237368774
P 0.17103078200926725 5.623000315984366 3.5167391688203935 -0.8059110003534832 -1.0909165002304437 0.47464775506056317
Ni 1.376552602395029 1.1004461776518262 2.635330366858863 0.366142316558292 0.381444237022685 -0.8229928955364343
Ni 1.9076197226803857 6.48528118694192 4.935993843862912 -0.27540242956955796 -0.0054921334628228 -0.5715006969255705
Ni 6.122023245269162 5.602162095249031 9.354778346004132 -1.4214899185451906 0.4975123183635626 -0.6276931849567382
Ni 8.649001195360924 2.3326778215947037 9.987788140419811 0.3966903645484781 -0.0026986298780856746 1.6393320332017765
Ni 2.3416317445669184 5.095315788821846 7.206741269336461 -0.4779228262674091 1.0465739695593266 -0.1417793700640526
Ni 0.7243036312657165 -0.09622844328805619 8.738143377387637 -0.07142473159988989 -1.6511287687263885 1.6659270100814856
Ni 1.5149766337988126 1.110847199286217 11.667078305125404 -0.1375869292492598 -0.10362959846720862 -2.1106239844162293
Ni 4.123543815337393 6.661537803994971 1.625611848705496 -0.30058355682087584 1.3165061200429329 0.3741515600160137
Ni 5.73046548038422 7.804383972448558 7.938422390469284 -0.2959427156147549 0.6734693627505886 -0.11387775855777806
Ni 5.0483122154010385 2.955147311129759 4.804705817736983 1.1549251418719206 -0.1563418412592598 0.12011242661358025
Ni 0.5650404746899327 7.388370240172841 6.789354602205004 0.5172193098741866 -0.28875545383769624 -0.02705674700747598
Ni 5.109922440943187 4.567323753193613 7.280539683360788 0.5794896286683181 -0.2811943536609867 -0.7250948002363641
Ni 8.06633596340235 7.0814677470252025 9.062114399255641 0.9670335508308376 1.0936832643423036 0.9110184689177988
Ni 4.84813324858889 0.3318685628168315 10.199533043289405 -0.9168199060909243 -0.4503585434958953 0.13718069494977664
Ni 7.984059360091 7.486772949200817 4.314567169801287 -0.18958877623784767 -0.9781337745090573 1.5751089615566485
Ni 7.2923642883040936 6.017045281694923 7.136689031973843 -0.727627851070863 -0.04958655267887589 -1.9140765174723617
Ni 2.0665111557873233 5.201107745393559 2.538274364023375 0.9436123436934201 -0.16062967000133624 0.5147623636932618
Ni 2.3640979512972025 5.248871045612009 11.4483439157175 -0.6668040349152711 -0.741882046997032 -0.2018215708586137
Ni 0.8253174489422563 3.2888211295276557 3.7288277576222524 1.4671892203545183 0.40474125987741266 0.06478177236207552
Ni 3.3958521643288564 3.1077438650562303 2.8402042643931105 0.017134859908073716 -1.245697938981119 0.13755119091531795
Ni 1.0515251985036351 3.2194327486763106 8.28440649629898 -0.2599578128797136 1.1729552599007542 0.17920563323131072
Ni 3.6738036398663336 2.670222628913921 7.062785703296509 0.05780379838234561 0.1738060594822942 0.10102789917830342
Ni 4.1584188930958375 6.835569506854926 5.963754969023623 -0.15141072250622956 0.13105092790295497 0.21392889564510897
Ni 1.1003466896188017 7.5199115085646495 11.332689077326393 -0.3361941069356339 0.8925126968041276 0.7540693330918433
P 0.26581393550847504 5.614661409943577 7.915283282861088 0.08813150283160952 -1.092922217806563 0.967819794177559
P 8.633490106575723 1.4603938811348576 7.938607799985375 -1.1411761677169443 1.3711610883836514 -0.1101332039136813
P 1.9571466743933632 3.2625743775424363 10.32894165002783 -0.5594224256047979 0.22131567502748337 0.9820313097912505
P 3.7729570313253133 6.1025326351629765 3.7978733569779943 0.2178400577740571 0.06894335993893289 0.13216318713052722
P 7.077560580637327 4.018231210197526 10.462360528933813 -0.41121966851290465 -0.4151022913967625 0.004551109705792162
P 6.258855468144551 7.674687754851023 10.208269901462293 0.3602817440124569 0.266298924606393 0.3004046080408504
P 2.3325964222949565 8.49143928414986 5.896469403415754 0.8389465906522132 -0.05778785754274563 0.30351152910094825
P 6.834556537791403 3.8528368774774346 1.6402790980833148 1.4284568367813268 0.15596954552150558 -0.322311949636903
Ni 5.426963669092696 2.654340721096538 0.5586479163497697 -0.274752711800701 0.588619101773412 -0.13397195820449184
Ni 1.5516967623515316 1.2349268652011802 6.982554031282146 0.2663837710107155 -0.7618371499627202 -0.794226107816387
Ni 7.071419455689717 0.6767971910598024 9.20416431724484 -0.5749518886989647 -0.8563241626987124 -0.5036554551468229
Ni 2.614482197320225 1.4421423492581613 9.222392333768276 0.8317544437791482 1.1986230969805034 -0.2689271062578594
Ni 6.641830129089461 1.7094757383619212 2.4844775668203143 -0.8255814821992169 0.7565087957712713 0.7479441940307119
Ni 3.9398255958074966 6.931240817158045 10.53774713373988 0.7679995700196902 0.2532091813019704 -0.5282038339101484
Ni 8.063125213245646 7.175637692466313 0.31916394099958906 -0.5774867393056764 0.7495349355565994 0.9096287876591238
Ni 7.601708760444154 3.9001841368305095 8.269594537054942 0.6389487032658996 0.001094775726075534 0.014262937676917371
Ni 3.0506106010001894 8.295321237958444 12.78159661283023 1.4582916607545724 0.09875041599803638 -1.3538660487486296
Ni 0.08086206436907356 4.930545517399819 10.418862552022127 0.16032396583545938 -0.6726882616101899 -0.6327320329322265
Ni 8.612850861906438 2.419241454692751 5.8142389263742595 0.1675035143030341 0.24809551422448886 0.34251850649176496
Ni 3.842300190343465 2.440830357859091 11.262729996940154 -1.0160799147355275 -0.033518443472419696 0.2118409027678287
Ni 1.1947789216924316 3.265179155134353 12.548738540479485 -0.7399082111001127 1.0098313627226545 -0.334446785227224
Ni 3.219685990942192 8.379017806832055 8.021394505575143 -0.20469914951672485 -0.4516788049692157 -0.1388475411292383
Ni 5.394575792159867 8.04855473859086 3.741905911781669 0.7033607509933822 -0.7781078620982858 -1.1720430324991298
Ni 3.0728326098312317 8.510459587190839 3.7514368653454264 -0.3545975491434861 -0.3763719647061002 -0.5923487440191734
Ni 3.541991040475367 4.428592213324118 9.204084726818422 0.06012370476477387 -0.4575568610165475 0.9951897015500796
Ni 7.141639918271813 6.073310286553658 11.530945211791176 0.23893055989576914 -0.06022989132533498 -0.17496716966993092
Ni 0.7201784956418508 8.903075542972495 0.2194859762755706 -1.1463448564020773 0.26147064997981423 0.8023703341900762
Ni 4.488818650770559 0.34735161406545206 1.569895836901724 0.5513496758989924 -0.8276460780377294 0.14989480008233538
Ni 5.841376548473382 5.458926460793511 0.39831842894729486 1.0621322290088997 0.7764461581251466 -0.18530043327513893
Ni 8.024804231797896 8.637315873663852 11.282400589942446 -0.2597778356584236 0.3899784997459413 0.34805666270117475
Ni 8.990516479634486 5.000856423648301 5.574034115002982 0.08646208554898657 -0.4454590493117489 0.7458500305058444
Ni 8.013435462933174 8.813970442849001 2.4352346082197887 0.07036363732522721 0.17907887784545934 -0.40479011083747707
P 8.498900886626707 1.5779977805365826 3.720951018716695 -0.738630887049586 -0.062184186838228385 -0.5194841946489633
P 1.7049445106759824 3.2277897434503777 1.4497278595579557 0.26676840804364377 0.5163847297880333 0.6484342741588316
P 4.705530719798071 1.052836631666232 7.986420844220337 0.6250079248150914 -0.36522520406066133 0.7960158527269581
P 8.441912332436884 1.604787194520118 12.32084401654001 0.40854649255611575 -0.08169577450859479 -0.10892298565566404
P 6.198800873664243 7.629176501925584 1.472588400673683 0.22317303995119628 0.4022948552194491 0.05604156427560026
P 1.6979170377977897 3.2511694312111605 6.21567494850188 -0.17563539938154912 -0.039482374365338455 -2.073568731435145
P 6.798406204336916 3.9218544392965966 5.932210027061512 0.40493152151134776 0.5636526616360615 0.1459062477482326
P 2.533544160271387 8.686544361277756 10.25554028369894 0.15328068583543278 -0.8134474179398441 0.2188412453450618
