# total energy = -340874.98096281604 ev
CRYSTAL
PRIMVEC
9.17668932995182 0.00000000000000 0.00000000000000

0.00000000000000 9.17668932995182 0.00000000000000

0.00000000000000 0.00000000000000 13.43101242835467

PRIMCOORD
 96 1
Ni 7.234342236557593 6.676766581549734 5.008156279443156 1.9802873089714799 -2.1585853427868567 0.8667376447225525
Ni 8.069420982537101 3.8513005862518535 1.4965905041174612 -1.3372541512235616 1.4889237838181324 0.5081199186760798
Ni 8.67283420167867 4.6180497020933045 11.442255401093908 -1.128906863431288 -0.07760694915120182 -1.2719571297879644
Ni 0.5763786918266708 7.641704660873817 3.94529282862213 0.5635994398006229 -1.7159552782834704 1.3648755124852558
Ni 5.296353884377057 6.707848028941302 0.05053878217288962 -0.026030105515174526 1.0985297938013276 0.9536321898232674
Ni 1.120024132148848 5.239944773920616 12.977447649661508 1.1163904761318322 0.12494121546079126 -1.1242135717206767
Ni 4.025520036718018 3.167719807496253 10.86896650062736 0.6043650517537591 -1.1321117435218309 -0.2754895899667255
Ni 1.4691421081053806 3.8340484099612877 1.4407586074315937 0.7477264215929509 -0.41142227144201404 1.7656300198007786
Ni 3.7471818670003865 4.878511680633265 0.729080640715113 0.5435458635838575 -0.6561825506456828 0.4274484716669413
Ni 2.740489850377329 6.542300550068001 6.797435460343774 -1.0181781920254527 -1.2859105066442629 0.9290768690814064
Ni 5.117949863491478 5.220838906347766 7.798153452091747 -1.6305792267098111 0.17230273546389033 0.5483967639182555
Ni 4.231545893047534 3.1130450913583854 6.037428458289918 -0.7645103259195091 -0.8431585718510318 -0.15538564799357754
Ni 0.3010137695123064 2.981203593078302 12.932614933029829 -0.2592890689474631 -1.9537962046594866 0.017370372957647505
Ni 5.433967520362867 7.506064013134003 4.015174236957389 -1.5432946452595293 0.2655281078786395 -1.5763420626328013
Ni 5.388579614015453 2.3835625116424604 2.103658798693355 -0.7939088336862843 0.9285042844073879 -0.0601293611917287
Ni 6.486056620022854 3.3706347660797578 12.112906224321101 -0.5747662550507198 0.3167007740977126 1.2445972497177726
Ni 0.8846961885249672 1.2344482737270734 10.659294745553035 -1.0229205918064448 0.5885095727787414 -1.1496199276089234
Ni 8.944812925561536 2.633691537787114 3.667042755123854 -0.007660087648419065 1.0586578973070542 0.43493115319723163
Ni 3.9986323364353815 8.38401625253347 5.885012822114383 0.07612033730334633 -0.07653685601547464 -0.4808271443983977
Ni 8.535339862656572 3.3913740843865012 9.132658842290391 0.8950249217030197 0.5528961944505059 0.33635145844910463
Ni 2.3000913438025745 8.581783088298355 2.557721395957818 2.4901424651711115 -0.9609742320106353 0.40765766219325916
Ni 5.777120648133831 2.8241996121446373 8.082151803903008 -1.0721554175728567 0.817363722275115 -0.22705206329062835
Ni 8.331121814161758 6.084383743206709 9.429860614977645 1.0961078146233962 -2.3564237606280063 2.30137875593772
Ni 6.354664779529067 4.2772458068385015 9.978853312280947 -0.5952121816098975 0.07650214612279728 -0.478142398477383
P 4.852807773298226 1.542252793481411 9.650867416942452 0.37310254992620906 -0.6705043665849937 0.2601164499447649
P 0.5818782818537644 6.148510449546323 1.3160189491681422 -1.1531654788683368 -1.1137604947081527 2.44967073030931
P 5.982201305443173 4.6690078589770865 0.34497011229518393 0.2880013492804911 -0.7912225451033729 0.4741751862995188
P 1.280506078409174 5.948449441402375 10.414420291825392 -1.2662487665492774 -1.8193755889533505 1.8437833283737537
P 2.558525273959442 3.5558295372073676 12.955783321051525 0.1445582183607704 -1.7872046606477607 -1.5091542519323944
P 0.9576793179167215 6.23847871356372 5.423966764128048 1.650867287534886 -0.6231549307667527 0.06787352391352182
P 7.934551176716654 8.998001017997769 7.754354948368549 0.6086094288524099 -0.4375410800162529 -0.11187718318798151
P 8.02186737746385 2.36274060313007 11.169391126672723 1.8025947699505858 -0.6221748262416705 -0.5093303940444132
Ni 7.093507582551576 6.885784038661551 7.8628637958845955 -3.0425707188462634 1.2055694463913496 -1.831645407459639
Ni 2.113933020275758 1.584162734502163 6.018840156005786 0.30166933368588694 0.9630244296714446 -0.5880994818245162
Ni 9.112232449096153 0.7653570120418339 5.295338024847607 1.638850465579668 0.06926577627535813 -0.7217585367742796
Ni 6.427004622985732 8.418438014908956 1.4370108474331538 -0.43298714209698336 0.4325587963103131 0.5132598110058063
Ni 3.278904577675239 5.1284021128504955 9.835772204681348 0.34043951247554916 1.0315052481516622 -1.354270226165584
Ni 2.432676153933475 2.3009355992380702 9.006944619600315 0.5613474105416525 1.4239214108048186 -0.09840408840221117
Ni 9.216699882549237 6.715666568409154 7.3491279397027585 1.2241664926672466 0.9856043718544896 -0.40909568019136644
Ni 1.8619227727802707 7.250089435767491 8.964421675719876 0.9279345279468469 0.21157479359063563 -0.45001710099607656
Ni 6.204442372147917 8.48844697922849 9.67003385066611 0.9269914473072873 -1.5069665002524562 1.1924601627029012
Ni 7.195212832460267 8.867508493076574 5.598919432086562 -1.0520720165594204 -0.4372256056583631 0.6257525162905997
Ni 9.366922289930386 5.228730859331748 3.3667521087454286 -2.746277561870625 -0.8320148965293863 0.10442484067499436
Ni 9.182195529968105 8.105641376057774 0.7069776663462531 0.026958016646082605 -0.26784878559201614 0.773283701236765
Ni 7.766773762290902 5.874210023215845 0.09879991000784392 0.8109637322860421 0.5230765399859121 0.7384928188098249
Ni 4.269454797439198 7.683614601894568 8.269595781631052 0.6309242902995263 -0.9459538473424031 0.14124895148187933
Ni 1.5915683229417834 3.6237186862486466 10.858785881278022 0.49461494221110947 0.438265102666471 0.267502715106507
Ni 0.3629802831397926 1.3753930480072856 8.076175026021069 0.16458839753876814 0.04607802530498516 -1.135123019544329
Ni 6.313966161524461 0.8958642196662536 11.6199344635077 -0.13434965325888476 0.0007913855530437984 -0.16579861579678543
Ni 4.438443534881095 8.98998059136056 12.991899100311711 0.0023168210586347196 -0.11923388066336886 0.1027641651431198
Ni 1.2055784085089245 4.859928884362842 8.278191586700931 -0.05766187348784263 -0.2879573834164331 0.5222170201990942
Ni 8.661244042819636 4.868674269471836 6.0774929670489515 -1.0370688582823688 -2.2039226332710755 0.037595955975903
Ni 5.911972100575247 4.620362227851401 5.511361884405086 1.281513920238464 0.4424115207346768 -0.02983508108356152
Ni 7.408167089374558 1.3650600956119785 9.213983582452427 0.14401211604931327 -0.09849099168906263 1.7791244547427876
Ni 7.223981754093736 1.1521425454557521 2.8532979769317413 0.40153072335991496 -1.3651925295050422 0.7242782178723398
Ni 0.22115729967287465 0.19976276573466992 2.78833160350139 -0.47995245510292817 3.2136722349132008 -1.4881223709627596
P 7.24391352372305 4.073835307021119 3.7115662173188357 0.8964002047839917 2.0136738548517257 -0.16564306405552764
P 4.073642596541277 6.832182995197087 2.1633733527135512 1.8273174695082466 0.6645939146378297 0.9978819036702621
P 3.6337396312004007 3.7154947581007467 2.666834987312985 -1.7009148390105804 -0.15562553191852552 0.8547961560899602
P 5.391470271213074 6.804386802652339 6.285015541438569 -0.09774408622070908 -0.5268020684666154 -0.49503197514387
P 3.0598478222326357 4.148083901897165 7.501461903341599 0.7327500027887768 0.18304763268522023 0.4700894462659194
P 9.042462078704041 2.025221962722088 1.6076119292230577 1.1731599197123925 -1.306185454843215 -1.399058843235184
P 1.9292888505191232 0.17218864907621684 9.091062744051095 0.29279774222787 0.10959712890455318 -0.08341481408223053
P 5.541637618457126 1.046674852845395 5.85594841107849 -2.017684775783332 0.8557302378684553 -0.8976111943729574
Ni 5.7545092851657715 0.4859919707673325 7.808844295378188 0.047024191268338365 -1.0922930688629962 -0.04697919696301586
Ni 6.774782802272891 6.017540736770284 11.480145034437585 0.2686779663615308 2.35725834071416 -0.8555440899995781
Ni 2.4108815163323616 1.923241412127909 3.2328981624544295 -1.2370929709209275 0.5189854006356739 -0.4665724342515965
Ni 5.329637737252525 5.033570203389482 3.0062504494439772 -0.9531220829560683 -0.42309636534583267 0.38759817243922284
Ni 3.664655898180675 5.490275687234627 5.120613856458047 1.1387284775074002 -0.609035460646235 -1.222460051499101
Ni 2.5147432882773737 6.953654834323798 0.7713695790128863 -0.5458218041022277 0.42467270869401696 0.2386109717728213
Ni 7.438496048225792 1.8696495453529602 6.64073614550205 1.2297406443209142 1.1540936471095606 -0.3472310814760859
Ni 8.869206180637082 8.283531502330442 9.679072889839624 0.12602982053927972 1.478130035636738 -0.46519920805315373
Ni 2.015779149209858 0.9228078977549398 0.925456290349332 -1.419752881249426 0.8917022850876902 -1.9022553564677176
Ni -0.02706481039030076 7.080724454055428 11.909453511731941 0.17771593605966168 0.8971280840889516 -0.8534699810793688
Ni 3.0354470048089053 6.822033576592105 11.937551617361773 0.2244706757166973 -0.11964422872791007 -1.5758941764621053
Ni 2.285500407471724 5.909953228881671 3.1763541546621004 1.7688012184399085 0.33348005043858053 -0.3582739695538088
Ni 1.4688851607989255 8.531109408789575 6.956042608935928 0.22289356103756452 1.0883063163011062 -0.6637079124884505
Ni 6.102737122239226 2.455902355099125 4.361896179281226 -0.5303095673992415 0.30158165906808704 0.9115044074152818
Ni 4.00937823985892 8.76902426118809 10.512695295192906 -1.397573002718277 1.1249041700297981 0.2802127064740077
Ni 4.750762985877432 5.142121263677303 11.82371019556783 -0.8506219701076124 -0.935848383477285 0.11789073637191311
Ni 8.828691096422801 0.4976289307428997 12.454161612700103 0.22365100802887936 0.6197901280595778 -0.3427655895055645
Ni 4.573533581249935 2.2975585774960874 13.220347279805255 -0.22122928596126412 0.517847687486805 0.16714433119140246
Ni 7.123570417406837 6.327272361323036 2.4210070755446007 1.2426108154153632 0.011257832302006417 0.282480676572578
Ni 1.7543903250287551 3.8104184344569227 4.644927308017473 1.7207704402839268 1.555937273724204 -0.6066417636030778
Ni 2.8109117657250957 1.3528459218658386 11.868018923228133 -0.4630111992628994 -0.3450163332129542 0.7411886204744332
Ni 7.128167938854483 1.6371214097004898 0.6107995365332043 -0.16941255840028888 -0.2552686349341604 -1.53853347642546
Ni 3.5149290320334035 0.7394301111515491 7.549504625966066 -0.11784162830153254 0.49506899902939255 1.2010602456670865
Ni 4.237877808813753 0.882229494382997 4.069636971567431 1.3872927038381915 -0.5119182093762474 -0.5056843126513936
P 4.059721558545113 0.7427006832951437 1.4728449023251908 1.0134427342229964 0.12976049122630556 0.9209185016403302
P 0.41363010325582894 2.87380879566953 5.823633616615939 -1.9148097960939607 -1.505322279780814 1.6848457013628595
P 7.707556584842487 8.22025822811584 3.537244905599041 -1.5776785220560376 0.5423199615965564 -1.1078988937210534
P 2.356583044464661 9.113801663003432 4.608838141156884 -1.5549160315485415 -0.12910948790586796 0.6800362173348289
P 7.149182557846714 4.559474892911027 7.9262178249669395 1.056764279828767 0.3882412053398604 -0.6039914704644244
P 1.8188749222595026 8.39078864939647 12.717006777507436 -0.7639146013170393 2.228463298724917 -0.6243124414099636
P 4.8645539358790355 6.790869538994891 10.274214241051236 0.07127535050621919 -0.9523664357369661 0.1291112876780809
P 7.228120441065569 8.313686104080867 12.880261001670622 -0.9917089420903309 -0.9363106678256843 -0.4597325285116276
