# total energy = -381160.9706510743 ev
CRYSTAL
PRIMVEC
9.37320853573807 0.00000000000000 0.00000000000000
0.00000000000000 9.37320853573807 0.00000000000000
0.00000000000000 0.00000000000000 13.71863815049932
PRIMCOORD
 96 1
Ni 2.261117825295622 7.3528508760216384 2.242997538684138 -0.6909271532157197 0.17934318725043952 0.21186018604153836
Ni 5.659552646544911 3.0068784106822855 7.624763904412133 0.22903386960734748 0.14250827781027717 0.0780016134864592
Ni 7.725482778690552 9.003032346542838 7.036742232380881 2.2153203335850558 -0.033403772271426345 -0.7897143359889626
Ni 3.9496169720364303 0.10692487560547442 0.9379788460937933 0.9589895974804388 1.1243392986652636 1.3287000910059634
Ni 5.171161619288873 8.316810381348677 5.336399099419158 -0.2519755660051854 -0.09349482402605189 1.2511296515196517
Ni 1.6863714284184375 0.702548219704756 10.07000153829802 1.4531797934493038 1.0212475749793961 -0.12106476322452053
Ni 3.2891713301309005 3.5955252757183933 2.249019825125209 1.0598197788256394 -1.1578621130130573 0.3019084462798865
Ni 3.2844003670203867 5.845235906307738 0.7990500874931551 0.6361767969477172 -1.768720485800644 0.17023274030873908
Ni 1.5461482297282865 1.3656483542485915 4.83582008919141 0.8781551425308747 0.08816235606954494 -0.5590894677454112
Ni 3.4878364836227287 2.1150832373549435 7.738642763380457 1.140933712688835 -2.120326299305658 0.734149968460097
Ni 8.546903902835698 -0.004062348550288198 9.481828957610423 1.1448135073592156 -0.9234785490580225 -1.2886731569910646
Ni 5.6194446875078015 7.411508414618093 1.2493258998325059 -1.6892523150709875 1.263231062768876 1.1980739093452526
Ni 7.837098945134557 1.6897551566755997 3.1762072963091112 0.7265837260770648 1.3363920603335822 -0.5240736137918587
Ni 8.180870738928673 7.023898124816368 11.399762689282912 -1.6632823733697872 -0.26080550559198956 -0.014828837482716397
Ni 6.427940157174757 0.4507547832920959 0.908496356176681 -0.7224725321221687 -1.0891907757885886 1.4564867463353497
Ni 5.4084725112967105 4.131410350284791 0.25637693535380207 -1.070628696515685 0.21039517146023767 -0.7973795658437042
Ni 3.4807972040628155 8.786895532465552 6.893011579081782 -1.549610560175228 -0.8415428906244796 -2.3180122507293435
Ni 0.4645558954412522 0.2383728765273287 2.6095452917360884 -0.02962013685927802 -0.1963726319289005 1.1975200937243118
Ni 8.804676508930473 0.6715772642828312 4.978137262653444 1.2141019093423928 -0.13071411338882652 2.2861213155580176
Ni 2.2516415115338746 4.864723314825163 3.768565014577935 -1.6709440036801029 0.9960422793583619 0.5678669568277253
Ni 6.515888972235566 4.84962307598226 12.06303154157918 -0.4961401206063842 1.710193950319661 -1.3954819245172032
Ni 6.569766174513038 2.091069077258408 5.5542652704589 0.6714875564338694 0.8688346364608973 -1.8810594391163926
Ni 8.12020733371994 4.214100795394718 8.624097898499643 1.0003704744200708 -0.8239647725314003 0.6319519602330923
Ni 7.080596662842886 6.057614063789117 0.438323096900201 1.0940743291331352 -2.3764004608602494 -0.7705462477009439
P 5.364615268872164 7.3566376522429495 7.811213892627691 -0.764921959535631 0.7547403910169388 -1.3024139036159248
Ni 7.080137375627926 9.160586607691418 4.061745852983668 -0.20720623220929477 0.8650029214196329 -0.3664295087814076
P 1.4573277062798995 2.6699584322787104 8.3451708982121 -0.0061824746616280625 0.9674564973008692 0.01371632114482799
Ni 3.6253883178993305 1.5157977807069825 11.905747228834498 -2.2229765645787327 -0.27220809100197635 -0.23312243785442432
P 1.5371968156407805 4.770728780302112 12.419414050046942 -0.7540140543738756 1.175728194660201 -0.014026653296395198
P 7.180008911860783 5.555266329123345 9.929234693516692 0.01803243202167862 0.3080893782796178 1.1061626277562369
P 3.3100360921819885 3.4571860919304296 0.16468258618894438 0.6112355536213474 -0.11122360876438264 -1.6535839151351006
Ni 5.8925706090741325 5.101715517745068 4.8068053223768805 0.7682222275534577 -0.5101166373911344 0.48806325713552073
Ni 5.303005169608102 6.8337813374478955 9.968099765110866 0.12689988184905887 0.043658874340531256 -0.2584118085488324
Ni 3.829602410804566 6.267733278029566 6.3079808978728575 1.8791542516738797 -1.5845698498592324 0.15889931757379086
Ni 0.13366757668721707 6.9148877103266315 9.537471135042534 0.9000174898216048 0.2596413100805593 -0.2958172457804841
Ni 6.286329723631255 5.266224699577343 7.806220784476472 -1.295520518930201 2.249025439146985 -0.9182728364873669
Ni 4.172352524875605 6.238779437070082 3.5731842333335018 -0.5430637817411164 1.375580814717902 -0.13585966214550793
Ni 6.629651603418878 2.633337306791918 1.3760338692317926 -0.6387155042091709 -0.615931930655752 -1.159976331142583
Ni 1.365826445209495 5.546080584824124 6.171301709304682 0.12966227508554443 1.1285795619988563 -2.0481446349350856
Ni 1.298067521190036 0.7209478279286041 7.208733109212787 0.3920482377907764 0.8094362398979221 0.6513537617984718
Ni 2.169007305674759 3.281963332818552 6.358493118310106 -0.8634152652175389 0.4441891814603899 -1.8030177164206174
Ni 7.595242047019453 7.263777275944599 5.333531834948617 -0.1040916257052917 -0.01763571080389221 -0.10679385512780318
Ni 8.33924984242249 6.801190691602598 7.409340391499308 0.25605307850866865 -1.7441001161488026 0.8766248219292774
Ni 0.015085241709353544 2.2096870304284524 9.794490135176433 -1.3292824458719945 -0.32879215804460793 -0.6654770885737313
Ni 5.624131291742098 1.8232108988514264 12.887192454559697 0.7384272556792121 0.9384953341818288 0.19359121252902145
Ni 1.88121231285508 1.3973297988724358 0.7540493136354401 0.7311939711555665 0.5159247594324792 0.5268516907576282
Ni 3.1491543420270585 7.863297062804275 13.45688669207231 -1.185161829269275 -0.7659154337971519 -1.3240093703985134
Ni 3.0089498897538447 8.152769859939832 10.85291096080826 0.2958329295097679 -0.2359521939937356 0.3142338006144588
Ni 5.319548882555169 1.5838097813550933 10.234254831539104 -0.9468388210505175 1.5063602341270252 -0.8974849532077381
Ni 0.7809569831862301 4.209217353782582 10.421033819371909 0.09637034580163403 1.5094036489390392 0.7212957382052481
Ni 8.979936760876225 2.6849180729945847 6.972991292302592 -0.30343362467516133 -0.5160823680562661 -0.5161085933085111
Ni 1.0042174356996463 5.095248003901739 8.221703246980406 -0.15466522488778525 -0.8869285178481304 0.971352489921166
Ni 0.1574642783472809 9.391767421360797 11.5781601541031 -2.3857312513428717 -0.8813751921300691 0.8154351377938344
Ni 0.421122322039486 8.667368378074055 0.6048343960613679 0.969137741658034 0.20798424802589988 -2.6197080667777914
Ni 3.1630266905605757 5.567395260881704 10.599884010161134 -1.0835957981993145 -0.051890261111388045 1.2744703831281212
Ni 0.1867414949989311 6.1430977250226855 0.19664991367108073 -0.38558165622982626 -0.6357877890394148 0.3560404522375998
P 6.711442220515821 3.5482655586197476 3.248655636525407 0.27885670666674556 -0.006936064998200958 1.8573631239407171
Ni 1.2320801335711418 3.792840687190744 0.8233623156189915 0.12216750937039605 1.5867912829905833 -1.094778040068379
P 1.8617347856573436 0.3250675562950389 12.624096803375608 1.5728692735928524 -1.1022272972575728 0.35509917137025293
Ni 8.293846020600625 4.181032115917523 1.6921256410973067 0.8196990552765109 1.247879005792838 0.7165818776693466
P 0.47340045495221655 5.997231854834442 2.3120846463435965 0.6205300915493959 -0.1880142326618762 0.8870275053198401
P 4.931263721743704 6.942688646644478 12.066351532018757 -1.0606440744991477 -0.9019221630434855 1.02524666883646
P 7.35757497308981 1.6123137083080845 8.456401825788046 0.6121212986604103 0.8908731043181753 0.3826043187690572
Ni 8.493645332317154 3.945914554691336 12.496595860539879 2.3995151925008416 0.8206539629906124 2.3975408423832905
Ni 6.311440549118615 9.059768377403232 8.970974098938557 -0.03553213146833881 -2.381694362269337 1.0912617993850044
Ni 7.80943860694374 1.0849863730735119 12.935399803034517 1.000071198012097 0.7477433908738154 -0.22594031828368832
Ni 0.8249323280374807 8.007241425256456 6.51679161221109 -0.508570375949937 -0.4650171739493346 0.24119852999433944
Ni 1.267192172494491 2.531075602399569 12.240234859640474 -0.16643393538793919 -0.4729626540486564 -0.31111402403855454
Ni 7.400138712745689 8.137763353181615 13.369485272386067 0.48133339461085495 0.5467546003291422 -0.7527660408993874
Ni 1.0020428513349326 6.98125002628427 11.977537569816297 1.549146733164932 -0.03313457777043971 -0.7398981837977838
Ni 3.8331079907718197 1.450935178104319 5.517279527162679 0.9063092363675875 0.25102554338709027 -0.7143730429434858
Ni 3.825093897531173 8.898005545652254 3.4039509544330557 -0.25638475081647455 -1.6451219004106763 0.299854134854019
Ni 2.9479490490402416 6.679976359686755 8.404847304569092 0.33329878766570986 1.1955393158488572 0.5086279686607499
Ni 8.25956819723098 7.715462818837627 1.9660867155381894 -0.5583615884404513 1.518440819440643 -0.9015228707225378
Ni 6.864347370263978 0.2780121751410084 11.037864984952229 0.931289560462009 -1.0665087608100408 1.6186426231732252
Ni 0.2038982157798437 3.726909538822661 4.733410288105257 -0.5409390220886298 0.037465601045625796 0.4107409291042733
Ni 3.3652067972281268 4.5052982628884966 8.184223535597889 -1.7413456933321172 -0.6133032347836533 -3.1818232087234044
Ni 0.9087072533672244 2.5042682261793927 2.7223949724145604 0.649662747249294 0.7521428054930918 1.640656151329839
Ni 7.904192371352746 6.117546358737301 3.34092737533193 -1.150968728327334 -2.556332173624307 1.068900658080985
Ni 5.618751070081125 5.014919607325897 2.245027775638435 0.1549002237167268 0.8400951024343596 0.6977675731763209
Ni 4.899301080865803 9.023494060629778 12.320201450369426 1.3775351102307953 -0.1982222835431296 0.22556776543561796
Ni 5.198128340053016 1.395801965892055 3.339362986838522 0.7319601598976296 1.1482618709191321 -0.46235299685361014
Ni 2.9860136486311974 2.910559320459024 9.900302410936686 0.027834505713764966 0.07814148149843315 1.3601552241914512
Ni 2.5766293955569304 7.520368857772332 5.0603937282112765 -0.6146852027328447 0.5190687043780996 -1.890853542388679
Ni 4.483196237319554 3.696277893547299 11.869516966140846 -0.9944913899314743 -0.08984154354418077 -0.5215444196121019
Ni 5.850494276258618 0.6850156332642529 7.129754454656422 -3.2725618101605574 0.8391355667345678 -1.7778980385348542
Ni 7.564010516402101 2.712381573807563 11.04964991995979 -1.945704685900604 -0.9627482931919225 -1.0627469797747633
Ni 8.948114718125353 2.0630244375203777 0.8661725706575962 -0.2626749547005605 -0.6144905702235351 -0.14569438884774263
P 7.664341339849921 4.5379826408184805 6.230538512184496 0.8472818499907859 0.001900559456822533 0.05952360928692974
Ni 4.879476744954728 4.465574605398599 9.543782116304437 3.2723481514878547 -0.8041582793284343 2.705080004586393
P 1.822095487043664 8.356421560336953 8.948955494924986 -1.0571566301711794 -0.2180074365898568 -1.0435318402988931
Ni 0.3677718940779485 7.675814147015479 4.132424531441093 -0.08574320510509105 -0.20190230349787808 -0.2757940085810218
P 4.316503097914097 3.916407694432205 5.881482103455786 -0.23195258591603923 -0.4186054194540145 0.9604250443753847
P 2.932136446353725 1.3207881785179056 2.917419571737187 -0.7157534682307801 1.1869040087713623 -0.17945862978238125
P 5.953787033582513 7.6336159624898725 3.519406387065797 -0.6830742328302043 -3.1564032259884027 -1.9989041527417186
Ni 4.061561200776836 9.298700834476136 8.776663738101236 -0.1318284294989278 0.8635371355073836 3.667616953098458
