# total energy = -340860.587557784 ev
CRYSTAL
PRIMVEC
9.45709180756205 0.00000000000000 0.00000000000000

0.00000000000000 9.45709180756205 0.00000000000000

0.00000000000000 0.00000000000000 13.84140979785830

PRIMCOORD
 96 1
Ni 1.8235731300048101 7.418615445179972 10.148493809940485 -0.8752261418095378 0.6978092250475337 0.9013745180701316
Ni 8.019991895124512 4.322789249683905 12.189769186803659 0.9403005057113677 1.7085494727377026 0.7047414333909927
Ni 6.066894439621347 5.464193996863593 11.013595442639836 0.8511019950678246 -0.13620856084449445 -0.7881950711309588
Ni 8.780691965956231 1.6609489841761216 12.599059813698055 -0.07965868947390797 1.7317796469102367 -0.40548508002197264
Ni 3.028794330781381 5.201636764911867 2.769153665855333 0.8124318321911362 0.1826804791537886 -0.5953973010375101
Ni 3.039764556948006 2.202272902949914 8.98852857493785 0.5708450656194427 -2.2992419121003755 1.7823920697504658
Ni 8.159030054694957 9.351512553190112 0.09192765814885834 0.9180260105838834 -1.6412027678619283 -0.8246970227117345
Ni 8.557249264543437 3.8773696960443726 3.1882163054203976 0.061565836527939136 1.0953205428354105 0.570281994027121
Ni 3.0602769884612893 6.125528407063651 0.2209488663781927 -2.3245611075914545 0.9700643672373616 0.5646484498904275
Ni 4.643299538488283 2.28544802289428 0.0524972607530608 -0.7759692184887281 0.5127898133479233 0.6152346474784114
Ni 7.670675305541222 1.5726481206263154 7.977884195118567 -1.7560585740622596 1.6976608508496571 -0.3927673753449881
Ni 4.873853972726338 8.527799881540961 5.713290950450702 1.043837287354454 2.9298689828744573 1.2160083823364864
Ni 6.655286302904873 8.079089260051441 8.822666320971702 -0.2442386023722439 -0.21042653891880533 0.45064187906426906
Ni 0.7442201431438216 7.192486929774659 1.4517420426328265 0.1225061236567374 -0.21851471524357852 0.9528929976643975
Ni 3.438560649379383 1.0296786679275292 11.528177543714175 -1.0701579275268538 -1.6947130810752427 -0.5502286749206717
Ni 6.094669917424258 7.745386328572545 11.93263748825865 0.6478730023387229 0.7779425401650151 -0.971310580939637
Ni 8.503277643221947 7.123563646755382 7.563237071585569 -1.6362742202120593 -1.6241213868996094 0.26633106339590906
Ni 7.031357004406596 0.08377091671031192 2.045621856127122 -0.8406072661840878 0.7780368996510343 0.8227872072835314
Ni 0.7040842467204118 8.51328324605323 7.387146027428196 2.6059963736186535 0.7530977132071933 0.04971459361630793
Ni 6.055186560315931 4.923276733025288 5.953992843892884 -0.18224904804332484 -0.06611643201309904 -0.13617436517244935
Ni 4.792314929615444 2.7130787873791395 11.650605267733708 0.5246672815117996 0.49535027771523726 -0.9336408343030049
Ni 0.14207388594931317 1.8048575458808873 3.5133511119795 0.5542493660442906 -0.6595581519861351 -0.2983212431492604
Ni 6.178819117795488 5.792913041109894 3.1714819819705338 0.5450581864633258 -2.8783618161341007 1.6830353876269983
Ni 7.976215018464766 5.677441953614646 1.4972117386751813 0.17480956104614412 -0.0032169642754009114 -0.4885114004165329
P 0.577464194028755 0.33026055016454203 5.188411022417019 -0.03802841552763128 0.47974882373255445 0.06731688007910343
P 6.773377004751979 2.8163029413521645 11.845865836408104 1.426711571955446 -2.1997980695797406 0.20062832188146093
P 4.948432596476342 9.058210316697267 10.735217442279364 0.20305415771413418 2.236933540979457 -0.6567263389642948
P 8.587795670162572 9.376971043569899 8.619945052794849 -0.06154989568833915 -2.411862658322601 1.062512495166454
P 0.7476228046737798 3.9915829903670677 5.969813612301632 1.3707306857144523 -1.5853332103878184 -1.3333507024040971
P 4.5544690778131915 4.000727997869763 9.882960431286484 -0.7252590937283704 0.5679080944783058 0.4841883475611468
P 4.8005993417895505 1.042199857103918 7.2000242317184515 -1.6643252128120045 -0.4940395293236136 0.8110874023481001
P 8.05246754741433 5.9500047883976555 9.771274071818723 -0.9875635524633893 1.1539956880791158 0.6540246237624155
Ni 4.384506228962692 2.4536423956299878 2.7128612742741116 0.7557071258055824 0.8803356951219612 -0.7585386817171066
Ni 2.8637491695228166 7.418142590603825 6.293522289459072 -0.18265373968091125 1.4630500013751642 -0.11272873255499939
Ni 8.513368359876937 5.278655318274791 5.751188353310628 1.0303644496789996 -1.8661195299771087 0.47538154790279413
Ni 6.552251290762308 3.765520674602415 0.4894215090775255 -0.9505553506701565 0.45505749163346143 0.19222852785353992
Ni 7.422275339599355 7.004158409186585 5.212120896574212 -1.8290676194301339 2.258580172714956 -0.8048054259941302
Ni 2.5295922976508183 0.48491709638514335 6.240676062028815 0.03140988176984913 -0.5409400505298942 0.22853687536627093
Ni 2.0796806255378826 1.9975646998440875 2.0413585992685754 0.11606293913455495 -0.30000428727863815 -0.49988338969890034
Ni 5.827809708829589 0.3451242609111662 13.319048051232615 -0.11881453373776311 -0.3047289464478171 0.10721603026688632
Ni 0.5272574408425533 1.5436432209254207 7.655766200755288 1.6303745668981728 -0.8954923482577417 -0.15668405509002692
Ni 2.8486556514521846 3.862834146373595 11.433363581232513 -0.4198423771849092 1.0187083534973103 0.44274807813848915
Ni 4.407799045383724 6.708964754389151 4.6528313410342665 1.760468530204497 -2.488835059213598 -0.776498865739953
Ni 2.081269416913739 0.08649172194146532 3.4079348041914543 0.18768101769217355 -0.6765837400098541 1.3894436887429231
Ni 6.5066302812555845 6.466711897937204 13.626452702604487 0.44482758637533715 -1.1006422121586399 0.6417581476902368
Ni 3.2467992045684784 2.7392560167146716 6.765528564497081 -0.04567667610150843 -0.7390327504736949 -1.006113547551435
Ni 6.0505431283781625 2.1040231791179624 5.907831834460202 0.6363308060270783 0.5512342333670507 -0.6174671363533559
Ni 8.12594914854767 9.22421064419965 6.235665694939954 -0.3947083011214428 0.5643666569839506 -1.015736929573812
Ni 5.714126011632178 7.438097053717255 1.9756393788572748 0.3838219932262422 2.1444252492363907 -2.0914625809964305
Ni 0.6230984434636093 5.332589111230189 0.28719011824156015 0.5130219839633874 -1.3208721103211123 -1.9345283575688106
Ni 4.816988481398827 9.064225026905865 3.2029854452517923 -0.6225802892102051 0.5001860085409837 1.4296845385408412
Ni 0.5935762408564089 5.665421990288974 9.105959171796654 -0.7439584699100864 -0.4535081448684706 0.404654099480245
Ni 9.262795577613295 3.696342050112018 7.844134441127757 1.9353606236621184 0.7938820942134069 -0.30621452985440806
Ni 3.028992929703363 9.073057950388304 8.972153620965859 0.17820778809441568 0.5173347524061284 -0.3194845074904369
Ni 5.674141428673136 1.489936398166574 9.240358627975091 -2.1764532242062127 -0.16186611351159866 0.06440176331483748
Ni 3.8179697041887084 8.217872078150767 13.09705985049605 0.19871002181282552 0.513714896265354 -1.1412484157157765
P 0.6460971443382771 3.8364110326584657 12.145061732338052 -0.11144009565056291 -2.5000401839007975 4.917576752679724
P 5.855982384476463 6.949666647831335 6.869353243781814 0.5096525532705223 0.5971731619910103 -0.24984849235985357
P 6.782503098071628 0.29804496789160484 4.249603655515234 -0.39039347579617284 -0.09368328588777414 0.8435637777092504
P 4.7885415500977855 5.743755079373588 1.2088773123593441 1.5029645781819148 -1.6260214321357995 0.21232684126531173
P 8.544293049156991 6.627359511637595 3.2751269765163302 0.05677998510352157 0.40166056406955986 0.7616278621653916
P 6.742896798773504 2.922770877717562 2.619002478036266 -0.392325402711563 0.27862864981633945 -0.8714299079918992
P 2.8001786003055305 6.2624103497668635 11.97670848046476 -0.11451153548703505 0.07102209684483252 -0.18010989021313498
P 1.261282839324632 1.028118247826242 9.709070052326503 1.36620348726806 0.06106961361781095 -0.27581457740631204
Ni 8.43634034942249 7.848364598165973 11.24550886092974 -0.34407299546307835 -2.1161343727114974 -0.09964027480215742
Ni 9.338017283586858 8.812694763669901 2.628732879504232 -0.8298700822722418 0.9414695863188044 1.2862223814577267
Ni 5.1505873848709705 3.483680433035389 7.943889733930163 0.8774786852891403 -0.4186285593824662 -0.6188069382107021
Ni 1.2705980744747403 5.917954705226371 7.034121312258756 -1.953980809866467 -0.8839529801595745 -1.7453003071044912
Ni 7.111657168527985 0.37052695445096856 10.60874775734292 0.8777445373560174 0.10890267394068986 0.8169744572564961
Ni 4.629652955420664 4.887292499780454 12.760962383443543 -0.10312591935791271 -0.08267922146778664 0.8778198706786431
Ni 0.5835545609695364 9.366785755999679 11.368309194355275 0.6916357492469701 1.3733344418858864 -0.0370609094080394
Ni 1.2502558706088696 7.976016419542784 13.156328388779546 1.7995259012172748 -0.060628926535966556 -0.6218297841974258
Ni 2.5455558681415615 3.239261902624685 4.620165601204838 -0.3645261211111077 0.36011873607203143 -1.1484400483682093
Ni 4.109134637997365 7.184495687437764 10.594601839842888 0.8840414261083227 -1.1361892560253142 -1.138784270446
Ni 2.614110324591443 4.241496090952607 8.457890223875841 -0.5042617212722542 2.7380142934205685 0.4780621800587509
Ni 3.619493724396508 5.137044829810103 6.45603484160779 0.610279103245349 -0.2182959143645531 0.0837382588599203
Ni 2.94525038426762 8.314542467698386 1.4297902417897494 0.16231399968229465 0.5239039209832138 0.7211180749768032
Ni 8.36336943123139 2.404720861181755 5.449099533083809 1.1203867417754187 0.12615169082912467 0.7482396137839437
Ni 2.848948821289396 3.7414050912188865 0.5969145941640112 -0.4650670533506636 0.38852891178360827 -0.06681782895549783
Ni 5.422422023606712 5.785006912596706 8.610754651252844 -0.3809307877213762 0.10214864304630795 0.5191730911664478
Ni 0.961039097653941 3.2077792449447773 10.325926815384964 -0.7588037624530352 -1.3275726622697392 -4.01691700128843
Ni 8.846541694230549 3.429737182988469 0.8072753008731064 0.6589524000813362 -1.417500080659507 -0.012718476007932935
Ni 4.131585773272855 1.4470201168354164 4.749458227960881 -0.0010806346586884614 -0.6178970248019229 0.37619635836018434
Ni 1.876390986160499 0.8811994938897203 13.479179307735855 -0.2340282374981453 -0.13770519999467898 0.5410531790689908
Ni 0.4414475751998928 7.51233522217243 5.046923476142128 -0.3025954450445821 0.4618580594950627 -0.6166580101884993
Ni 0.743273488282374 5.652844058563447 11.359713643870064 -0.41328914944742373 2.4951682005204767 0.9007181154330552
Ni 7.831294547967044 3.7995472899019975 9.547278130551835 -1.5500967557830274 -0.2843796933675038 1.249000778102107
Ni 1.844671901192517 5.562651776709051 4.856714885759292 -0.16563895029046954 -0.04815264844582674 -1.3391156299123326
P 0.1638866675470028 1.0730299754687427 1.2528234709573514 0.17448071695181563 0.38913980589472985 -0.5568742052616474
P 8.84498127412926 7.136378005768982 13.348226015708383 -2.0711963745482267 -0.8488679635309831 0.6763682815649383
P 7.300269401861746 3.6221227958398887 7.221188256837667 -1.0568828076845025 0.4159325006075417 -0.8259684332249904
P 2.7164171406867417 7.401942592825008 3.8303745711393655 -1.6057511119225378 0.8187153512070028 -1.451458696993139
P 1.2271143676522054 3.994174233444357 2.385207098533295 0.015081062702838544 -0.06458791118371457 -0.11033117885710032
P 2.648893507212862 6.678730432790272 8.319046880390768 1.45919103264039 0.5876929904147169 1.493019808264377
P 4.879641712738386 3.895262513205798 4.387325387945684 -0.9061775958857295 -0.11880836309017603 0.10100141681574218
P 4.430354208665966 0.6116373942469433 1.3688128070680572 -0.17674174507185045 -0.6979809747387076 -0.9395715979651432
