# total energy = -381174.42337747803 ev
CRYSTAL
PRIMVEC
9.17154465861600 0.00000000000000 0.00000000000000
0.00000000000000 9.17154465861600 0.00000000000000
0.00000000000000 0.00000000000000 13.42348268183360
PRIMCOORD
 96 1
Ni 4.313680206493068 8.982354228160748 2.242567450164805 -0.41171254898892323 0.7760584357684248 -0.8376417557978607
Ni 2.982852361789485 0.5032298260551259 10.444462648770594 -0.19478240462364518 0.038789719173688036 -0.010775236238633057
Ni 6.904329795629426 4.759087110852595 13.153523302072065 1.4945709548015806 -0.35299189521926305 -0.669327315557757
Ni 8.802170057930798 6.844788126427918 9.008794874824492 0.8002556018399186 -0.47237464275567026 -1.5077239472437711
Ni 4.476273353690286 5.068975268428159 6.261920859238532 -1.4329184720971064 -0.1496690572247745 -0.9854994708455093
Ni 6.7482025875552925 4.260852108125741 10.55083055738603 -0.09533470544826807 -1.1479566809738875 -0.3043216837070694
Ni 1.1973084946981054 5.086291145115227 9.705969857010667 -1.5401787253383667 -2.0010412536893796 -1.694825438283391
Ni 6.479256206214407 4.632785766648348 7.458436015306642 0.7286141262435323 -0.10927651234034083 0.7436270547125967
Ni 1.3403845944429498 1.4346772471017155 12.574863939662354 -0.45664309095302646 -1.4477938465470421 0.7539220088807016
Ni 4.979681107715607 2.1584497093686634 10.431629823208866 -0.16616654065916542 -0.6572073923657714 -0.9746105918471473
Ni 3.0239041965624294 5.463957019172484 13.180236343618015 -0.8627084689585013 1.0335433616276137 -2.131441178271897
Ni 8.886383182793436 3.434303314208746 13.133240430624262 -1.946752410438828 -0.6602706046721274 -0.6885717656096658
Ni 3.263043057123139 7.310565031911374 6.599829920656433 -0.4561728361848273 -0.6629700058811614 0.2869677658096541
Ni 7.475478579957018 1.6052679814128759 10.31679199291943 -0.06001083333599343 1.7084818527245607 -0.56598516642398
Ni 3.3384056412002785 2.4620278440836856 8.339472957209798 -1.0743315992885691 -1.2403503015159607 0.7258149662318404
Ni 1.1969049467244661 3.0688539378989343 7.153763715290365 0.04884838896127071 -0.5239784829748911 0.010345604900382182
Ni 8.052212835101573 4.306792376306634 3.1959431178062636 1.3248143827983119 -0.01361810500406687 -0.6644249931601331
Ni 2.7221603708184943 4.957348395992614 8.039162643926769 0.0382623859153083 -0.32521395377504636 -0.6886725528535882
Ni 4.207345315439111 8.979758680966658 8.219078087892454 0.11329771768459197 2.1285381456924894 -2.1910779160979232
Ni 7.134948291019433 1.8101052642142448 4.493685531598336 1.0891491239173758 0.22044818482086548 -0.15831336316333383
Ni 3.013384434613241 4.794149926834937 1.836869666411386 0.6502700418159898 0.8378731550823763 1.638241371240759
Ni 6.342957878117732 2.6760550148302036 12.29629935923157 0.5996756166978899 -1.4364182577202487 0.7569319993516189
Ni 5.01894449124174 7.962790272761045 9.962184299783233 -0.0619342756109514 -1.3057172569575448 0.7781865378550211
Ni 4.929320154914393 3.4652481065509964 0.6762721143061451 0.07637256252346847 0.08606382166930339 1.2681590961981126
P 3.320154266937956 7.545017233050955 11.293847672223146 0.3251859287505883 0.4077743902767816 0.6128908298365833
Ni 1.5034730050623613 8.135994897356005 5.128415133481772 -0.42234226078862747 -0.3825626668978444 1.007819217388632
P 6.619966047386549 8.814359041043677 4.445696340296739 -0.6886836085971816 -0.014354726059775278 1.274961720942243
Ni 7.09727158475329 6.764289477231732 3.9722767864852453 0.380600400965151 -1.269706900301207 0.6404761956540196
P 1.3133927379333934 7.54575095663939 7.645949167030572 -1.8954352482220904 0.22722972651907317 -1.9492255545696686
P 0.18684087748602687 1.7653389537748483 3.621051559091733 -0.5198426064296466 0.09340740651856817 0.5431118613702324
P 7.669713556905499 5.547922512324026 5.947824796883293 0.17346384565152706 0.3445684470422582 -1.1135501784695598
Ni 0.45263775032355474 5.392143822954398 6.949216253306429 -1.2995142134706266 1.1930427746792487 1.5606285085522864
Ni 2.302745624579281 0.8325368955531105 3.749124845762051 -0.8977235515811055 0.6799575415780934 -0.5306291555221894
Ni 8.834288808014543 3.522643634256332 5.182887689841679 1.2691343156271884 0.48205818859202143 0.2946216828104862
Ni 4.806182993685273 6.1431557734419995 8.174042134034307 -0.9113388283716951 1.1434644495304889 1.2411704834244106
Ni 8.707804032913188 8.976887987426906 1.1721491128506658 0.25311790713974475 -0.7456062899261545 -0.5020598285249289
Ni 3.741632610769643 8.121558885753544 4.3659607636325255 0.20496988667960828 0.49650341748307397 0.11450202240533829
Ni 8.750213256324738 6.608840963476901 2.134589018272754 -0.434476067937684 -0.02359964169681097 2.1676564518501893
Ni 3.823039242906517 2.299462211521034 2.37121762700653 -0.28801703300977494 -0.8605400005522729 -1.0203769994489849
Ni 2.460697970079647 6.205815767894356 3.851572836106272 -0.002866265804201515 -0.04744508085584087 -0.6501430293198223
Ni 1.981824098542624 7.621040168357687 13.017409322026984 -0.08038811144076478 1.1157795820207106 0.6534080732243391
Ni 4.004975178203855 1.3103752996759541 12.511733444958914 0.28849782930093537 -0.1596109989288348 1.7001699904247558
Ni 6.440882462539252 5.324054273947621 1.9617485040085543 0.03801890244593452 -1.2733792069464713 0.5731981392326515
Ni 8.738592908992898 8.43359318482528 3.7920265811323364 0.6908826731310295 1.7156824842380585 -1.1457249634298914
Ni 7.130729380385931 2.640606993963933 1.261914690968787 -1.020889677419345 0.2913607526710272 0.04116464716376781
Ni 4.788298481217168 6.166589070547645 3.9116565436087374 0.6715256087606564 -1.146047893986949 -1.0142307773419306
Ni 3.1810494461155163 0.6136983323754288 6.059279244275555 -0.096234334444402 0.6752933033332047 1.1160158664012327
Ni 7.665797307252228 2.5308236020443315 6.788577562317905 -1.3522364835650067 -0.15692702433876843 -0.02029140325918441
Ni 1.7670815472973815 8.266285863572367 1.9546607341442712 0.6338100964877537 0.20281016002412816 0.4649976335653088
Ni 3.8752069900442523 3.853433742557441 3.939268396550521 1.4551901390111133 1.3964563726153305 1.497190137591983
Ni 0.29311798780739434 6.093803690574884 4.5688435902252 -1.3529167974614829 -0.20682673738268892 -0.010610171415678502
Ni 7.332989459082922 7.290782009658193 13.0957489895642 -0.04619629605040431 1.4838288857937285 0.8784952994791129
Ni 8.26089299519737 5.980076534367442 11.338386528350126 0.7814880914244283 -0.39574805523986684 -0.5001518128689386
Ni 4.743192823618119 4.137843348524596 12.014379827692666 -1.425133685945365 1.3353492208913647 -1.8792869205970024
Ni 0.1745583446156233 2.1558174759951525 1.3756381785582852 1.9706860384362896 -1.3949273375653137 2.670701012885891
Ni 1.3095223460043983 2.6245567904669156 9.416371908118789 -0.19796465900636875 0.3117729977787921 1.543831748709922
P 9.10438163246236 8.150284164240778 12.147862491518724 0.278227814833495 0.8791167351131955 -0.324081639942816
Ni 8.279804720689285 8.476176667589083 6.175124110190116 -0.24946539798882195 -0.9016966772962406 0.24583062944971212
P 2.4629174839346635 1.2302893699982633 1.0936489432784802 -0.02481011706514437 -1.7604191650238004 0.12846105568859167
Ni 5.147887240364354 5.932778877547945 0.22679487833977463 -1.2809135676503036 -0.012785324690126366 1.2076271002513268
P 0.7598193850122789 4.494433012504055 1.4051971504728786 0.11299021374650219 0.06363917411720008 0.6560640227899475
P 6.132562639133967 0.7556876040549038 8.950416157510652 -0.5039341627295063 -1.0369886398637367 -1.0724850329981335
P 3.825029468140147 6.912785959986141 1.9213166656678382 -0.2091744116792591 -0.41813105092075725 -0.09459474195845
Ni 6.798132477748301 0.5035765104506615 2.4519198844985066 -0.24326903937012298 0.9651581881849959 -0.08464071606953165
Ni 0.39992246195794956 0.7302787561873962 10.533219356954618 0.5536258735276788 -1.273550442417013 0.04726613207581538
Ni 2.693581837048947 2.88805527416367 11.482836525514315 0.537084938449862 1.194835347803297 -2.6678848835933344
Ni 7.87541296492328 1.024149727827422 12.536968950628653 2.496072200391985 -0.6208149697796664 1.2028795582640122
Ni 0.14139587272732793 6.124711796737712 13.56550359405146 0.6978246516665014 -0.15780737006119275 -1.5213261114082381
Ni 4.921671086504957 2.679274227074463 6.867775686453589 0.9260054292449342 -0.06595213852109287 -1.2575972615218665
Ni 5.999180862301322 0.10840949450025696 11.496904758168075 -1.351579823817614 1.0352089222554945 1.489026627944584
Ni 1.0252869993894964 4.669847979409176 11.994096956244865 2.950888779659234 1.1909277852187747 -0.7735510959655388
Ni 2.36920263860179 3.2635199774556214 0.2731772149826994 -0.34594218746133326 -0.35142789316625284 0.5535351135860854
Ni 6.086539827049376 0.5198890201305448 6.5447667168078345 -0.18391897954658004 0.29061718963678335 0.22590560839101095
Ni 4.553809593898165 8.017681968720845 13.143415342486886 -0.17514560422932418 1.160018497234428 -0.12662734491396255
Ni 6.298329140851167 7.530049271846878 1.7630002098367115 -0.8387095349407427 0.6856926442896578 0.23099305021624733
Ni 2.71370420646178 7.4398746428282045 9.12356575283648 0.704368109211974 0.21806271530782445 -0.29627593058445745
Ni 6.007572825844048 6.428161529824758 11.537792422288105 -2.481638284354842 -0.15096746432122385 -0.26447344136188
Ni 7.521538078221032 8.20543266345653 10.238291823347245 0.5755753812155765 0.6895924935646962 0.35368249352838443
Ni 1.2457984523488101 6.8927828206564286 10.874067898498687 -0.07009032905918251 1.7962523726723256 1.1117532344701369
Ni 3.396571578673471 5.557479262063392 10.284562267142933 0.7709195718799626 -0.37215201308748164 1.8001326815633383
Ni 6.165717773786379 4.034746012804609 5.103245662934991 0.8036625706389385 0.1972187819792797 0.035386607029410024
Ni 8.476451813934746 0.8705676234506727 8.1108841246963 -1.0503992568426876 -0.6278541360146348 0.5871810837753049
Ni 2.073933923525795 4.670269870472526 5.703570965756705 1.7753996975930326 -0.6022647175813047 -1.6003255700315924
Ni 4.730086686019698 4.029536575326721 9.092315548050545 0.7885581108973323 -0.08702772824446947 0.16854558241430329
Ni 1.5563836473333874 3.8170685672056264 3.4164105473502704 -1.3376701557150574 -0.646487691955422 0.08575940305500714
Ni 5.537127604029173 7.324744240257882 5.845551065891324 0.6937021448576955 0.13732596227838934 0.07425654462173019
Ni 0.5380119927648918 1.1822213034109086 5.96050996057285 0.3440339146950268 -0.07981706942864318 -1.071306182198684
Ni 8.449771789950274 3.573252218768643 8.649461084624285 0.09312844182556865 0.5654295510308263 0.6365676046282327
P 6.6752612913199885 6.151135017466231 9.581789891131484 0.29994283791308346 0.053668950278365636 -1.5979385578566543
Ni 4.772349164713559 1.2056912866959764 4.299393691071751 0.5562126604182485 0.14995444967567725 0.09429392288857953
P 2.7254162692421753 2.556990019516898 5.164591375009564 -0.15928061217260955 -0.3431566542963961 1.0508067766937517
Ni 6.480604423308156 7.617839299203138 8.01091978869893 1.5212908872949285 1.6497316312685457 -0.3365977701319558
P 6.054246817613376 3.431790310918356 3.0823672920889376 -1.2664349144181544 -1.172461350983471 -0.9376563832203012
P 6.26130361426976 0.2671340840774509 0.2921907446225095 -0.5628167959983275 -0.2334214571520819 0.7635273931809495
P 8.877340039565974 3.5194611081914946 10.867396516770839 -0.5741610173665531 -0.7461079121529215 -1.245024052842546
Ni 1.588318966520025 0.6027502592814917 8.304866884161257 1.020983522684732 -1.1031639501392292 -0.626811039462101
