# total energy = -340865.97573519667 ev
CRYSTAL
PRIMVEC
9.27225212944029 0.00000000000000 0.00000000000000
0.00000000000000 9.27225212944029 0.00000000000000
0.00000000000000 0.00000000000000 13.57087824504393
PRIMCOORD
 96 1
Ni 6.183034372859605 7.828710754065987 4.085852169103709 0.3381185776518564 0.8279854636550191 -2.1810246456269793
Ni 3.8173861651904817 1.3019818148106674 5.786296961439386 -1.1174230311614046 -0.7456893365582642 -0.09251086284622777
Ni 8.00347416053067 6.044061859272345 11.730381690307189 0.6831904466930944 -1.602366768831337 0.27821650197958536
Ni 8.668563527164014 9.034492953953528 7.303764986452653 -2.4687364886915093 0.4414944082370461 -0.011803420392831285
Ni 1.377318862642032 2.3694869200140074 1.1488144105741724 0.20738903764406216 0.05739319320748825 0.4923701120409908
Ni 2.8631138019091873 3.2005495981773735 2.8200831346383204 -1.628863272459969 0.08626308216430305 -0.7023055702559905
Ni 5.028898616839227 6.265362698729719 5.329894462587134 -0.524831832114122 -0.09529408201831975 -0.33937301888424776
Ni 0.26381411506436625 -0.04510023392636994 0.95611754143741 0.1588203847067394 -0.016305164917926756 -1.2811179703516258
Ni 4.772353947374835 4.862925305309206 3.132891829486186 -1.3367373594881429 -0.054339493982829 0.5278631627412781
Ni 3.9022458158677304 6.199937688329953 11.068611789904445 2.0481461775969825 -0.3672833721412707 0.3110263494207547
Ni 2.6766395411169945 0.16753568599889293 12.930508743675055 -4.4861410142302605 -0.7804203122815463 0.7381166664173288
Ni 2.2431246692022127 5.4149673750613205 3.4402855291422334 -0.29449338476273795 0.7617088519149721 1.304327832809186
Ni 4.147830683419917 2.5710934961367586 7.676231350930918 0.6541737477457701 -0.4839757173297084 1.2881931320308524
Ni 7.153171559382679 4.930631289711005 9.270999359532583 1.0891439817110535 -1.1973390880617572 -0.7885185159086484
Ni 7.932393076386026 7.138243233597018 0.6692516805744525 1.9022394156281173 -1.5571840016471117 -0.3775467017404917
Ni 2.415672007429149 5.982457016713381 8.493795484573312 -0.7182685213431501 -2.0873426452907857 0.026432226049599637
Ni 7.783248902310026 6.805434291097183 5.3538604524369475 1.8058634133995286 -0.2775783541749542 -0.897646418486267
Ni 4.3435401072447295 4.208777196083985 9.468211815413207 -0.4994840973779527 -0.8202896376726583 1.281087631334323
Ni 3.0666490064564216 7.821302224685401 9.209537309655047 1.3316843704452677 3.6693940996035384 1.3687481080667847
Ni 1.5435796139853173 1.7510091643896804 8.756283667595845 -0.17074721805131238 -0.05771535243359738 0.2585208233228709
Ni 4.525582231561429 0.13223158635361054 7.846315051790619 -0.0006273491713537582 -0.6566913719613013 0.8331292126394878
Ni 8.915177614692729 1.0002441888994977 2.952928544077031 -0.8948428875992008 1.6310808489365778 -0.2784419877268301
Ni 0.8484926575496302 4.41965602424752 5.691029207846357 -1.1260652802174347 -1.052977044872193 0.4143679843338993
Ni 2.632179092581439 5.75137395135298 6.04159173132868 -0.7003420187717164 1.0975301488922193 -0.646159619192042
P 4.107273852993531 7.105567817405298 7.340786307175889 -0.07077964181672326 1.3091921028800226 -0.5681436075278796
P 4.027189412117285 8.347854873577402 11.560027239687898 0.04835448004398769 -0.47192598525402596 -0.4811230783722617
P 3.4453926855662966 1.552620059725081 10.062372162835375 1.3959267253641054 -0.103934274191821 -1.4178970589876096
P 0.8342254433344769 8.336505637079485 9.479855909526023 2.6102487211371046 0.22311313324753834 -1.3191026771255152
P 4.414194667795498 6.064878065103904 1.1573801170094482 -0.9821989457173664 -0.19939547791562434 0.9846744038410525
P 5.998952353093934 5.359268957052335 11.006810375602216 -0.02916865114415622 -2.004725387409186 1.6059462586524795
P 6.612664171169299 8.614218857952984 8.571936461421808 -1.391458662290423 0.06555695996520322 -0.8759319096273108
P 2.024679683373399 9.210461753183512 2.2267906700071687 -1.7677954028832137 -0.4138774178507259 0.46651175621699015
Ni 8.656370515730385 4.549727175875628 0.7907209639843258 1.2163909624868856 2.5982126159081766 0.33864333980707484
Ni 1.7489321799325448 6.647444388574278 10.837757749169452 -2.354563824601132 0.08867400559864083 -0.38696542395123035
Ni 4.002590127453088 0.414822011800563 2.0847583132464504 1.576541323127801 -0.018573392126813172 0.013826621470447156
Ni 4.692454951539405 0.40736804838497725 13.147942126806221 5.065197412015902 1.2632775997360954 0.9693601420814854
Ni 5.363858721812524 6.332336175220298 9.202846452582417 -0.8490242866031895 2.1987842836032456 -2.41463147931699
Ni 9.105583310350214 6.4066069140669715 9.433579026815679 -0.12153810331651327 -1.2675872828550427 -0.21695199874214893
Ni 6.719387792158715 0.6294774282203084 1.867502030129265 -0.14517065513378868 1.2165524277654145 -0.14916949188053666
Ni 6.412606061137358 1.315361674505518 6.751390042852274 0.7354018385893271 2.0317875337333007 1.9404267253311165
Ni 6.410232364614918 0.9626081178659585 4.5569919853495815 0.8281860097015995 -0.024872080651331355 -1.3670802334460586
Ni 4.590042927748954 2.2862220966877733 3.6827289577030022 1.1709397721326222 -1.6431825172961183 -1.013513439559932
Ni 2.620681500050868 8.06573733298453 5.6286983479526 1.0301482199031355 0.1868934887938717 -1.4034371748085377
Ni 6.215487255002347 8.43612671300566 6.370835492918834 -0.3238949778533067 -1.5161898186229372 0.22600485297303657
Ni 2.2351227156910167 3.8321754071955314 7.920805543010658 -0.7818791562152599 0.6446915192869478 0.04488451921751625
Ni 7.281230632317937 4.23369173731757 5.7335740091102885 1.372677782138494 -0.05961514055947153 0.6594529938668385
Ni 9.032536508772923 5.386557194808361 3.6240077855287214 -1.420866683138895 -0.748516264484098 -0.5393485376730582
Ni 5.822251045952727 7.7853073422630805 1.497872047550276 -0.5518541263392367 -0.14494954026191811 -0.08142992244171782
Ni 4.790267938317628 3.0379792031463198 11.88906608450795 1.7509899012901007 -1.6917856230158026 -2.188086694680083
Ni 8.908520137727447 2.6689435719231445 7.288946073241074 -0.15637886514478228 -1.184078366397109 0.022417191352935583
Ni 5.200416735089636 3.270434561808757 5.527663253590205 -0.18102880248297856 0.8647267849401107 1.0247450466096932
Ni 5.648220147399265 0.5807229997646658 10.676725620751961 -1.0729339476100943 -0.6899853581277408 -0.20128678140106623
Ni 6.701853963549594 6.210943851502363 7.087065038457915 -0.6751693761608308 -0.8624467306566824 2.6289588959520978
Ni 8.136966773161827 8.34924571138352 9.930136867580948 -1.6943137887542947 1.0399909170251702 1.129352692719455
Ni 8.004753731312299 3.5513003483761234 11.32617362541771 -0.8521682315488097 -0.7268403221725611 0.5865365082127705
Ni 4.3742776227599265 5.017373207552533 7.173579786124444 2.089844328666717 -1.7626647665248676 1.4632865428660022
P 0.3371121946719623 3.5241419221486696 2.7218566054190787 0.2406272308719017 -0.3077849596653215 -0.7131702808846363
P 6.6701243170660325 5.410173620756236 3.9611496514072146 0.6956474415095245 -0.11877108209433737 0.35139344038389164
P 2.466075969522847 4.55720988327254 10.86928247888291 -0.38370989312841014 -1.0485346928301231 -0.18893880135867458
P 0.5624863344508532 6.101271654363978 13.33846279838901 0.15362032856303864 -0.060537652373740904 -0.15360078817901288
P 8.821731858625714 1.968471291502171 9.87632906176308 -0.20247257417905132 0.45106868218904245 -0.15192674291069963
P 6.59883924337649 2.0589221101600117 12.911333726454716 -0.19932580101995348 -2.4547743700844626 -0.4323960454802037
P 3.639080758446219 2.1505412325749917 0.720241648997128 0.15606287656626025 0.8903506561558021 -0.22047955227943317
P 4.309130779921383 9.161096283318383 4.313327401195042 0.5505858011497744 -0.5901571356844932 -0.8951557908539294
Ni 0.7910779456878959 3.8443962353852834 12.502877115680151 0.7062254741356869 0.695838474474408 -0.28194151623965635
Ni 0.822541478537886 7.411997202849104 2.7442889647813455 0.018630213506677592 0.34051561712912326 0.11893563269665969
Ni 1.5762086689168335 9.06232825457996 7.305515587637953 1.6101893501995495 1.1665115611579395 1.0997014455119254
Ni 2.11880231383939 4.929036462359991 1.194108434568195 -1.0101506937352862 0.6297662654356831 -0.8782438455899391
Ni 8.025903738217325 0.7828145146691499 11.64723369735667 1.41361077290743 2.367198482646007 -0.4078330114288589
Ni 0.29914881314138325 4.076582698738538 9.644348442405132 1.7178653508219899 -0.7009775954731863 0.8423237346545622
Ni 3.891360191971851 4.550839846120522 13.20363683591439 -0.9219546562143283 0.3133776232617506 0.4130436090955209
Ni 9.27280837590574 7.87302284656889 12.166061633073493 0.9094804350067176 1.5911248773689306 0.25914894382517306
Ni 0.5713404079245972 6.895579125437679 7.302910084814492 -0.409960599294823 -0.8149232311544223 -1.5134433662260516
Ni 5.795797310880372 6.235088795816562 13.100661059199858 -0.2716468191818676 1.4983587039787873 -0.1825748068138598
Ni 3.998491792051061 7.211827825792674 3.0677106793150912 -0.9037864699457339 0.7624236185938095 0.10226151447508841
Ni 2.6741823943261873 2.337905629563099 11.870257321243223 -0.29970629642224517 2.424386758931541 1.3764809579346682
Ni 1.527112094360886 0.7184521043532568 10.84248010713382 -1.7866917255670844 -2.0909025947279023 0.02367034703374633
Ni 6.245622074134892 7.465859714954014 11.11834907707641 -1.0406915426366206 1.5928994527708502 -0.5862894251989709
Ni 6.961458476187444 8.667209778366061 12.921918929384473 -1.2498032193987443 0.2527666944479131 1.1422408615360329
Ni 1.4980714009691527 0.803577868664076 4.2427451642101905 2.28390296775046 0.7450900124113684 0.6658650680407694
Ni 8.105858367565 2.5147831094930817 0.9281227580758772 -0.4205203770885403 -2.8418290113153897 -0.5623902499838702
Ni 8.951784465749741 8.79776308710029 4.708389316671491 -0.9404938526690965 -1.5389417676074721 0.8462894041705297
Ni 2.62461293491616 6.880057375521408 12.942424514772666 0.12438739983985028 0.025149245572117975 1.9934755255269794
Ni 6.512514576876799 2.523545387671622 9.744161453948552 0.16544560333274086 0.0329707984990658 0.15513265144250704
Ni 5.584315786334187 3.244296083305789 1.6052178366516283 -1.2379990276749646 -2.320408775985978 -0.5156925888170151
Ni 7.3851911221992 3.178565088588676 3.169573785784728 0.21777937973945075 0.25376196848164684 1.0325110637083572
Ni 6.635065932099831 5.296922334330109 1.6760439338651514 0.016774134134545305 1.0132982382253322 1.0158857964468504
Ni 6.3511310301069654 4.075933641095683 13.186266198941187 1.6352270098944677 1.0349096458475209 -0.4279606354166694
P 6.335822541987632 3.2259833855252418 7.78977934942235 -0.6910369393207068 1.2458861437325253 -1.278159144833618
P 0.7166338157280591 6.730208510290309 5.039857491526229 1.2973364890930172 0.348163106372052 -0.15060339611358578
P 9.032545781024963 4.753549820236127 7.747641600023011 -0.17461775675031216 2.056217898861523 -0.9686299487836803
P 8.60186821823466 1.5783876481464176 5.376252941115438 -0.848603397015687 -0.3184468102545419 -0.47922329024638755
P 0.7470523657730529 1.6004463357514411 12.874488578520255 -1.0104201453465889 -1.128611443678056 -1.2467970855825687
P 1.9037880612656666 2.1972641106084985 6.619263232946724 -0.08589412886065853 -1.136848743986184 -0.7345875702181478
P 7.952940386908401 8.183328033365745 2.4861847025236936 -0.3330344782607296 0.9268883460705198 0.8131175454042512
P 3.2040915984569525 4.019298725630579 4.882516646646177 0.7892942177324084 -0.10283795580384869 -0.2883199089621744
