# total energy = -340856.70198305626 ev
CRYSTAL
PRIMVEC
9.45731888662005 0.00000000000000 0.00000000000000

0.00000000000000 9.45731888662005 0.00000000000000

0.00000000000000 0.00000000000000 13.84174215100575

PRIMCOORD
 96 1
Ni 2.3710728357842914 2.5363584011558595 9.18204393727423 -0.5087133292857045 -0.055347623532369196 -1.5249943042884446
Ni 2.4526232981175884 3.763436093059255 11.314433900123172 -2.2071912767200184 -0.28413698122907843 1.6829217448672693
Ni 3.203269627274316 1.1728494243608782 11.165413977818638 -0.2977280896499518 2.9432909127073184 2.3890034943362406
Ni 2.818016277673343 5.429721139853136 8.051298497409217 0.21654062223634318 1.1026078205254428 -0.3399371189178339
Ni 3.4851261074922513 8.25273088199499 8.24066712579038 1.1366646529998359 -1.7861304537469755 -1.3951309689356874
Ni 9.486163892312856 3.8933891143884716 4.635931466834844 0.6679867423694625 -0.27327741280675516 1.0684075204946502
Ni 0.41460319360017966 8.203420420368433 10.371008633328945 -0.5760371513433434 0.09243835773707951 0.4763251427629861
Ni 7.507853517470445 1.031490876234264 8.468544065957317 1.489740109071841 -1.8194825468448599 0.94497579969985
Ni 5.538054729790272 2.3732101898939195 9.96987455354705 2.420682570607076 0.05945727482536857 1.3187470935583094
Ni 7.906725406530998 6.3299255127694325 9.719269784193127 -0.43407009074851693 -4.412172947383228 4.9076335254240835
Ni 8.722835298284394 7.073630169729403 0.4070921907954592 -0.05935648758144616 0.5551816480505728 -0.06266883978413079
Ni 6.0554457414254355 2.403918104911456 7.614024218536466 -0.09497552233663643 1.829647917413636 -0.3505367488105512
Ni 1.9535984001147169 4.402268538861399 5.940792770886293 -0.16552633597200522 1.178931789199163 0.38308691483243057
Ni 4.637736869045145 6.098987238419811 2.513134062717743 0.20716046657302387 -0.42975423698198245 0.5660227045301348
Ni 7.1745870507926 8.502668910354538 10.47776947110488 0.03043723344393467 0.6834051338070618 0.831605834016426
Ni 5.734019838222169 6.839911443573451 12.102070641355073 1.885693338343978 0.4333555811799956 -1.430322429235156
Ni 3.3567146291713064 8.521715950959809 3.8451671901867726 0.22614626364690732 1.3052706563384293 0.056776385559095775
Ni 3.1881095448064656 4.180759211623723 3.8778053440263234 0.9325496581213554 -0.14507603853745338 0.4299110742748209
Ni 3.0773075945922814 8.626900253646918 0.23471269039011983 -0.405439828606334 -0.892787804842385 3.414042932257901
Ni 5.366527333833063 7.471291521949103 4.35553992534072 -0.5229191884724413 -0.023351530241746882 1.6884624721798407
Ni 4.014726518045691 3.955069749357481 9.85293953191652 0.5696870407555996 2.3940896506098963 -1.4904397062420267
Ni 5.30409957065759 6.355318414470106 9.221825204206711 -0.512301303747279 0.4786645895294401 0.830644498544421
Ni 9.616958615039227 3.134174454155092 0.7535260828132847 0.619580583151933 1.633853526585709 1.8874928534465623
Ni 5.194858078089816 2.7378182119669345 5.538815098243431 -0.633171177352174 -1.511078979758933 -1.2546402357760713
P -0.09685713324671963 9.199465264731515 8.59912694473654 -0.43492909631470256 -0.24927616479615136 -1.8934557558982164
P 2.4161085891915928 5.7137338888188385 1.1918113490945277 0.6298937921524829 0.8035486707688936 1.0724405529134433
P 4.4188945057849685 2.7198587630546145 12.31521969853562 0.37698337303785395 0.6472515667046401 -0.3168632678175059
P 2.481468121278502 8.326914092773418 5.941789572316182 0.289328809842663 0.8232353505645436 -0.10491643559943221
P 7.956310130410561 2.828012663929436 6.099599126963586 -0.2605334828775255 -0.9721101940227967 -0.25643540154875194
P 5.318521982238047 4.204828088654715 3.998602734764694 -0.5145561612197268 0.4166295266745663 -1.600676782723424
P 1.9035880968770413 0.9405152497166501 2.22594554600862 0.04893117848306411 -0.09134923843795881 0.43536772651401795
P 5.920858633752334 4.417069243204622 8.73560646195538 1.1372063844359188 -0.9765510034029697 0.5620917449068449
Ni 4.613677449333222 6.522665675398748 0.19132345623275765 -0.18089587644954006 -0.3127675004815775 0.3539943683418484
Ni 4.624695226048784 4.504038749364543 7.0406572267948055 -0.10192007197526963 -1.1208505687857149 -0.5231655001552925
Ni 0.28102329040794305 5.115180164932211 8.10427083297935 -0.7018610265194042 0.04212366864292746 0.026679051953083083
Ni 8.643242500998413 9.103445104222416 1.877106657751509 -0.41397383421927414 -0.7132533275167457 1.3942246550713342
Ni 5.812761476791928 8.50052209892584 8.337020183930715 -0.22306891027316422 1.675369129330992 0.2568822592781834
Ni 3.2403801473016682 4.351331418354947 13.645009549921449 0.6419298973814106 -1.0731290943400356 -0.19592988796452707
Ni 1.4272513073210653 8.20825311041277 2.082753223714497 0.5033690342546556 -0.24102729452379779 -0.46394373837949776
Ni 1.7610662985049215 2.3288364488214586 4.524588557969904 0.9759653061028288 -0.39920181811642214 0.49060376416918733
Ni 8.063348067635223 5.419668009682627 12.071660631888216 -2.3228271556194833 -0.5942297630919702 1.7369411365065186
Ni 0.42049226618454055 6.124928664626495 11.197388227859534 2.177321999964412 -0.4468754700433014 0.18311499558804592
Ni 7.200273129384417 3.268487299575188 0.8929893841984408 0.4719550387197484 -0.21456112991246917 -1.0710171902033556
Ni 1.4823780201751522 0.5440237678658033 7.168707435527309 0.637469804727528 1.068360983527431 -0.3508149421726023
Ni 5.9087910946200966 6.521464595876966 6.732651259350664 -0.40608903215455866 0.3629127538774008 1.1031919751636872
Ni 9.43135872830712 2.7913088086220577 7.838745251330026 0.5753668647491962 -0.5232102373502989 -1.3097212359106154
Ni 7.691391708645478 6.816438377643816 5.401906218738853 1.6485406962842386 0.09343388888112941 1.0747784570180008
Ni 2.350134331365189 6.61409903615931 12.98910475173567 -1.2441660757176252 1.313355490229093 0.9661388069307102
Ni 0.6863044046016596 5.1016656559823925 13.385145119466918 -0.03284121489973699 -0.44113599645636287 -0.3145127653074583
Ni 2.4212722854033495 3.112469906891388 1.986718877226794 -0.3568876307292434 -0.4750028244071367 -0.3719450392829981
Ni 6.823843458474962 8.62084756944266 13.441467237451345 0.2829139074552547 -0.5803283225195296 0.881028864534244
Ni 4.498752108004887 1.8490571951243113 3.122073814406112 -0.837020577274094 -0.7359523117761583 0.341698838803947
Ni 3.70806348990937 6.015393995167577 11.453363808712828 -0.2364365898293218 -2.5233462056165896 -1.2003727326817586
Ni 0.30518390343390556 5.621610143766229 1.8197045139293844 0.7557837446797887 0.0473095837192411 1.6690095056615513
Ni 6.806848656107697 2.731141344704113 3.1034296555931857 0.06944575349664815 -0.9317603294508405 0.7553060337124218
Ni 0.36169611353162295 0.9730257297487669 0.3643034963989882 1.1956079643032635 -0.669299547643615 0.11390244114812642
P 1.2021671134752492 1.7286749806930761 12.093364233420013 0.2722528281969827 1.6749577528251864 0.10850158184752928
P 8.708554746489975 3.927009883679307 2.7014510372184173 -1.3295261864516845 0.7030028534333311 -1.2763606581722986
P 4.510441354374359 0.7205673258572902 9.70318572165222 -0.017155171623047874 -3.208587364191126 -3.3255044237958598
P 4.106008561701146 7.82797431064217 10.616215164958195 0.7353049080001465 1.1618789474819344 -0.1836299875512515
P 6.023801551820053 7.744116262456 1.539866225600806 -0.1097123143261788 -0.3974421551128381 0.5541796891486197
P 0.09897557271820967 6.230046766080118 6.310643930651246 0.3854595288296652 -0.3667187578870523 -0.5073724989870939
P 6.637193809326179 8.600920998163957 6.3562802238194385 0.28071047204603267 0.24519196742444868 -0.3554760950936975
P 7.5869829061220395 1.0348009379084673 0.7527127533733377 -0.5658393848747352 1.1533128030794781 -0.6113815922809084
Ni 3.9171458998901816 1.1575663967451286 7.545770746814396 0.9572103940928289 -0.6551055155314202 0.3606843787675143
Ni 7.528130009554707 0.4477057018060253 4.717404379151773 -0.6384483665907134 1.0721556746831729 -1.303232285752162
Ni 7.78659853971463 3.3499810179940703 9.427347879289893 0.016960539113738533 1.0458962267660117 0.1874987264780384
Ni 7.357860437033696 7.649741675464932 3.4327382342405914 1.1600897167919955 0.7429683380826754 -3.1075836333825384
Ni 9.015312347816987 0.3840853706959333 12.019214123258326 -2.6090230762601196 -0.6877783231740929 -0.14599520791761308
Ni 2.2499056638703165 9.434432357004596 9.591026646151613 -0.6627661174004714 -0.6709885053102638 -0.4146207237746537
Ni 3.376225078410967 1.7436742887367513 0.15074493730274738 -0.6859759798580316 0.0677709368973865 0.056533930530986515
Ni 1.7675729340244983 9.161087463948897 12.425400302886962 -0.027232610463707937 -1.0578749963944427 -0.9594554813732636
Ni 7.599731372227256 4.6796422498405565 7.059427167951351 -0.31883324705968313 0.7757123652829158 0.7010405875006378
Ni 6.24531087905773 1.2501913797084028 12.736617975886986 0.7232536332625673 2.2790667227040813 -0.9214489202225034
Ni 9.380610754182051 1.9275056568029265 2.926559820093813 0.2841647491432203 -1.2032086594686568 0.1207839987593081
Ni 7.892397568141233 7.450343560210932 8.167528003037187 1.1181768786082935 3.1270383996730406 -5.014300110945403
Ni 1.2434672258502357 7.678387894925393 7.663951297366333 -0.9957427458400724 -1.399194340371784 0.18086656587350142
Ni 4.443606480512663 9.284439276567845 12.627226111946012 1.1309735161523295 -1.2358670689336264 -2.5925032242282255
Ni 2.453673060534264 6.300484878507162 3.535167619882855 -1.4912007527777673 0.2237381684260469 -0.580063241783601
Ni 4.9585669611470555 3.697575323061681 1.7644349955573535 -0.3971012268336516 0.6304298671616111 -0.6455883200696042
Ni 8.834110114452038 9.057416332312853 6.3210810279759615 0.6493778690190235 -0.8796828920293107 1.2033379859576694
Ni 6.10155962920662 4.340351470915662 11.238456635917325 -0.5525673503561774 0.24467646124061085 0.4206152507951917
Ni 5.109855694296279 0.37911176659746626 0.9937032121615605 1.0170474208551195 -0.3266905383205728 0.989176148366148
Ni 1.1898347694090752 -0.016223085131223242 4.3283264897192355 -0.8398688453561665 -0.5374844878811259 -0.07997416383179776
Ni 8.92742548170736 3.1571084528977855 12.527482604919388 -0.4097024605374299 -0.7905892823947481 -1.9440344972870327
Ni 0.3815763439468873 1.3340021412992273 9.868733254762004 -0.9863268518428111 1.441335749626524 0.8484334470967261
Ni 7.29357903932067 5.67345516690332 1.934784955290453 -0.7198566917658764 -0.37467195129585795 -0.08231875280457436
Ni 7.322395490524376 4.656405616887651 4.54763509880952 -0.8401740353014112 0.2763300835901499 0.08529480471376277
P 8.321201872055651 7.5864060096588215 12.25772109005899 -0.12404415756781864 0.231040358514415 -1.8010441376340143
P 0.1438609547523117 7.283960945827342 3.630314869841872 -0.2319196757955748 0.3328115636166462 -0.33319208688451646
P 5.326759307147279 0.4056518411012274 4.5826271793653826 -0.6745235150467157 0.07421463564020121 -0.45739488151738644
P 1.5920829213773147 5.3690808099817335 9.657868140136658 1.0286562087386413 -0.7134970680964356 2.4593265082315194
P 7.706769309451918 1.5964805747444701 10.713286979347783 -0.8770169151613735 0.007903056897160582 0.3732426750484991
P 2.67574982691609 2.625938127378867 6.756057178314909 -0.704738090956883 -0.16629072494185554 -0.1636939107489568
P 3.8463767812957173 6.457277771354632 6.261159454353814 -0.9944865048354679 0.11524892787369183 -0.42494910228385524
P 6.155154256371505 4.708808621849822 13.447280651483153 -0.09130244436042341 0.9790812260239914 0.11058854628354502
