# total energy = -340885.67350562674 ev
CRYSTAL
PRIMVEC
9.12617832116802 0.00000000000000 0.00000000000000

0.00000000000000 9.12617832116802 0.00000000000000

0.00000000000000 0.00000000000000 13.35708446127137

PRIMCOORD
 96 1
Ni 4.940100806422762 2.908878132975667 9.941984928627768 1.2326081956766963 0.6834863806669583 0.01296530191141638
Ni 4.3008758862118865 1.2499761635224484 6.437700308859275 -0.1678585836496077 -1.3821612961488972 1.1013099276496259
Ni 3.6170878364179013 2.8732677844945504 3.0908294914514647 0.21237697777695683 0.20768034363223586 -0.37923334541429526
Ni 5.261506560602146 4.935519464819092 3.164026006057511 -1.0098475606725705 -0.9304138427252749 -0.32873739354727255
Ni 5.088766254079704 5.081775601353785 11.867462571872222 0.6258198791934254 -0.04083837417260063 -0.35776951911356447
Ni 5.778887871748085 6.303506242439264 5.158773169302319 1.0210200323496224 -1.1050701660230067 0.42809818943579825
Ni 3.5981327636871785 3.0565488271768317 7.841918015098111 0.0959096041151316 0.26991055321705126 -0.21859776187568805
Ni 5.811468328969404 8.149659142219377 12.904239341757586 -1.3086498572233076 -0.6234282390327973 -0.6903352852679917
Ni 2.254175214040041 5.370610024490344 12.083486517753006 -0.6500887790431191 -0.5711191452164358 0.3741556737810718
Ni 8.444936647372254 7.072478042290333 9.886245880861681 0.187554005196006 0.6622876351021562 -0.9360538146198718
Ni 7.820979823780781 8.67721614238542 7.970092454183897 -0.3292025061091492 2.8182350260455338 0.582266677192823
Ni 8.355153303354513 2.408845687145618 1.8769647036094184 0.7622757801620357 1.436662512520571 -0.2029700826407601
Ni 1.2120933965964835 1.1727504411115803 3.0275704726068446 0.11803009016325479 1.2312228852933955 0.8323509397125665
Ni 1.9285531653967212 6.608128954369347 0.8455778547422373 -0.7095288274773071 1.0215129128256408 0.6835267469865907
Ni 7.5686683669746735 3.8711606456732266 4.498973279678148 -1.1503182392275284 0.7293756869999051 -1.1312565946103872
Ni 7.356594231145821 3.994464443297103 12.99653694795025 1.1401772941387847 -0.19973280665038506 0.6100559314909494
Ni 4.37960742807416 0.6132481657473573 11.070245249584186 0.09970249549866055 -1.1141723854345906 0.3451646858653604
Ni 0.4926338529254765 0.6397204717030659 0.7075380167051223 1.4990783557536311 -0.5103423802486953 0.6534862347604422
Ni 3.199364394419525 4.533410914222867 10.078467840613913 0.6546694564352661 -0.19651867058846156 -0.2958193026630131
Ni -0.356929403964814 5.049149513239999 1.9721872500092055 1.5474282078119286 -1.7370982309096727 -1.7919532310763395
Ni 5.9685481131972296 2.636872382980876 7.572238528001279 0.4381074940426842 -0.4864779149262719 -0.10632797123497817
Ni 3.167897330974397 4.410170999848444 0.9592380195521729 -0.07653968422895206 0.20002591241077167 -0.3344596407430304
Ni 0.760883267852398 0.49801647300086416 5.504401626438797 -0.4721211319839676 -0.5612191124939043 -0.1736880458471912
Ni 6.788918550322939 0.6944665912490734 0.7742357796060427 -1.4434463682116236 0.7215232808350218 1.3048999032625719
P 0.094862062349299 5.818595874372724 13.296750803050188 0.5420088581140406 -0.9202248180074151 -1.6650186393346034
P 3.9040148882493466 6.220038213938933 13.293210758412611 0.4960329056045587 0.9415382347732107 -0.39425450141347584
P 2.1621011992204657 8.6899015304912 2.014141205161061 0.7403735807723056 -0.7381272079402901 -1.6388784906041256
P 6.311382134479039 8.157398141581753 6.266235842090204 0.13431031538051708 0.989885772838663 0.30089028942801727
P 4.661296053450413 1.2083334110572166 13.254930090104336 0.07647129288486185 -0.28178185073334056 -0.644792049420554
P 3.9798625577077162 6.084204173243665 8.750266638135573 0.25717099416319583 1.930870963321881 1.0927108731267052
P 4.674665904943194 1.2676626974425929 4.387988910402467 -0.0073348430985164005 0.22986742125223636 -1.7821740402023887
P 9.357892165313167 5.648474781077876 3.960495894326943 -0.7802246513309724 0.594111492346551 1.3074278118907483
Ni 2.5839679262548296 2.0048480176012657 5.06757070452886 -0.1863864672504661 0.10343573728884765 0.44489649194005965
Ni 1.9030272441507747 6.519358616164371 5.03546024549995 -0.5069631793638172 1.6015519862395258 1.1760364699292392
Ni 6.5020736340979335 1.0155428903848474 9.71606364217093 1.1027330332493976 -0.37353038149224704 -0.10669589609735819
Ni 8.513163957788663 2.7392954842119286 10.364577186852353 -0.6291358309405358 -0.6883478225243177 -0.34123449757301877
Ni 3.3584610640943855 4.740474778058862 5.4555145134855305 -1.1565855602934791 0.687562607618861 -0.12991038654060852
Ni 1.973837263080806 6.576543250603805 9.806090655154444 -2.1499850027123553 0.16525637014007025 -1.2543746408195109
Ni 1.1317647734978709 1.4206904584193638 11.764519278467048 0.19676189694751922 -0.3722700267225847 1.045778984461857
Ni 4.147702106379221 7.1303288877597835 1.98064174176546 0.1802286751791864 0.007224542772897235 0.029774145938639043
Ni 5.4667816934534414 7.919752453614486 8.919834685013722 0.5274343027339755 1.1162997161902388 -0.23315457664394038
Ni 6.776634714070868 1.3387008708349584 5.663417073125066 -0.7349200138569021 -1.443540470587327 -0.39431749344092737
Ni 8.246369255713583 7.538615861196018 5.214191888203287 -0.1683517212359423 -0.10413764845187871 -0.23952628449823915
Ni 4.960196651465155 4.9394072168572665 7.3082756791126915 1.0722901433785081 -0.3763197713119261 -0.4711466838858402
Ni 0.466782127107317 7.485373735865717 7.168813982466311 1.3173545840861571 -0.5669004791493978 0.3520076769291228
Ni 6.1928239496717135 2.0951333014361415 12.000191886644048 0.20480070809159567 0.20680411167486962 -0.5036107179518166
Ni 0.47126764383680664 7.603502990283855 3.08282857076633 1.8550203347401535 -0.780847629626952 0.3193400114927726
Ni 7.160992847497495 6.604414599722547 7.485778025572973 0.08106559712376361 -1.8987925947300979 -0.12627561800149867
Ni 2.2326100542602156 5.196993604832538 3.0113012342067202 0.2735944298265417 0.42954777739813116 0.2680932975026544
Ni 1.7458653243165088 1.2286391582049572 7.773929810558228 -0.4410215823656856 0.10062320754071702 -1.3647646979390045
Ni 0.7958666478710202 3.574724115851693 4.341279303637719 0.6862163780036118 -1.0137201562540994 -0.4097448837395911
Ni 0.7908545506424632 7.516010317067949 11.768379651969742 0.7500787238752115 -0.2685771791176084 0.48669260204023923
Ni 2.2272986183770764 5.595962750027045 7.48652545959158 -0.11496610652595039 0.5459069076168662 -0.013102598820229046
Ni 6.326248679244733 2.060718482337656 3.0703530847658977 -0.9308429598428937 -0.191922823687663 0.44083929115155046
Ni 4.146013763357948 7.191419526594379 6.598840329898799 -0.37411556457175565 0.47794776596807353 0.08280546263300577
Ni 8.337156479365595 7.450028046560908 1.0224340677651884 0.6809546153840401 -0.05446393537583523 -0.9843758987640274
P 0.10831769991991871 5.5416802403485015 8.563147124778983 0.8983318745890657 1.0576801067748172 -0.36063115693207565
P 8.229923882068537 1.8661027259666134 8.223008976624113 -0.3740523154339881 -1.347990306694143 1.5801254409346335
P 1.4402569851091418 3.3062593231123283 10.828749226910567 0.808014162739415 1.2816062228419542 1.3539580942418037
P 3.9359291344406495 6.369789676836585 4.088416625650613 -1.1113927658069247 1.3600395245491932 0.0854884087818076
P 6.879112572372881 4.180319068314514 10.837457426428937 -0.37994142722491336 -0.11530394948134336 -0.019090440972547768
P 6.90800605348288 8.141618978966722 10.888321269643868 -1.6358250484897827 0.2144544291312758 -0.7131489407283976
P 2.3862766477315223 8.485000570958134 6.588769591931368 -1.3628371418989884 0.4420705924554903 -1.3257276386412007
P 6.751145297538895 4.07315035426691 1.9719727848146114 1.373647088030299 -0.2166946313157042 0.26597239450490967
Ni 2.8533453368435313 1.885559738514471 0.8628235942411522 -1.376166769128359 0.013341454303912505 0.04991822498668177
Ni 1.448552681359612 3.6265334311585353 8.601054532386879 -2.3933147201170843 -0.1213504127857394 0.8844016376612187
Ni 0.42873417635062233 0.3975719272671728 9.701651581094204 -1.8131614897228387 0.01681321490259685 -0.8909736344517817
Ni 2.770817304728017 1.854311703353184 9.875680504019911 -0.7137721761346932 -0.5872800712470143 -0.06059961595992789
Ni 5.106562302141769 3.140774328492112 1.0384468605496495 0.06875721207005578 -0.7044205597164642 -0.751349620167835
Ni 3.8015735346613067 6.942457377295339 11.035890663263755 1.4245461888730113 1.2390819763264982 0.5938890919230998
Ni 7.332701895850187 6.35923068831976 12.234782130051734 0.5849149134489475 0.5125928668457689 -1.408850118293993
Ni 7.3585198548079225 4.224398510437474 8.539972107112927 1.5303152022807258 -0.414637435945202 0.4741625878940285
Ni 3.107637174382698 8.70646554445666 13.057364752844236 -0.38442928779293795 -0.4184287846668342 0.23434936828298994
Ni 9.094410266031181 5.1233088396770965 11.081224042311703 0.3826233449324507 -1.1346571356515038 0.0002727940454124334
Ni 8.571480238361275 2.7427634320394083 6.358853777147984 0.9286073856441557 -0.20155828989489805 0.3175929468946788
Ni 3.74492734475298 3.2535191375991626 12.086332060207237 -1.161686371855154 -1.674609625457148 0.5833141446207308
Ni 0.973188295997133 3.5327071900682334 0.030232291494975503 -0.6559254403295542 0.10942332233085027 -0.15900473280340358
Ni 3.222334985687329 8.504941270966139 8.580791678278057 -0.6917347367186796 -0.3201928464113711 0.5981879764087699
Ni 6.11216678414734 8.484662902353879 4.059325106467308 -0.73013313399122 0.5714477322004481 -0.5402157707693599
Ni 2.8936739196057184 8.548847315697726 4.057976257285989 0.9499660538255899 0.41028558673440957 0.5649868070664528
Ni 4.989208772895568 3.485424459294101 5.120225103964188 2.9646868618845907 -2.3540210647237845 0.1301862659098145
Ni 6.122716646485672 5.920489657251161 9.72120624375194 -0.2672108948977011 -0.748608309977272 0.8100309360591276
Ni 8.122052452276945 0.028058435777855578 2.680967339607275 -1.0782558740436399 1.4543056795236309 0.8643848282196597
Ni 4.4302212139983705 0.4608327713474913 2.0058199556108094 0.441128283146879 -0.18725087213329042 0.8966773697047783
Ni 6.071089854748697 5.770811203781456 0.6731259354601848 -1.1048207690163618 0.6520459027694899 1.8428590167872716
Ni 8.290539959621478 9.008742828513949 12.340597431828773 -1.3132765573620413 -0.0897690384350325 -1.2232774051940738
Ni 9.238247965265131 5.05730831681307 6.162291406904306 -0.1675971024581049 0.994870370537448 0.6987569336727838
Ni 7.320609709346476 6.214078819382765 3.1633187272242753 -1.0346036845713278 1.3034053209949166 0.6650348588299901
P 8.274185847761364 1.7141427278735664 4.101666924205132 0.9407990426143411 -0.017277041912892827 0.8122523691904786
P 1.5251669498114244 3.2965581953738794 2.2275477630499454 0.32494630193595647 -0.868520190544272 -0.9885979072651748
P 4.576075798679355 1.0738226662434864 8.636423949755772 0.9976150231621205 0.639505347100318 0.5062157596748315
P 8.09544964196878 1.8847657609855484 13.054079328586624 2.0452328606049295 1.3802316832263521 -1.0148666111537166
P 6.468881722917559 7.880966195017678 1.8704194083939758 -1.8032588858971461 -0.30302353372093616 0.3407472735239551
P 1.8885257465248153 3.573975769215237 6.515679853613694 -0.6902383546788112 -1.004224300948522 -1.366987416621936
P 7.008978092333488 4.704919186648706 6.44029214355139 -0.9966146069220644 -0.8825000497631318 -0.7826908534832778
P 2.1808189913103604 8.791612789799771 10.526504797095855 1.264894309403912 -0.519143523480093 1.8212265261191602
