# total energy = -340871.15756650857 ev
CRYSTAL
PRIMVEC
9.19703624778457 0.00000000000000 0.00000000000000

0.00000000000000 9.19703624778457 0.00000000000000

0.00000000000000 0.00000000000000 13.46079219930398

PRIMCOORD
 96 1
Ni 2.969143633784086 3.605569354238139 11.581423243631967 0.17541608428189145 -0.1763383389858447 1.040984391286691
Ni 4.3300658950663005 1.0556634267963052 11.82173904512835 2.077719520378725 1.7906401686918707 -0.6955582242298279
Ni 2.0936961348523044 1.2814506699233301 3.8811098050696144 1.9413641495437213 2.8140621256147664 0.13233030883601082
Ni 6.976338369696932 2.807064261660764 1.7100592366330825 0.4446000437455633 0.7528017792333294 0.35129059625744014
Ni 4.5579224713788085 6.555564758279232 0.8638518754639791 1.2171795198264521 -0.1652877375986379 -0.20603560893996128
Ni 6.277713092205483 0.7776535716968211 2.9300240395420984 -0.819555330609795 0.07385545252856958 -0.2681436911246156
Ni 4.2618790673455775 2.9003865898078076 5.59145139071956 0.9095650243007238 -1.1591957442228167 -0.22529420005925713
Ni 6.076049675502988 8.478821414938867 7.291186034312545 -0.8893751796164103 -0.20957936042716163 1.099202908608952
Ni 6.701889607083753 5.742132875657248 13.075491000586277 1.7000956855433946 -0.9581627307037691 2.0372614123636787
Ni 7.297406909719924 3.951902153196769 6.244434535768383 -1.7699726130401905 0.10382088854240829 0.6207424646705181
Ni 8.99303691597655 6.608769613737067 0.019386432985232408 1.1850733833205267 0.03055807529251511 -0.38456915580491186
Ni 6.115137080117646 7.130361137951445 9.303292500327672 1.7306547892771742 2.328928383421215 -0.4520372167498989
Ni 2.0324346755256606 0.9089385069092587 11.885139735116963 -1.4046664192299485 0.0537180583487462 -0.5945897175345501
Ni 6.42107649529567 2.976372504378703 10.429206569808352 -0.322321976939232 0.25040924995933006 -0.13334486614345423
Ni 9.062143447335265 9.015358123270614 11.373965694010122 -0.9713794865043592 -0.13274914154098427 0.7548686890646871
Ni 8.577533206404546 3.9977953647325677 0.6190755113233344 0.5475128186514054 1.368630608652314 0.5906813836190795
Ni 6.603334165236535 5.128626169861955 8.407005436662628 0.2767206341603492 -0.9893651244485026 -0.33987849776575657
Ni 2.5840269324113354 1.9524020649476006 7.18144055830188 0.35611707111180607 -0.15240034011300851 1.2749714911342558
Ni 0.7313501723384782 4.630008842524617 12.280200272223684 -0.1410661460471119 -0.7201040318899921 -0.9336364634276307
Ni 7.2364489525938165 6.324259293324255 5.450853536468816 0.16419296187256238 -1.33248449774906 0.9309764000969644
Ni 0.7760119007030055 7.305481907661492 5.241888592584303 0.46117106073036707 -0.2783093188037078 -0.8212476307105535
Ni 4.091071707697712 0.9292409647179312 9.406334256521012 -0.4803360636945921 1.2744665264733792 -0.976583656413118
Ni -0.030997691414880835 6.89300402305848 2.58992407213814 1.0434966161855834 -1.1980636249326078 0.2633789227461206
Ni 0.5844118812074176 3.468046069249202 2.831114511794254 0.5250341779329152 0.16226514872223022 -1.447120474629101
P 4.4476224140744325 6.490403755527503 12.100821274669732 0.1466464683483668 -0.1854909520193902 -0.20454102667230578
P 4.304231419875107 2.180047109423369 2.9126729107077423 -0.7557719176052468 0.5162358629149948 3.183492368895711
P 7.981041017912103 6.880965102437165 7.871467526481742 -0.5199881308685754 -0.025050000990092344 0.5879436729729424
P 7.637973166868345 3.2391318337530044 8.257415639943238 1.2820723638450953 -1.0070887669805106 0.8243771774784706
P 6.311659353483766 8.09807330584658 5.186779950595825 -1.3047415233078368 2.8513302659376056 -1.1832453289728526
P 8.966954120803099 5.43792250331865 4.520228417775708 0.449867977012722 -0.5071410997025783 -0.8431284899440448
P 5.112577341378996 8.8682515263738 1.3254023870793274 0.16222941038828836 -0.6690920596184993 0.8841964636289482
P 0.6295546145746147 8.788697161687498 0.1432015352498993 -0.16132335363425118 0.38487691685331776 0.16485193561279995
Ni 3.976586998840473 8.41584010980918 13.00560180143163 -0.014144924041814349 -0.03524133970079737 0.016504425412926415
Ni 0.8754254260444698 9.270244789503705 2.455207722652354 -1.9375352627159341 -0.5938800930620353 -1.0723881024089532
Ni 6.707665345930343 7.63380690938824 12.02682743817873 0.31404173920831074 2.2784722836531923 -1.3501672597408039
Ni 8.881752775779523 4.848870717257563 9.63106200105707 -0.7174347125879451 -0.5338692597260418 -0.169976658433875
Ni 4.630854969871569 3.0094082590553737 8.1482615333718 1.438928168626296 1.0144166681004918 -0.38121335195880157
Ni 3.254932342253706 8.216659892929261 7.918458864161302 -0.21416749401847632 0.41809531258681537 0.6528923099301852
Ni 3.293504712831089 6.087205680631829 2.627465454937333 -0.5222039075729715 -0.9698386243798006 1.5959904329913481
Ni 6.664098984598663 1.3940959715045846 5.994225482238119 -0.8298307443938742 0.19874627436739967 -0.4275160916800831
Ni 5.635024189976706 7.462567289030518 3.199643438352182 -0.21834399399366913 0.3518464687609102 -0.6880256632982086
Ni 2.494236266234181 8.246835369291778 3.570138691288137 0.12825048233968234 -2.502350577201529 0.4209240402848622
Ni 8.395395097936618 1.0711788271692295 1.1858254038667546 -0.27248499881244687 -0.3308832362456818 -0.10220597864680463
Ni 3.0578214585592707 0.524128066847959 1.6714666325756642 1.1996654222020888 0.9459800725946483 -0.24105969042363
Ni 8.324817040757116 8.940972493029825 8.814409316294839 0.25176242155311485 -2.5597396566439596 -1.3086992224040042
Ni 0.663134833804977 7.126213274544101 9.945951052336392 0.14323435734302428 -0.355299203196201 -0.5339749320659707
Ni 7.72874791593815 4.754509123999588 2.831612071462408 -0.9346641333611967 0.8674416127681125 0.5170719856630449
Ni 5.023779955130872 2.0618559949050232 1.0156370047672574 -2.1608242594197042 -0.010682933635142892 -2.283330640186758
Ni 4.574440348717143 8.1963988217843 10.563814394264856 -0.17624706482361904 -1.1540779633802771 0.7628632772343895
Ni 0.12532341623097368 0.7984958955409948 5.008329853716245 1.9219158110111223 1.0559867782327943 -0.5185262016110683
Ni 4.367194330932036 9.248355842919496 4.306134286702112 2.2322374210553684 1.1423097671007552 -0.2770296807603358
Ni 0.8532826412561756 3.4878932737570683 8.037950439623769 -0.6776335214306072 -0.044931570405367785 -0.7051456108079469
Ni 4.3559095672938755 7.314467412204674 6.150303788123544 0.2997844579583482 -1.9046984186915714 -1.8336130727089712
Ni 2.697049312484167 3.308367123621039 9.323887423893224 -0.40642918910279685 -0.1554239574306807 0.08958623300026507
Ni 8.675546023105348 2.2533750804804678 12.620085028976353 -0.5663314940198053 -0.7020960253483456 -1.4238990422073154
Ni 7.563541551445655 8.049715288560963 1.1899125668339907 -0.666558237453052 0.4054277444214759 0.2000544516558619
P 2.5503933703699695 8.612923402394475 9.844052487765076 -0.9822282562934052 -0.3744870889785615 2.5724049108164535
P 3.163403436200747 2.2775356950505166 13.063887099785731 0.17796559017662253 -0.653843618099861 3.673482410740299
P 6.974664509075787 -0.04338334030771849 10.340634510951537 -1.2073195963132368 -0.03425917829318616 1.3799079813383461
P 5.181122853518536 4.911833628314492 6.703824663538088 0.5717439232846283 -0.1940828074534593 -1.0628058580371569
P 1.858389959072063 2.886076001200653 5.498895175702963 -0.13639316605147478 0.43346305329213736 -1.105859237583205
P 1.036128921525356 2.804755805529404 11.109460767130912 -1.214459806902444 -0.6529038798944111 -1.1934178986304802
P 8.185895806238431 1.8033364993018646 3.300707831723842 0.3799218868408877 0.1266286304655432 0.11066387960617069
P 1.0878898422715433 8.608334081240896 6.94891832543384 -0.04557048954094733 0.7326741552455188 0.4966936791170092
Ni 2.7660914645882224 -0.0022698285785641434 5.8292637589133305 -0.39748329276341865 0.015488582553902357 0.07498545236795473
Ni 4.913525883008397 4.4330727025214 13.181009518676731 -0.8059449389152121 -1.8009780602827692 -0.6540865873486026
Ni 4.300147935722422 6.021373294224365 8.385548750788276 -1.2810454652424776 -0.4737800077436292 -0.04764819800558246
Ni 8.040509055144662 8.667829709582595 3.837012774738814 -1.1466135366824315 -1.417615523191449 -0.48203993375957627
Ni 1.3064758059130912 2.088840099643707 0.8573137023014943 0.05402787627968115 -0.2239538839812788 -0.2796437213444152
Ni 8.560086428391838 1.6863226054401481 9.915758101604757 0.4368630801126218 2.3760081105178372 0.6554868101302388
Ni 8.957186868167623 1.6615733805417847 7.176756507673586 -1.2038838311588105 0.5850689225283084 -0.05297089577007652
Ni 2.883445648795996 3.909945273231576 1.1491559001163774 0.9199098578701577 -1.0560960501171488 0.09797599972585706
Ni 0.05967680995838395 5.349649348144182 6.735699752223613 0.022155710161432807 0.8113784512259574 0.15153027880322936
Ni 6.1228349995676385 5.559084260587709 10.919664286469425 -0.05084176524221567 -1.4306566726461234 -0.9778604662430126
Ni 2.8842090028155294 5.533378543905834 10.543946036573315 -0.6791772117686432 2.881552812267573 -0.9635340223180114
Ni 6.370180095969194 0.5594980293578536 13.289665145876379 1.1342187625625046 -1.1422115509599942 -0.7504499911717011
Ni 6.426879825251398 1.3109915507756316 8.593168168250408 0.27935652912129955 0.1476707958478231 -0.08065139240448047
Ni 3.0243074579908438 4.644963223678366 6.521794160395806 -1.5705336834811405 1.0268847186605154 0.3122064857717849
Ni 1.8689757479453504 7.749441247792968 11.921120380842485 0.1392810291222311 0.0833443658556113 -0.38822192206615075
Ni 1.2432277867283843 0.72199218782191 8.694568253449935 1.3536886426305008 -0.1910537908191484 0.9545490452105818
Ni 4.948382650888292 4.325127086530284 2.4041246234873674 1.184527795229702 -0.31279758238856453 -1.422232196027854
Ni 2.348076964084499 7.48632323399985 1.180755077710505 -2.2314900013663825 2.026065543647859 -0.45793095652651455
Ni 8.180708677720157 8.776483497374965 6.472891678556498 -0.29544649270462664 -2.558859053811219 -0.44774887378719014
Ni 2.47374526917972 5.862099018196919 13.018820701820488 1.995565575286789 -0.839038121924755 -1.4029959735060613
Ni 6.210188451104114 3.1007716184534946 4.20105906576517 0.434306118018723 -0.3688360613403712 -1.0355498505346812
Ni 4.921021467658032 5.42421891911257 4.38349331880453 0.3309122897114043 -0.24873494758070067 2.0898011341336074
Ni 2.816813120223479 3.9316502790881867 3.6565301328192734 0.3590836099392977 -0.580055271363801 1.0292637604156532
Ni 8.943262555088426 3.1233043575842974 4.952023757591102 0.29923064233740726 0.5621997312396189 0.6841942053672603
P 6.538163965448424 6.218125493499984 1.6594461060271093 1.1284358373321404 -1.493659755841221 1.3179397671656656
P 8.394751305390024 5.89175946052216 11.431362558649925 -0.6911323272479903 1.1331885215257773 0.3974107876542704
P 2.888540806950471 6.2808124934655165 4.743637307294885 -0.6342117028015465 0.28583519486710773 0.46441656425085825
P 4.59425996211587 4.188836204416257 10.278553595683443 0.21954598472157028 -0.7111740763902139 -1.5536603047645694
P 6.311098334264591 2.5496760015323354 12.617971550016247 0.6080144755808883 1.4038099847669243 -0.0077521331415931006
P 1.6293285709937868 5.534758099362823 8.502711636639347 0.947105444448343 -0.3838569602292357 0.09889362644412002
P 4.649911229250764 0.9519300534671926 7.017811485548542 -0.36269395299837537 0.6018983353808215 0.1144544569968545
P 1.5058491605569868 5.422517467382284 1.3167452167349094 -2.9106096204242133 0.1933667552230412 1.7190863677132846
