# total energy = -340863.54101254395 ev
CRYSTAL
PRIMVEC
9.31807673994583 0.00000000000000 0.00000000000000
0.00000000000000 9.31807673994583 0.00000000000000
0.00000000000000 0.00000000000000 13.63794719454444
PRIMCOORD
 96 1
Ni 8.459723401678204 7.599776741927907 6.394028802480779 1.0711539728915358 0.8045390597066209 -2.3984538411158627
Ni 8.178802026221462 1.367688657515917 12.008948987556936 -2.1884844443391342 -1.7820010049596342 0.9149232032888437
Ni 6.176226214773435 3.2799909421819033 5.788149753031036 -2.4477765986103908 0.6640311001558241 -0.2273361701899504
Ni 0.9820600545148118 1.4685941097787893 12.661483646894961 1.4157126497417811 -0.1467254012154183 -0.31079032215054864
Ni 1.8793442474830717 8.334320725849066 13.344199556568144 -0.8983796971078657 2.221619793440522 0.09129447394062341
Ni 0.041316351956189455 4.693114541542291 1.593458200776383 1.0791282493462642 -0.3681873720127788 1.0924856444897768
Ni 9.093911699860039 7.069494316696788 10.763286134884835 1.2284332383634005 0.5035222720030683 2.2427640316183055
Ni 4.777294046181942 9.053154432504067 2.9094240783106997 0.5693075459289937 1.3091082849169648 -0.760513288944974
Ni 0.6201180024096546 5.220042459172095 9.52191891555775 0.2281039015939104 0.29594888626234195 0.4676137310319172
Ni 2.327683506475416 4.66204807392345 3.632044651324519 0.3642836660829984 -1.0193660416859671 -1.596232116688509
Ni 9.553358106243401 6.280169360030831 3.8296586941179522 -0.7712432737679685 0.35126205701234986 -0.508824143831956
Ni 6.887698640858886 8.062307431689147 12.68882754288401 0.3502073904955904 -0.07932367473199242 1.3456940544607985
Ni 4.332076342874154 5.678594330195109 6.215971539003009 -2.5606595973550674 -1.9601051775966503 -0.41571267128725176
Ni 6.481915038019883 2.147825990584941 3.801536738726933 0.6538310196943707 -0.5631379267831721 -0.337833956531902
Ni 3.847033179877427 1.7125227208543707 7.4992617170775215 -1.11482261742408 1.452370410174131 0.7039495336173167
Ni 6.194964866957444 1.2556108313253338 12.968896314325418 -0.6117775421677464 -0.5358775484053222 0.6803138964762477
Ni 7.256098120096573 9.481422554348548 2.48326556902438 0.07848292399825194 0.023277996691334103 0.5217359667976176
Ni 6.106843815886248 2.3124204968894357 8.060640427772826 -0.4176314855765194 2.887731430274459 1.2066151140470445
Ni 6.228407444127215 7.6884568775993225 1.4271016461735309 -0.16764132543247903 0.43454291661987743 -0.937619616445095
Ni 1.5962238059321334 6.193856015833677 7.406373537981791 0.42477195327604267 0.9713347493093528 0.6771545249116595
Ni 0.43145676768106267 1.7897509402979652 2.555150803305214 0.038259557701830885 -0.44313374361268193 0.36055865182292746
Ni 3.297285292482013 2.2951447827426663 11.988096063776434 -0.5142918518147466 -0.22678981076817717 -0.5791808391786477
Ni 4.5373162996145755 3.4107794663264848 3.1069700991444393 0.48393560812039244 0.8336511465812289 0.028471110856499355
Ni 5.329669631198386 0.037098058647536555 7.827540353595821 -0.3611312364969458 -2.266665520826251 0.3291837370560718
P 0.08239975199562097 2.747761038926687 0.5197464759399916 0.30319039831610367 -0.3938014730364573 -0.37838102471632895
P 9.11947118416672 8.355696393730776 12.765936490946222 -0.7850225869402481 -0.9193658124412295 -0.6159365586414425
P 5.003071043903744 3.0361648299496955 12.858756648082261 0.8417940874033373 1.2485104687292496 -0.1828735690012012
P 4.715077248254229 7.094606533323294 8.027186668911051 -0.7954011019610947 1.3550387289004922 -0.6875839477750998
P 7.139202848267436 7.949512113594948 7.9097229944050245 -0.56077842541206 0.9694676141936273 1.481962264898635
P 2.7200024885258096 4.556064269875255 1.4181013159176707 0.7246304590054359 1.0760694079152822 1.3653005158378164
P 4.484501441047214 3.222796587579492 9.379129640469465 0.21556463147631907 0.6161682150362744 -0.11432873005226761
P 5.4370511467471285 6.542976394440476 11.238977676135232 -0.22149488091782502 -0.306192418367221 0.24625254747847913
Ni 9.103295003067048 3.1420647713078576 11.187467348301713 0.2507167538974198 1.7485175284902084 -0.6056801710207569
Ni 3.1867449489420325 6.009153100074635 10.320421245936304 0.8305210855926793 -2.0163969102098434 1.4825407631099243
Ni 1.8322040976079335 3.651055391347301 6.940501385926576 -2.705929754181198 -0.34848295160531595 -1.5843268806104909
Ni 0.0037663665901424854 0.8460124078975028 10.218258785130605 2.6126115649423265 0.06143162494292 -0.9087098753892802
Ni 6.90978248256754 7.913348658037444 10.450976818164127 -0.05094743758214451 0.6139241561971039 -2.496949460790616
Ni 4.5812789853451354 6.06585359661352 2.18137572563642 -0.4593869722467508 -1.350205569177907 0.28700067593011863
Ni -0.08253393229967354 8.198947707982688 8.775118865392121 -0.14287466001076038 -0.851495116741185 -0.3200609488191972
Ni 8.189378043242272 5.914015537270689 7.884383416707762 -0.5452471625456804 -0.7174172290864483 0.5081170904626023
Ni 7.486571428460215 5.154629560946463 5.321772561220291 1.3945673831227337 0.24287566058644625 -0.6184647243799349
Ni 2.684491298335228 2.1833651350055328 3.484617769477418 -0.6665785491680262 -0.5246883645577222 0.2495471590693509
Ni 4.07138451186867 1.1578455709003586 9.878142464010333 -1.3015091324134684 0.13843899283690997 -0.09186217351863535
Ni 6.912643132105327 1.0602573539321194 6.378713611665444 0.8478132970142238 -0.34673742966911897 -0.882268650478616
Ni 2.285267621472129 6.327495871439375 5.002331188616121 -1.7268310446557098 0.7663373518259189 2.0240641969471143
Ni 2.292740718961724 7.1001321527887935 2.628032139982105 -0.2547078773346839 0.2114048436716746 -0.39571668778129915
Ni 3.829179744977098 7.405560069888472 12.522908937884662 -0.4341155992744717 0.9529300215499201 -1.141969353042201
Ni 0.08151453471194078 0.8341094967588387 7.659180412508851 0.4815095151774029 1.213372487375536 -1.499014078174599
Ni 2.1207942501643484 6.173365565235647 0.14413387355181095 -1.224459341317317 0.4848954009305004 1.7046164562318833
Ni 2.2170872544754134 0.24028151586681892 1.8104240251987327 0.3183946168603678 -0.1552367811205391 -0.023809443714771897
Ni 5.616051399583935 4.0352303743878375 1.0082317364587337 -1.6134109424606407 -1.855774953517991 0.18610853099873112
Ni 9.003134996937801 5.711505776994671 13.213452031960912 -0.4158067736629548 0.91951056554921 -1.15879902300503
Ni 7.426684149700083 0.8098759747623431 9.012078486925972 -0.621600441795439 -1.5126231843176012 0.5785285503066294
Ni 5.247260561126095 5.135285233778884 8.20109738827053 2.2813835437627157 -2.098650614104437 1.4138560561490165
Ni 5.407018985638694 6.069012424604757 13.376371148080082 0.8977752307546474 -0.8643629738427888 0.09974029071513145
Ni 4.1089177246967115 7.246416638436113 4.3421855242537815 3.1196696180127947 -1.0579148484934426 0.128001856663986
P 7.6979054073430255 4.066790700070204 2.9736041949928484 -0.546460209017175 0.2243765733409942 0.7631155024545115
P 0.2971497377857689 5.592066670234536 5.919673473424907 -0.811381793660067 -0.22577062547504345 -0.4586819757599262
P 1.0245877564381427 4.814612943246566 11.749609209476317 -0.4206407047164885 0.9664697079075678 -0.25623279861964254
P 2.5277332945104707 9.64038894234417 11.563069700805558 0.8676149051211831 -0.9988280696336151 0.16468712790016155
P 5.8485746848150475 5.458426814628838 4.002969329339863 -1.6744088223002516 0.16484550785489674 0.09992541014274403
P 4.005925023259687 7.830911633735143 1.0237770837678248 -0.6686459732200162 0.5130399816855165 -0.08144380639878877
P 9.642625280745046 2.3193065555488004 5.7391068518998205 -2.496292286822591 -1.1060505276584047 1.1989923073944642
P 6.4494974492838475 -0.22568381695509893 4.698205006827285 -0.7563869254814264 1.4019361647829793 -0.13835080399847788
Ni 2.4040358267120006 -0.5482420862054906 8.016467153509517 0.4852682108888869 0.2990972020833365 0.7643095227626127
Ni 3.0174261777656857 4.497211297625527 8.39333769624819 1.7479254034321638 1.6487497269712508 0.7800454454406307
Ni 6.035942570501799 6.967060699859983 5.95610063055218 1.3581047694203254 1.9242714557274927 0.6612887615239966
Ni 2.2078623585717985 1.5687261616780253 5.880941955937064 0.4516304682297834 -0.9163558219703123 -0.4596247992891697
Ni 6.445555902852302 2.875521188153415 10.660101481068404 -0.3298601942978061 -0.45045778807792103 -0.7829680184040645
Ni 8.634828698466817 0.24720857406353325 4.8775164834248805 0.22451052781569722 0.6879457019898926 -1.1698233991399918
Ni 2.339778369993489 3.6920362925433596 10.356466361920093 -0.45384598782386354 -1.4585235742597205 0.4357958151903721
Ni 0.15734504265498767 3.6001600565740253 4.098107823951476 0.18565627395266088 1.1867417721618851 0.08397557168170698
Ni 0.10762658096517255 3.0573448182213276 8.721303245390368 0.11015428695960386 -0.4507087277464625 0.940890830997199
Ni 4.1343560740066785 8.01315457725322 9.984477559549 0.5681760034277118 1.2188116561132365 -0.25503389321553493
Ni 8.798565941717643 0.43385337700066845 0.6988194097748264 0.010156885928343799 0.2874488192111308 -0.17579095112280693
Ni 8.030616652933396 3.5354460140986674 7.0007809557145295 0.8642387895600986 -0.6022225514894596 -0.4360205296066684
Ni 2.933470306966122 4.537018121161125 12.658824267813253 1.8167769749882388 -1.255065239128632 -0.3505362345899189
Ni 7.083126662865462 5.5610933833824 1.4505729494983948 1.8646462878656918 0.7182500094003887 0.6581453307990085
Ni 7.4427951042630625 5.430286223084478 10.98958028586184 -0.701970555514075 -0.41096975728562773 -0.21973804612771836
Ni 2.370509386852197 2.614652313691196 0.7875219088302503 -0.23243621042067708 -0.926526848966043 0.13563854727363736
Ni 8.799152980547873 7.433691343356162 1.5490939059413327 0.17426782961006115 0.07778126994553701 0.019828347579836817
Ni 1.2288213608981697 8.791670564981608 5.970147631132685 -0.322082093014284 -1.6375356034229862 -0.3770126836138926
Ni 2.9049383562016087 9.074958731912613 4.259321732039979 -1.4886260500720556 2.145939114777756 -3.3892058186095633
Ni 4.571234098694532 1.4241096117546919 5.187915594428174 0.50907225528702 -0.6231089080201656 -0.6490618804405015
Ni 6.963389377651878 7.360087855737321 3.7278642973407314 0.9384580531859902 -1.2103313865563672 -0.9464768097254087
Ni 7.591530244074677 2.3863128448850564 1.6596696581726607 -0.7270745496705543 0.18685646490834917 -1.3438595723552211
Ni 3.9148967322673522 0.7050942026046185 13.577244654092794 -0.17106526351236345 -1.0663200418380023 1.278388744345921
Ni 7.162880081086713 3.695940566668223 12.8033047738172 0.672318536975597 0.200258597246868 0.6359626240543822
P 3.4478560933976796 3.324522030589352 5.588176373224679 1.7544449497182362 0.9054916255622987 -1.3728009379799195
P 7.390995916052765 4.2874800279300125 9.072849119354451 0.36662285573913633 -1.2222075691686627 0.39789878303428244
P 1.7621042068171322 7.209600917511687 9.499798733350081 -1.0058350970790677 0.606794230020542 -0.8033787208499326
P 5.807314241318879 0.4868667106011079 10.839467934318353 1.9343661209593332 -0.24509889349001016 0.5918628055216903
P 1.8925293259715714 1.8206869548434208 8.966909110266608 -0.166163712445688 -0.4726235255416828 -0.41885224535749804
P 5.45613456776794 1.6130242981687166 1.6172835910147187 -0.2364167923349799 -0.00384071390232887 0.602683293175962
P 3.4902440241709556 8.773379180477773 6.067045378619653 1.4104316038485 -0.24571570113840266 3.5328798345931673
P 0.9806250707075829 8.866224496420822 3.477921799582127 -1.6310613085525523 -0.49801728302443915 -0.30058252837961136
