# total energy = -340865.04947656096 ev
CRYSTAL
PRIMVEC
9.25978107421401 0.00000000000000 0.00000000000000
0.00000000000000 9.25978107421401 0.00000000000000
0.00000000000000 0.00000000000000 13.55262559512632
PRIMCOORD
 96 1
Ni 8.354581777750498 3.432850801690129 3.4590772791941333 -0.0724814549991784 -1.003918339672329 0.06986510042225387
Ni 4.599648016267347 6.714285665751662 6.5997764369419425 -1.5971443440901334 0.860996371363401 1.0722050398638696
Ni 4.765046223087431 3.152835026623545 5.464066158874433 0.47185913657183254 -1.5592069456144115 -0.9694483309199176
Ni 9.358027197091287 0.629153962756086 9.70041315253282 -1.298159499214945 -0.6560763640851217 -0.8937293428200479
Ni 8.071741769502852 4.023485927768902 11.611374512823698 1.0986573205181271 -0.5739108490289601 0.1505188068195795
Ni 8.258326355071361 1.013325605584044 1.7222136898991032 0.864155228707357 0.7128964583979593 -0.023620981853049644
Ni 2.1423706933442492 4.148289255029067 5.804806651246213 0.6679052383992498 1.2148279888751399 -1.347940427292814
Ni 3.2288763475510183 9.023850963414768 2.3253319266381682 0.4348501634476511 0.10163262264183787 0.025512799559123805
Ni 1.8137410684397162 7.929280040025359 9.347611795510769 -1.1949582465344066 0.4015939724976826 0.2374151516925072
Ni 5.078378689909622 0.7467050295985223 3.9083877768925745 0.25236971611981057 3.003276549232331 -1.2816422182862122
Ni 8.055231580119793 5.5099492993186265 7.190575461143025 -0.36454000506817863 -0.025113250127859973 -0.286777504175719
Ni 5.77528832162461 1.8019626271075504 13.198834314884374 0.6151024927759213 0.6473168727249369 0.44931467561241334
Ni 2.634870661216816 6.648569000551676 11.425175134141524 0.18954661014600258 0.054232536091319505 0.04471199819539397
Ni 2.5333834623170217 6.812781955413806 2.664459365173421 -1.1315065058376643 -0.9362474186879166 1.0566130989628835
Ni 7.666876368271495 9.015165288910387 7.89804957691137 -0.7499226579133215 2.171364753939712 1.3309156106000433
Ni 1.1746587685795828 5.10570430340901 9.827902742238319 -0.215560517711261 2.0169209010341134 0.32400244996544847
Ni 5.991393088770905 8.154848303273441 4.8202215536863635 1.0169697735396483 -0.8832071031324853 -0.15943230725912544
Ni 7.93338212297359 0.5157410920074744 5.480952295362905 -0.2370225442397789 1.3860991977507227 -0.30249234380781453
Ni 0.23946997234555062 7.192386674291273 1.5127981884905104 -1.0067452675981632 -0.474259518483209 1.0180648063760402
Ni 5.874182781866381 3.624204174433217 11.623571496253515 -0.5691995595962197 0.14823258188856406 -0.7926160830167898
Ni 3.502789926990325 6.59373257793447 0.29689913362078063 -0.2651247017926337 -0.74023448409128 -0.73310044414966
Ni 5.738462172899749 5.7735752621541305 12.915381309139727 -0.6227085872579533 -0.8883698782803474 1.9181298616061286
Ni 4.736211265297836 7.324995996868275 2.0151264878331716 -0.4795449352518645 -0.8053055055590002 1.3065040145248983
Ni 4.514569149160476 1.233800989325293 11.279186354111028 0.2966456552190504 1.3262871106890965 -0.5108090354724686
P 3.4353694621007813 8.713796459038791 12.145510159631758 0.22275292169464217 -0.7553062908227379 0.3185928489141029
P 1.139369743487693 2.5214013058045825 4.224475028538916 -1.0262938791540517 0.956952769556068 0.912984591505234
P 6.217535458436121 2.8478919213162457 9.57659691791889 1.4494943741779167 0.49804299405605196 0.6259060111493285
P 4.8584588930236645 1.1590189986031458 1.517731799765493 -0.8236007043237623 1.161656289948167 1.6938396773313538
P 8.983969086985807 1.6175633498365203 7.806176808542383 -0.3106653665369101 -0.5496833439401629 -0.6384769058358036
P 3.1449179139356507 1.5716070571230463 5.045249045728629 2.0541003382978884 -0.2845982371362131 0.21265774224216924
P 7.15830142071918 1.6325456753675298 3.6402893398719787 -0.22963782173993355 -1.8356869245188645 0.021365610159969656
P 6.9142135956280715 3.9078220042782696 5.588451870015038 0.31835219365820655 -0.006510033204375884 0.01915343299999927
Ni 0.48483749916001356 1.1738902067630972 12.929841383026762 1.7039189159442265 -0.4334658815056148 -0.037412379210187176
Ni 3.572534596891168 4.821790160574468 3.8113915717397147 -1.6509030258688278 1.481756833756048 0.9954231577171243
Ni 3.5344398581800593 3.982835489523455 12.133313176201941 0.35484180394380826 0.017974839310865815 -0.057361568638604435
Ni 1.406032914465454 5.376108425879062 0.7856905592342807 -0.279799273085673 1.2130798958357818 1.141501926487479
Ni 1.7742851419331451 3.8324288680153025 2.7264767478952616 -1.2409578531929726 1.2803666940078984 0.027928350979151903
Ni 5.256129444479005 8.761104679766808 0.4417721100502361 0.07575524065444372 -0.6398244210026336 -2.0113079257227104
Ni 8.516507566725014 7.573250723374066 6.045853564282697 0.31138193298796046 -0.953685411658706 -0.6035443556246767
Ni 9.222658459799673 3.6366863591154175 8.239196573665605 0.49956225891405576 0.11207515813140052 -0.8629367829192235
Ni 5.611621693836851 5.197940981168211 8.19078643900793 0.9918426394547177 0.3218239542568909 0.12258788473726631
Ni 8.224935585068382 4.881219434528745 0.12677658657454063 0.43922052460120486 1.1109821606320671 0.8978935015000666
Ni 2.3350574745400343 3.847929741277917 8.260650560082661 -1.7089467081761214 0.5935427643272746 -0.27267860288049167
Ni 1.9912510687051403 1.558921157260572 1.842086183818563 -0.40383828844716907 2.1480124523670168 0.2638494346246359
Ni 0.5949270345358937 8.975209334234055 7.138330851205751 -0.027544485277171918 1.9948076140748419 0.6139917762102457
Ni 8.720972789252965 8.172340029434181 3.7304823839818018 -0.17937249782647818 0.6556379909961225 -0.46488013415083806
Ni 1.1443515056234674 4.303205389845997 12.385486641993717 -0.4346699291160449 -0.14370229811837834 -1.4632227795076025
Ni 3.0985727104234733 1.3058235653328292 13.38240484176293 0.6484404448064187 0.3072208596317354 -0.19546091874790852
Ni 5.524385297775266 8.038239882128815 11.774330915414778 0.05371934390032684 0.4473961184334618 -0.7335084782213561
Ni 6.9663091230925085 6.298197410043429 11.107501682023328 1.6694509640743445 0.2781964473749273 -0.842557447931923
Ni 5.608853019341317 4.219561788781961 3.4611375804491704 2.9469976721349442 -0.35520792903397536 0.44961780867512885
Ni 1.570597741002601 2.1503804038413588 6.59247139577296 -0.7449259760296784 -1.222635914955333 -0.5694666972146774
Ni 8.523507961101679 5.65926326667804 4.617718478735681 -0.20885199534283386 0.4335975219874726 -0.2216375771432764
Ni 7.539517341476992 0.08312412735433923 13.029846091001021 -0.6560318840004314 -0.40680482727466066 -0.36590397529524077
Ni 1.6789927364698443 8.306875386442858 13.349403908536747 0.5515949591405791 -0.47694246463201095 1.4501980851131604
Ni 0.6658615862851519 2.895376077881769 10.413715374413167 0.2859059002040431 -0.8206459925708126 0.2424660838528534
P 6.604668379202779 7.6209571146817074 6.92037690580943 -1.8344844195703311 -1.8054934316546196 -0.17417321301372582
P 2.9388322297464344 2.8298260887383715 10.266764503144922 -0.7336907694354913 -0.14803666382767408 0.8445379686970617
P 2.4998445358192978 3.638640172889857 0.5483327429169274 0.43691218818300237 -1.9978302029512494 -0.04048227638476254
P 4.237849856101951 6.742787271428082 4.377443831428051 0.35264068252743136 -0.9203639146884408 -1.2248684038302777
P 4.917628893112139 5.890415177821794 10.816377873763294 -1.8516912703669208 -0.0935372472282131 -0.520289207048762
P 8.940475895997455 5.21738652110339 2.5612970719049253 0.7512722299626804 0.8970537792075904 -2.3707936561964336
P 9.220612048216019 6.124057970033435 11.321335024909576 0.5703642693282822 -0.6873913721483194 -0.2826357140932036
P 4.004299661699524 4.3927104322333514 6.889652952711847 -0.7992292174579332 2.528463472238497 0.8009346301848141
Ni 6.448428095714072 6.487661787478528 3.015540254900257 2.5514445065147027 -1.3604465301796247 1.2455354452613259
Ni 9.01725799939865 3.6853279882961307 5.824891116064976 0.24819707279935962 -1.4595039358951187 0.17797536036863543
Ni 3.4897614152337546 8.585761468237017 4.785052905746453 -1.088128138852029 0.3029985940202717 1.2187823455371978
Ni 2.055847300413622 0.7842775166656576 11.076777728925745 1.0865065440882062 1.021783649988524 -0.2977072637143453
Ni 6.051396469142316 5.807012331061717 5.187836708226655 1.3877948402855906 -0.7610449930787281 0.7059079428952681
Ni 6.749704327776453 3.853587467420962 1.5179484786390567 -0.390927751033088 -0.6609501472376552 -0.675111783450018
Ni 0.40922120217683783 8.552472555824174 11.462281854228308 -1.1139960077577264 -2.360813147944954 -0.18051715295388265
Ni 1.3656602696476527 0.4360708629368599 4.642519875955864 -1.1348687374416777 -1.178333750603848 -0.3576095964969325
Ni 5.4703729956600755 0.6023580087254087 6.416937432756187 -0.6917522202201765 0.07702073763042865 0.10773333622293704
Ni 6.726601174377275 8.792939806574973 2.428887760595828 -0.8631262732222102 -0.07762160443922116 0.006179132227518391
Ni 4.019763495838452 8.632402984738684 9.921402454115213 -3.1883584387387605 1.413410998191798 0.5043825631208345
Ni 7.649773552909458 4.727701526630964 9.426569021450426 -0.5693250294304905 -0.7903483700285356 0.07459335913585863
Ni 3.5581541571200574 6.327291641698826 9.023215742443552 -0.2449122314005008 -0.9822976760787598 0.03154666445802954
Ni 5.549266329111375 7.602993139693969 9.026495556845951 3.7223305425912536 -1.5854483958094436 -1.407150619104383
Ni 5.544191969166385 0.9188721362722325 8.795586251962341 -0.43243126959351336 -0.17111411447242791 0.8622176453650118
Ni 0.24565087611066125 2.941776840079476 1.0324850182887488 -0.1485493417980345 1.4375688263849242 -0.09270009603889841
Ni 7.566676278919791 1.551013304353599 10.866657558189026 -1.140265740087533 0.738852773252405 0.8982431715300013
Ni 8.283651855891701 7.077574650645421 9.127286420220448 1.1484356774928348 0.1514361764275263 0.5316617105517618
Ni 4.3798948954379755 3.2746011457414546 8.649936379913571 1.318235958249846 -2.2545222005954977 0.7491117319762519
Ni 8.446290647997174 7.188414228275944 13.015249898334439 -0.3449150317483995 -0.22666074138948059 0.059196822075130315
Ni 2.3871159628807863 7.818051551596133 6.982692453476944 2.4860978627880925 -0.89584510361147 -1.3117434085469668
Ni 6.905398284190789 2.4090801632266174 7.4632686014568765 0.5783269758187847 0.9533030886186228 -0.8936645510203834
Ni 1.9730000405088362 1.3800962681042932 8.686771788419353 1.2226246021014235 0.15306702716272994 0.5302913125667964
Ni 3.990502588126468 2.9986041155948073 2.553612379718161 -0.22044252839391065 -2.42906025314781 -1.1756130092385753
P 0.9067492310897862 9.091595520636563 1.936249821987531 -0.37426057479005226 -0.41232370021036086 0.3074715421899608
P 1.0586429734139338 6.447279882879804 7.8604141233339675 -1.306385743779479 -1.2408825198703468 0.7977747443995938
P 3.5692473746640307 0.3282175646535253 7.6584934886032485 0.6472957896790142 -0.42064250448870133 0.3538547574401906
P 7.499653984609873 8.600984548071986 10.838088356111877 0.21696819669206505 -0.22105187984313546 -0.7907468910185349
P 4.656262316821484 4.574322515447006 1.0707825462020386 0.3577620629143968 0.6228947351268305 -0.3127379327952227
P 1.1236744148257267 7.081019289148225 4.646002479560446 0.6228595110135209 0.4955631650569918 0.23235702044330953
P 8.027961525305935 2.2162822646597737 13.218173367338958 -2.272036041109545 2.035501235139462 -0.17937404048837494
P 6.864044102595308 6.860284631541173 1.0065835590950898 0.28297098594543524 0.6843942371932084 -1.1241364386258381
