# total energy = -340858.89140460733 ev
CRYSTAL
PRIMVEC
9.46678000332517 0.00000000000000 0.00000000000000

0.00000000000000 9.46678000332517 0.00000000000000

0.00000000000000 0.00000000000000 13.85558945165324

PRIMCOORD
 96 1
Ni 5.103152797915734 3.393016912359078 10.430293390228382 0.26532499072889787 -0.1700270520558362 -0.8074899148048287
Ni 0.30789091619368714 2.1067560878378124 11.388379776372277 -0.08879896121227933 -0.4207391779675657 0.01717265512454462
Ni 7.044637845763466 1.252615889470014 1.5412816694503975 -0.4634431445939954 0.6826672271997727 -0.1420339092770199
Ni 0.08230512938353536 4.4407811559163095 12.69248169391481 0.35165132203096855 -0.32652110262224415 1.1485099823741962
Ni 3.8145726123681447 0.6489013611653155 7.634110550688564 -1.9554543090882002 0.8395867953393734 -3.143735657823063
Ni 6.251179705268071 5.229875110970335 -0.04660590313753959 0.8188588187634027 0.858914806244024 -0.4552487817086612
Ni 2.6929864207159055 4.484423010330003 11.937754042525121 -0.13064160827967825 -0.5006552348679184 -0.1649655783725288
Ni 3.5429233688972226 8.667887627240104 13.865149682146411 0.3435127520842342 0.44448511543425384 -0.3117575711598244
Ni 5.388576205849113 6.738236054016476 3.6623922353462324 -0.2574183342873115 -0.6622647522840207 -0.12854204543817216
Ni 1.9974147823110953 1.4257727569495973 9.707807697138511 2.228597510309936 1.0802420512357331 -0.41660304431200507
Ni 8.383827435583422 8.329260917396756 7.257571281505527 -1.1909390980726844 0.8467547738427224 -0.1427882709445412
Ni 0.6212716179349885 6.606789817891933 3.213027869970522 2.784576457450824 -2.162535071463224 -1.9150152272365473
Ni 4.11523753561737 3.579427271417657 6.026889920598752 0.5467453443577616 -1.589561646646869 1.24611162947977
Ni 2.5996155725418784 7.242521941817577 1.6737408510027636 0.10315908658869331 0.8326332468396758 -0.03971325942922192
Ni 1.9565656279086896 5.279708239307361 0.5373921630874624 -3.1599325792978994 -0.6018507699723377 0.5022899422578639
Ni 1.6017317912201685 2.291358291973829 6.835170198069314 -0.36974083254282775 0.32385358309241 1.5252917809242053
Ni 5.505367866999166 8.396721189533846 1.6326455603281764 -1.2957097521228718 0.8985018245080266 -1.5376636722259969
Ni 0.3276660723075192 0.743177233478594 5.352691430721012 -0.32761484990705514 0.5231089358857443 0.21454647462444984
Ni 0.8630020508442973 8.827933004836181 0.573965173099702 1.2254062786116184 -1.1531353969613496 1.0030670474156274
Ni 3.4313573701411735 2.5051560447024332 2.541447891357605 0.32132773134676273 -0.9141804115855481 0.24976621705869242
Ni 7.395637636673778 0.9813642507464614 6.43971724972508 0.8404380875960752 0.20638476474926393 -0.2694667808114133
Ni 2.6859999372978347 0.9928663880810901 5.319326712348859 1.8054214407661036 -2.158090148317993 -0.5914388306103943
Ni 8.396295184447379 6.617032873526558 13.088764878838672 0.6641683970646368 0.41691209091199166 3.6160683915972043
Ni 8.975207696617925 1.4220617793074783 13.620238411258141 -0.2172474184953807 0.9109112539159732 0.5699523786018442
P 1.3280755904529977 7.31838871432763 5.319963826622621 0.2895005595338369 -0.22438917174648454 -1.5963532156474054
P 1.2099112462465489 5.426670527359028 8.624300680148666 -0.9732265670154273 -0.4203203452625922 -1.3697323263569248
P 6.450758354888353 4.938828435895582 11.54820363132339 -1.8811106040693024 -2.0345843797521477 2.855626322209798
P 2.980435719504931 8.442067064293411 8.883773751570372 0.18124914602390074 0.26028845674625495 0.9104355998311352
P 4.423939754831285 7.496790177760615 11.88985497728066 -1.0640947520519093 1.1909097874966457 0.5823322403234358
P 6.742325702846567 8.396427719363167 3.2754612820872926 1.8577289919205682 0.9318202361544985 0.7165145147665208
P 4.169851387702532 5.59299237989573 5.656710434017692 3.07082817103006 1.4589555195908162 -2.256646703137668
P 5.5827209239220075 9.388025558964554 6.252362106052511 -0.5107861526543331 -0.41352646226921036 -0.7720734829787478
Ni 7.076247423179372 4.712127462436855 9.568350672032436 0.30489915347709423 0.33811960609312086 -1.7020551232626107
Ni 5.6026106280702 3.5970828155568197 1.6882202905528167 0.1328841244569518 -0.25209769340534643 0.012694050527900718
Ni 6.061919845520007 2.7675657111868563 7.619936888122798 -0.21682087248092335 -0.8839442384088261 0.9221816846234699
Ni 3.157833704289793 6.127079690190172 3.61133410571612 -0.8412711250203317 -0.9410607809161599 0.6501458575332997
Ni 2.0930671243926495 6.378640427139215 10.288564337994478 1.1191808943927757 0.8590163648188949 -0.37320308005981534
Ni 2.417086593160005 3.0681643669781855 4.660243829616965 -0.8063275190656112 1.1011471768195165 -0.8815500271450366
Ni 7.105736441942637 0.6294764759003569 8.872385215592134 1.0021298803133387 -0.038424879635101564 -1.8807923014979349
Ni 0.7479551171928223 4.794886050567985 5.121676445753321 0.42679643990523924 1.792305986430068 0.12481497429557215
Ni 9.342102210643333 7.466487015943211 9.158017839356868 0.7015234406743273 -1.2021843319692005 1.3574864191100362
Ni 3.7216277692805857 6.034049646085318 13.531534685475862 4.664397396174425 -0.1065017778086811 0.46831821329810963
Ni 7.005208708315953 6.649030588910134 1.780373710857516 1.5906240264731122 -0.6395009762249438 -0.07970136978638531
Ni 9.496505387538637 0.4612186669151525 9.595078231157421 -1.381871275712304 -0.5562458276490291 1.1149210906751572
Ni 2.129429025217595 7.093779899182444 12.557001662960403 -1.9274722220529774 1.5882742952940132 -0.4102413637600354
Ni 2.593225496244862 5.943376830125587 6.7742741909757065 -2.6020705562016864 0.4076368362576528 0.860216812884899
Ni 8.048769701686703 8.788958272814234 0.8140767866804334 -0.6928817058389294 -1.157375403184626 0.09618676903591822
Ni 4.771171767421282 0.5941322538930843 9.539087909303982 -0.8020851988494896 1.6674059086198574 3.322903495837903
Ni 4.732376904213621 1.424494741690194 0.6291782723398295 0.11712326207826927 -0.7458145492822188 1.611708615057553
Ni 4.067458698475089 6.540853697286428 8.503812241526044 -0.7825224462262136 0.20293280164492147 -0.6003309908937016
Ni 7.13698628172997 3.1101874020633025 5.3103342183125095 -0.06020803694846405 0.8477490194351915 -0.5278901593244716
Ni 4.78322297797847 0.776221028018941 12.335742194472825 -1.0116918129701609 -0.8192090030139698 -1.307395415990916
Ni 7.4811605244771 3.104374799327943 12.048072319716804 1.5333619595268495 -0.14590110554191002 -0.31225533673184935
Ni 0.1323995408402607 6.4188174401829725 6.89501255258239 -0.35580751029118723 -1.394218484423747 0.17952830667805209
Ni 2.866957431249627 4.2026064454620515 9.413279140490362 0.364788630743875 -0.3601002241292701 -0.4091633002045083
Ni 2.83642706671944 9.369091999565988 11.38528981947843 -0.7732081108038232 -0.7667178750937892 -0.31214477929591405
P 0.027584302687770478 0.7560908676663859 7.567465368283583 0.14832462738173813 0.3349743755959199 -1.1529687894764982
P 6.690561351450888 1.1227222052161534 13.064517615994898 1.7186639354638853 0.36339843526456767 1.888922386804237
P 0.006113646329796889 6.894314850918554 1.0837522065840555 0.24896069043826155 -0.8622006760841473 1.1867926800044788
P 0.9894867477284461 3.2869795129474104 0.5643033777386138 0.19338141051106048 0.02311036076521826 -0.47353832404646834
P 3.567413927979267 2.437837774260833 11.520326805142911 -1.127167512142678 -0.30297031188549756 0.31789222330265254
P 8.21870786406853 2.884556174710594 9.851365731210317 -2.000366853330174 -3.7278023643391025 -0.9559058163487925
P 7.393394009885048 5.238442546598186 6.037310005013752 1.1121157600158784 0.28504972285133484 -0.34337571228573766
P 0.7910980723163641 0.065068963585051 12.478121614472068 1.2309305508639576 0.5720380574862793 -1.519240175413487
Ni 5.384694826172408 3.282558526827845 12.999313277460146 -0.7012421619884825 -0.9068771930559154 -0.8135057819816055
Ni 8.205416505370737 6.46703174919142 4.303074538376631 -0.5804093122691101 -3.5997007488724586 -0.13126021570028362
Ni 1.762884782041061 4.283878749180395 2.7531468590268786 -0.5384594501998856 -0.10168738713917326 -0.24424323035793422
Ni 0.03125457317718246 4.2824208651067055 10.396028381106827 2.4646096110073294 2.420764845908237 -1.05779812040992
Ni 4.86320779965771 4.167541493455907 4.019354204111153 0.33221121102848594 0.13054442058018165 -1.858046008940355
Ni 8.206864922664728 9.109067961565785 12.00297163455145 -0.4269748744646324 -0.41975830211153514 -0.2901939860564357
Ni 9.009931844554895 4.432043318253871 1.590081025444261 -0.6426017266374546 1.254415521359775 0.266878708369263
Ni 9.369309735499073 0.7446767713829605 2.5086095259367323 2.0057576853284425 0.2841776046590267 -1.550376234696659
Ni 5.335032099869969 8.475929735277745 8.138523293337634 2.0191341066353483 -2.4681847299530975 -0.25628627756539735
Ni 6.192485671132517 8.358617401244231 10.506956318911143 -0.7833184597649476 -0.6041935591729014 0.20852289413818925
Ni 6.575625179121894 1.1679639453990263 10.886253261020583 1.0998086605137511 1.683900563840771 1.034543520757354
Ni 9.191722415120223 8.395783978343616 3.897826313077548 -0.9564588606387849 2.4386286135625355 0.8210805090050697
Ni 3.318674291380609 3.203028110574169 0.22778870644617494 -0.38797509616266734 1.593663070409752 -0.325946975286329
Ni 1.9464267068507577 1.3995024432840872 0.6265342007698198 0.35926847225659414 -0.6316938214756992 0.16567854527915338
Ni 4.208381181078614 0.011927195743126512 3.3640675000386704 -0.28463834634552915 0.22629693029215864 -0.679298824948172
Ni 4.899749569296942 5.938757041632337 10.457630609966001 -0.21765725233928968 -0.32868031505709205 0.616373646178861
Ni 5.81068097908074 5.071221349990053 7.4634652198632 -0.6161106223254615 0.9245746103356788 -0.17500625043798249
Ni 6.819281155022037 7.6332538071257785 5.35271888438214 -1.9349736726363453 2.160215936411744 2.3154455184434317
Ni 1.748429009440256 8.51572807713353 7.043626793691583 -0.4509339563833911 0.8267775593898471 0.30185856687855755
Ni 3.7685072623514344 8.019062946990353 5.06901180360824 -0.31404456742178816 -0.6691650789482798 1.6871758921579332
Ni 7.560501605136789 6.563346765851924 11.180241264547904 0.315589800421721 1.8394901003150386 -3.3415522212873414
Ni 6.207963855940845 7.901627544820749 13.123986032709853 -0.45832896329588163 0.2649038440310793 -0.10284104112764224
Ni 8.592106055747346 3.794938511271832 7.421940137390266 -0.16724666109722164 0.4307615952005742 0.09931862979668056
Ni 7.761528672051061 1.116351062478536 3.956934992163931 -1.487762930740812 -0.18179062034966756 0.6264325730767599
P 3.790460724474071 2.8283897707547485 7.910709973264241 -0.34979704243104914 -0.42047178323879203 2.1335196580674802
P 7.666993409974023 3.0488616031713476 2.6847702026148976 -0.8477852719897657 -0.21994013483619543 0.0024960269489763464
P 4.696810212883415 1.8536333322383867 4.430615727875219 -0.39077965549099797 1.42113664897083 0.02048989242323568
P 7.196021119934699 7.047525213571747 8.960811564729227 -0.5785802294801713 0.32543661130881374 -0.8091688451691483
P 0.3088091938245176 6.353297857884236 11.439063021526296 0.06433054375726986 -0.007581926112315975 0.19736199242536331
P 0.09872336541600168 2.9492710807348916 4.657916895166881 -0.41159839200856213 -2.1900417615239247 0.23563569119458125
P 2.1855859623937413 0.34472520932562695 2.5784147194053344 -0.3131462239772349 -0.15354165280630333 -0.3459100486718172
P 4.844406775174935 5.775048020292639 1.5782484974981272 0.13946434877763078 0.24218223406384742 1.2792431219264162
