# total energy = -340858.56065785565 ev
CRYSTAL
PRIMVEC
9.32141930394984 0.00000000000000 0.00000000000000
0.00000000000000 9.32141930394984 0.00000000000000
0.00000000000000 0.00000000000000 13.64283937483435
PRIMCOORD
 96 1
Ni 6.467834693651953 -0.07351430689260131 9.467557900967646 0.8973797950884416 1.6836671076737262 0.4207695169848689
Ni 5.021336818319885 0.6362903474534713 0.9566004208550741 -2.0095572615801904 -0.7768644766094879 1.1690996336000898
Ni 2.174864272294125 1.1613649747744388 1.3648981691801332 -0.3449669680322575 1.4814845539312678 1.620625200820893
Ni 6.162325170105049 7.184735744650237 9.181753858207262 -0.582902511004609 -3.386389689317007 -1.2854163406166637
Ni 1.351960038938086 7.742082058362409 3.959943135355918 -2.1669571117903197 -0.708658766167528 -1.0128259265746042
Ni 1.530698257519684 6.734026469820645 13.428360471199873 1.8521628106867003 -1.8077953403149187 0.5738224030802118
Ni 3.574503371886441 0.9835961838190462 12.210682937046288 1.3168511620871775 1.431313846614148 -0.5123462980526015
Ni 3.1149573913872093 6.678871630741255 11.366177246180941 1.1162007287185294 -0.7700790782565382 1.5447946268438235
Ni 7.381697338320597 3.754061875382521 0.22927336216534105 -2.1070480941395133 -1.6962449443387366 -0.3143548995733554
Ni 9.000007617558584 3.482556890108664 3.1997645979831537 -1.2405760443735214 0.018122677742639755 -2.135152822795529
Ni 0.5123900396888508 5.083892864468575 4.7526608838590425 0.5825520696437257 0.3349648625142231 -0.6964473117030006
Ni 2.083085576067037 3.0285757970406295 3.2508291981935167 0.8189331236447639 0.042548671995488015 -0.9712352476170113
Ni 5.805976624699264 1.0694091715771787 5.500506251114189 0.1502894644175928 -1.2672869780058047 0.16379804042698887
Ni 1.07291402530269 4.198814763162639 0.9010158643375291 -1.1029870582417327 0.621940084523045 0.9276517065991056
Ni 5.224068370650064 1.778750551374959 3.0847009958881735 0.0187867936891999 -0.5681878305022537 0.9240087105298797
Ni 2.588157369319986 6.403936363097748 5.219477571554813 0.9994561901359176 0.37490617879385113 1.670964058284761
Ni 0.21879981523453096 3.267828670904195 8.852716139743968 0.00016635037453519738 0.17177334532298158 0.6991032612686089
Ni 4.205554149448663 4.1978639783754 7.732093225244702 1.421474491926223 2.9284798158364147 -0.2168131591714395
Ni 2.5328161018509405 0.6915906006767928 10.086505747473476 -1.4498648701434578 0.4498394377676317 1.264094696320752
Ni 5.498770602806502 1.6027341872823222 10.717664653501695 -1.3561556161137547 -0.9090122371210475 0.5790944501124284
Ni 5.638470716594372 2.171443311343958 13.092583366450555 1.0779630253935693 -0.7726802633248112 -1.1070553147738353
Ni 6.862550201648706 6.439236578678896 13.433053805909434 0.6320131524883309 0.11791181941783564 -0.2109808687603786
Ni 8.189752550440627 5.697894765796859 8.876085870529153 -2.1849823447231467 -0.052763921965593 -0.18757971622761888
Ni 8.850930155771074 9.357773018725744 10.577743622072084 -1.135932917040134 2.9644120109566496 3.924028700498126
P 4.705918625862827 5.529512644260588 10.0241855332377 0.2570470669908218 0.22847362622850328 0.5676093322909643
P 6.3233340488304695 8.971912859237596 7.340843421011631 -0.7712697561305297 0.30521694182782916 -0.5638087275979516
P 2.8214258918756308 8.63636040069781 6.215596150306977 1.1702874832606038 -0.6913809529236867 1.8094315903667615
P 1.954263558815528 2.7099696791204724 11.098668353439335 -0.4484525847224341 0.14399848920255848 -0.2815872182240312
P 5.922056261517864 7.89666847906422 1.394243861995705 -0.061683850163042155 1.6745967699413415 -0.24253498941757584
P 4.060419648102354 2.1792266966120484 9.214005969617553 0.33876006789059726 -0.39377216246041863 0.7538762432444306
P 8.092045431422514 4.130703151002236 10.512421910762866 0.39808853044758535 2.150287878664755 -1.5769429294415938
P 4.625008704752617 2.819132822682876 5.1241008074073875 0.48511908690553224 0.68913997940831 -1.5378814446637579
Ni 2.5093820532713247 7.4135393072736475 9.351935013703702 -0.28726164290098916 1.0262352580019745 -1.7664522585917577
Ni 4.82751654301521 6.68915315643072 7.197716753421905 -1.1005008014847693 0.18415552103741833 0.8370678855722615
Ni 4.433779784064144 8.32592916766402 10.398476879005816 0.5776680020785471 0.7640274727458196 0.5212477143072893
Ni 4.257138884866163 3.4839364601921097 11.331183705300774 -0.5922613265116897 0.24608902531742136 0.5815850777447661
Ni 0.8241318643019161 8.366523949511366 1.095909035024669 -0.5043946473056926 0.6877243300077058 1.1701710122873978
Ni 5.045367437746398 8.351115643106391 12.950111062508519 0.1886500664736622 -1.2777727080284769 -0.5060373251154381
Ni 8.34186879497951 1.0846776566899117 6.350536747306958 -0.2552717202579539 0.11262588842854798 -2.697484708737638
Ni 2.780915002803629 8.89251300808359 0.04756347505264467 1.650448197719596 -2.3877379973602557 1.1487858617434021
Ni 6.613789479912742 7.330420209746029 5.814319295136319 -0.33647050052547217 0.3192664779423598 -0.4301519866410333
Ni 8.268117724032047 8.988504985916878 13.280758590116484 0.7626303352879769 -0.5025874188936247 0.8236953209200976
Ni 8.288568918377186 5.412295794265095 6.460034529828792 -0.7590570161144218 1.4667356777568674 -0.49011114080348495
Ni 8.095009642818026 5.316014852427841 1.5532374498289565 0.6704843119803356 0.904210959077662 2.0803744415030687
Ni 3.709617347288802 0.26121413816490835 8.263086021795262 0.4362606706419326 -2.480610614421276 -1.5728021678003428
Ni 3.3265163279675454 9.13959587431266 4.176537502740832 1.9017095112665765 -1.2173065323226198 -1.1393036332845798
Ni 8.938281177743859 3.4339550089256416 12.327369398273214 2.5485167913449462 -2.5263050311345974 -1.1133532319674053
Ni 3.0383353232390617 5.268755255650335 2.037475870537975 -0.7654318092925141 1.1679845461590401 -0.9540376527918021
Ni 0.7933432157504158 9.031439444054392 5.923188813985017 -0.49139720660476016 0.5816483268825338 -0.5863408472621966
Ni 6.337987320257342 4.5612968025880685 11.797031897512289 1.1211084504327917 0.47659202327112765 -1.8202649335368395
Ni 4.483770556750095 3.946800866027199 3.176325888693796 1.3984852301199011 0.992549178603439 0.9270580388791648
Ni 7.59525105867024 3.2120026896220466 5.163500583277045 0.46755716676236897 0.21830337056372082 -1.8236299933543305
Ni 5.916454088408734 8.719787105068361 3.523454618089199 0.37160822476886973 -0.4282342007930302 -0.5114993766712739
Ni 0.6867649018105767 0.06378554137846239 8.680925175102857 1.0138669662446087 0.21222888223486677 -1.8656994117205545
Ni 7.00090803103106 1.4849953377957947 1.539048385092325 1.7426209605001148 0.03615665242621515 -0.6602605773697984
Ni 1.1114953805417636 1.1661002558716722 12.538861220633272 -1.178051700587055 -0.6374880595599731 -0.15569598014514477
P 6.811627287014481 3.483489032056938 2.2851077683745786 -0.732260721857184 0.9314672236904539 1.2710425883934948
P 8.940033604606613 7.731492925830013 9.572089231189075 0.5722591723581499 -4.530419524432662 -0.5300941089543257
P 4.314866435722791 6.381406492207958 3.9679381168462666 0.8373504498096869 -0.16260556278078447 -1.0044952952217217
P 0.3835642938695488 6.143151010229046 2.696138556891978 0.6705059092468904 -0.23428200538016425 -0.15619400282748583
P 6.933970917725483 0.5837762665135419 12.069179128588507 -0.8939139480270283 -0.12406164106931536 -1.0935984179379812
P 7.578584360635096 1.1386113898170631 4.194641563660216 -0.6277808595745381 0.11492831130947949 0.30115074217825555
P 1.4690277462218557 0.4888767590436315 3.4318017610251284 0.6996442213737434 2.0799939182351985 -0.1294972102625899
P 8.65086452941296 7.435015857761887 5.194347024629339 0.7692396130743785 -0.8965477861054494 0.45627927985570443
Ni 2.9312508562213093 7.8057473534295445 2.166469401907966 0.9782720998591345 -0.5589174609439213 -0.0754420802893991
Ni 9.265444358749173 7.192780129663844 11.952900945534925 -0.5842819078506388 -0.14439186798623518 -1.2324660136718775
Ni 8.817335759955268 0.464628950543172 2.623354117144875 0.6966964515993291 0.7367244140554925 -0.3454793888923018
Ni 1.3854146134616507 1.7980924968016507 7.171904810732242 -0.8501522295600454 0.6259060111493285 1.833705118202145
Ni 4.980891179184264 4.224010560024494 13.537940282213155 -2.1107016317317004 0.49076805766119347 1.6772306080197632
Ni 1.08249644453095 7.1797860709049 7.32680536327062 1.426619526462272 -1.8425461135325427 0.04044756649208518
Ni 4.297528595484889 2.1663351734674148 7.152750225837152 0.2300877647931586 -1.6965773879774908 -0.9186950116264501
Ni 7.646640044278603 2.177679340977913 10.577852682680032 0.38054769335034466 -1.3850627860664082 0.07300698848534523
Ni 2.96061332759195 4.114418631165885 5.510711341163896 -1.4278521133177924 -0.23130003993370488 0.427658016574586
Ni 8.035604236454505 7.755187974155146 1.809095500359081 -0.7368439703524923 -0.8089711273360455 0.47557875151526485
Ni 8.318388139302481 8.028175065126758 7.5745043753275 -1.5830181891013961 0.2406066620466114 -0.9081740574904683
Ni 5.896953678850837 3.497098304501743 9.246966508908532 0.8594133431469975 0.9328607616038708 0.9221012090945216
Ni 5.269500969208954 5.0105612573978355 5.568693366772402 0.24465486397405606 -0.35393240475566146 -1.5920252776960129
Ni 2.8344945219904365 1.5387892496307047 5.546905480873439 0.27958278619949267 -0.05646476785594792 -1.2676803567894814
Ni 0.9175129125380876 5.748202466745224 9.610125283388408 1.1082076832107237 0.03681768304898175 -0.461550812667289
Ni 5.607430389716837 5.824815213473888 1.579704688308257 -1.1353744734335025 -0.8540952733681937 1.9320786104767373
Ni 7.2871595019266175 5.982720059511555 3.783772967841816 0.30065966147444995 0.06297505817063993 0.43493706673450255
Ni 7.863465582866689 1.4432353785131058 8.334956030291108 0.15676710172213645 0.2842133429929686 2.707634909797763
Ni 2.8638290291026287 3.908480510533642 9.520655502767196 -2.238263315534474 1.216735233200182 -0.041191129526329064
Ni 6.574499696792981 2.8691981667246886 7.066691152604676 -0.6144229502103934 -0.21662264042718823 0.5060383535567027
Ni 2.4499207183909064 3.0222185889533986 13.157713988660376 1.085530296217866 0.3269162811781338 0.12588789564477673
Ni 0.7059912616356825 2.5439924838107495 5.0260217637519125 -0.16791489080883984 -0.7788280280937618 0.3977067216281344
Ni 6.723819515487041 7.401272319234358 11.4054688935846 0.3210461955506019 1.3046366222988566 -0.6406129783422
Ni 1.673977796388927 4.9819724638442615 11.604353496094248 -0.8470535360300637 -1.7565823077762133 1.1538195675125675
P 4.121735945459838 6.164683489234182 13.346844657823286 -0.5266030650819318 0.6959832275823885 0.3268764290791338
P 6.412223105017907 4.937294900263475 7.4063702035494705 -0.24683747344767168 1.5185140958807397 1.3452117155077414
P 0.23974784123809942 2.137737058494359 0.7972488905136852 -0.8378219901294667 -0.33103647399409436 -0.2039311610024488
P 9.209366699140993 3.544581615346836 6.730476873281617 0.3274060763303587 -1.2169926006266265 0.43146196370170853
P 8.889614046624457 5.2387216420769365 13.205340849365504 1.03823896733107 3.6714954622172575 -0.5476616855244438
P 3.5839739340809085 2.9872912301515604 1.3692904220404019 0.49503146092323774 -0.053364274553753255 1.0007461125919346
P 2.1649183177060376 8.573785711710157 11.811411119206369 -1.2143775316012828 -0.5565605306759706 -2.2201383237989893
P 2.4890333945404963 5.3429817189914175 7.651163729153579 -1.2539972028754338 1.5681690399037056 -0.2283424999672777
