# total energy = -340861.8606212893 ev
CRYSTAL
PRIMVEC
9.33617379809426 0.00000000000000 0.00000000000000

0.00000000000000 9.33617379809426 0.00000000000000

0.00000000000000 0.00000000000000 13.66443406842395

PRIMCOORD
 96 1
Ni 4.182176488742453 7.018422124882677 8.694515567645034 0.4223761993503564 -1.526786877412493 -1.460858393040484
Ni 3.352816143652425 1.9271076842059582 9.470232124156286 -1.515685368182693 2.637175627434935 0.05831930456618343
Ni 9.128976292047378 4.063467036311264 8.009367367889146 1.301988900263364 0.17413927445199687 2.0443854250029694
Ni 4.404564153462145 3.5947817652536114 6.944716765609122 0.7333824941664532 -0.03203003185235129 1.5078740996683901
Ni 0.5982984411053868 1.952520749838494 9.243375232941997 3.8585064504256 2.46043156837024 1.2740057847868769
Ni 7.87425985944143 2.0876058514686044 9.784431724008368 -1.760286496100678 2.3202401116185976 1.4914658335136959
Ni 4.332554243387293 4.05873359609242 4.7007701451608135 -0.21133902343074568 -0.12763213202939308 -0.8238393026971296
Ni -0.023203193246341406 8.431190647162834 12.449543423463245 -0.6411526528957538 -1.089441458346814 -0.152461275257931
Ni 3.85826726792864 7.001327590285626 13.071848902396518 0.7105199877459828 0.5069554660543334 0.7160632861617152
Ni 3.8226964449822907 5.956899140893212 6.442835794271144 1.6177478792730977 0.16363760358972465 1.7488144909053367
Ni 7.297741778664531 0.7653151250559965 12.5697354603259 2.0409450318628526 -0.5229577550198607 -1.7487193600883688
Ni 0.7376417716976573 5.640486867802737 10.32439588271654 0.2267497015588611 -0.704767915753554 0.1334222563486089
Ni 0.9520189991239204 0.1372800361379023 5.699927486819147 -1.2802759340663048 0.44485098341410484 1.8908759109861821
Ni 0.0006787398499211443 1.350057441510964 11.484547142477009 0.5313752896595945 0.2566462320079773 -0.06717752628776172
Ni 8.085397434489115 6.769949190002328 5.12286510709795 -0.09939730555341592 2.51181429371759 3.632296423420293
Ni 3.4195884601123425 5.214561273672716 10.227774884355895 0.6956448704063631 0.14548407260914945 0.107747220180008
Ni 7.705209756793258 0.9359327713190492 5.712143870500327 0.5926616472739019 -0.5500805793785818 0.0883868133755252
Ni 5.995504220390102 6.016594637459867 0.5389885285250009 -1.1257212666144547 -1.060112884586026 -0.6276535899680545
Ni 7.522192737838592 7.89296955214077 10.6687391875678 -1.2294706784889793 1.4475434210991327 1.0973547996566198
Ni 5.092640177384956 4.959553016991202 12.278163945401658 1.3927699249026786 0.04334648530643503 -1.5392482431042973
Ni 2.57798839090613 1.5508972166348105 11.84929185475671 -0.8840781928835291 0.6078429830000305 0.721697601629357
Ni 4.92149877176041 7.44502925971482 10.735545114254126 -0.6878654835712605 0.9563997252660754 0.6570433559840813
Ni 1.0737627081056496 6.404811424797157 12.747496213317627 -0.07758432344338251 -0.6802622173027059 0.514598841532204
Ni 9.213337960326434 9.276805271189764 9.015998316835812 -1.6933095158594966 -1.8700340345401665 -1.1616624605957542
P 6.165497276612443 6.935778312619927 12.317940714735759 1.5240985319470526 -0.024023102387474755 0.15781842580478628
P 6.4616407159453 0.2972105640212474 1.054731851020653 0.556151725273326 -0.7094583792506879 -0.24300498707545892
P 3.467277636912854 8.978393141574502 11.925730845777952 0.25121271969723186 -0.2319746974032263 0.012538498786642921
P 5.561764248620687 5.400313791609871 7.943094536738316 -0.265173295642382 -0.0808290556329253 1.0510844558351704
P 7.913117015636366 3.314528494071591 3.2187533530754964 1.704486615522239 -2.425771040873577 -0.631143348288868
P 6.294719260969507 0.7875249493885607 10.393168941265017 -0.28392460810795617 -0.48581457031066017 0.9688772889077959
P 5.713887867803838 3.8107554784341597 0.7946876620826392 0.4568806608851293 -0.1203872775415217 -0.7178561163960798
P -0.2911513870941659 6.8436489475714835 0.740312851079534 -0.4429311406835727 -0.45365444063834776 0.14016831682319086
Ni 0.9149123755542974 4.9601038512573 1.0541418048237476 0.7395829665502103 0.7045108054374254 -0.5579985486740777
Ni 5.88460914559831 2.6825535397247933 12.225952325914738 -0.1261735452059956 -0.10595438994564332 0.1176343973867329
Ni 2.113597759889244 0.3514528013535288 7.974399661783305 0.486268370018627 0.27163267811448055 -0.9227280440452431
Ni 1.7553594272713038 4.074278325805194 12.052742024131422 -0.8649422433850266 0.2588455536521413 0.9677298055669138
Ni 5.306149140629064 5.418360615955092 2.856605030785659 0.6255841090335356 0.674547940526748 -0.47221780546283193
Ni 4.385144911538679 9.355966690549891 9.367790021305602 0.9826494029912238 -1.0330530522547563 1.0500634707698238
Ni 6.310852169644387 7.499925962844618 8.524694297024322 1.346327060059107 0.3689504754310485 -0.3287350795544274
Ni 2.5609872180490956 7.138830760982168 11.23482969560224 -0.8425790451984779 -0.1605319680812074 -1.6072186976069998
Ni 7.374690524786265 5.040142870973585 4.205270448752974 -0.5691052001102005 -1.1986994587443938 -1.7772655471571779
Ni 4.96021588534532 9.13605311194064 7.128680472607557 0.26083327350613145 -0.9288714379388197 -1.5228042386156613
Ni 9.089493612194332 6.875774722311217 3.12515167338699 0.7466141623653786 -0.6458480014888942 -1.149995051560155
Ni 8.953708297514096 8.742327981942367 1.8672179952200687 0.9175799241854005 0.23543977313369127 -1.4955096645657664
Ni 4.092670588588477 3.53947427046774 2.1302310874906127 -1.9510803483902204 -1.0923984840926089 0.05430555542110003
Ni 2.4887625759722045 0.0015778134062816146 0.27771009738396685 0.7001787537209748 -1.1757253664467235 0.2534122984517119
Ni 2.4250151798888266 2.5567112503563325 6.237773267646344 -0.939895299853149 -0.533563812670481 -0.6635546747400378
Ni 1.9742273543923685 9.23410161130614 10.324723582424 -0.576598166053136 0.41693960171581745 -0.370047308039653
Ni 2.8308026466972533 0.3590589823126863 4.497730767442174 1.2944213723287512 0.4596646513881696 -0.47772870797873207
Ni 6.337320222939111 4.539807970050284 6.073267080884782 -0.04780940617379508 0.12584778643546068 0.9325985090814197
Ni 5.1775900246261175 3.5846520164618036 10.051612484353253 0.40292143305985445 -0.5530232069466734 -0.8069322425291459
Ni 5.8638361584446015 2.644564647712013 3.1271608180321486 0.9132208758857563 -0.5033533505253719 0.21738163008039982
Ni 2.7372541832005566 8.153318100351237 2.713538434001524 -1.6613123941276098 -0.2634686542464495 -0.5163225090915301
Ni 0.5570045434960165 2.730429440005339 1.6382838052904076 -3.0613302588419535 0.2811658144158964 1.3290983548856465
Ni 0.3644272823636445 1.6831721298904196 4.052912491602381 0.35845728920920844 0.3132320988228218 -0.9567337115667265
Ni 9.160663266609033 3.3185617212403105 5.5912814963443545 -0.44517545663305913 0.1606021591975105 0.6965892365975036
P 8.153756900529316 4.2486407114603155 10.275108352926944 -0.15779939964139278 0.6844240619898793 -0.45590235613226
P 1.8674308599873068 3.7866868218578635 9.940670728691451 -0.6898172079809926 -0.994420684594539 -1.974829114070386
P 2.266692341168569 3.457241249861063 4.054537919496071 -0.20884788157777584 -1.4850015659455909 -0.5754817930605056
P 1.6516158617647874 0.9798127891268811 2.411690592353649 0.4986281771355606 -1.4539413542056765 -1.0952069000756817
P 4.796235325180052 1.7445761462993792 7.821193980033359 0.7155845467530837 0.4513864705397775 0.15470199166299164
P 5.638610296828403 6.306576201951624 4.816330506101238 0.3240677559857451 -0.6662011112239494 0.3657561368634668
P 0.44314336622389405 1.803263336073854 7.249542846763529 -0.3908369910914946 0.054823375597783 -3.049280783876587
P 3.272328987584059 6.467121050084279 1.3252148161099297 -0.19095608889901952 0.4445283099673635 0.5669763266926559
Ni 5.05445522571814 1.6695506520219885 5.122837098575945 -0.12470030309457877 0.1837757691004964 1.6506423160082733
Ni 5.454921073345616 9.029200600491569 12.806280499301717 -1.6453648696594179 -1.627182028102804 -0.1342835759076397
Ni 4.673035173054063 8.595628679854185 1.635372786236688 -0.1319778105925985 0.13577301596897262 -0.11337536500006279
Ni 3.53303231040659 4.584733639346302 0.05987008302048587 -2.165732495354599 -0.013629160747660398 1.5754411480850867
Ni 8.451067361612381 6.550950556445241 8.851697525902289 -0.35770704130674524 -0.9074749745409145 0.47724945434946836
Ni 2.945086752651651 5.342000048795462 3.0819177188200735 -1.464648970431168 0.9663545224859421 0.017583003189085848
Ni 2.0358461028033665 5.009566901118129 5.396932229386467 -1.5415041290180098 0.2776891687212056 1.3126651490302876
Ni 3.706554440401561 7.260574469963897 4.706564174746247 0.8056358923152255 1.2793837612693386 -1.7058181898494686
Ni 2.3708933792011666 2.3435850702462933 0.5450897182350899 1.0566447235317673 0.2304628887443902 -0.7560351985689624
Ni 4.602350999687447 1.6044308383603656 0.5283135471714956 1.0773601017022478 0.4746431270748729 0.03550050689945499
Ni 7.930090179971395 5.489959734373871 12.510650549538953 0.5846886563707543 0.00760635159234819 0.03368787917074843
Ni 7.282822572609868 2.9330244158414986 7.567090398612606 -1.191002090100136 0.6313559785203061 -0.885695673882294
Ni 1.368160282900195 7.29593989708221 5.003464777790639 0.006966146905188003 -0.4413468269155883 -0.9282813697633046
Ni 7.773606567529465 5.158432195574699 1.8200208347894449 0.3684894766342299 -0.5156794761908926 -0.6682536228776039
Ni 7.689693035602488 0.980597027743021 2.7923684191845934 -1.2200190461577762 1.7261576727377692 0.8232312367994855
Ni 6.4458532457084825 5.658272279275912 10.434203293237141 0.6519142622876322 -0.7064884979890865 -1.4177692751604938
Ni 7.3614611662259035 2.1984635815643907 0.583721872636585 0.32720681583535904 2.30468545171345 1.0777588798025632
Ni 6.95361040496311 0.8543831586492939 8.1766333276856 -1.0752903636574127 -2.6811404630516598 -0.7032067419140212
Ni 2.501497117310478 4.638173899331841 7.887152182120332 -1.0309465474347148 0.012965559021732508 0.9327334919973872
Ni 0.3536374660699187 4.618185150794273 3.3415688548326172 1.0026885810302861 -0.9666931367722835 0.9441633311008837
Ni 0.46936867899457485 7.3741676990421725 7.21397389105198 0.19182897842227606 -0.03749902538672252 -1.8464891573406912
Ni 6.64321996410371 7.3953328055039504 2.05984473807465 1.8531699117949763 1.7845546246194235 1.8012485403353364
Ni 2.135808517839208 7.378882466913014 8.647141019908378 -1.7204282264531594 -0.20986578131932887 0.9777871898029161
Ni 0.320761996557851 0.8380103103025717 0.011793454998904945 -0.017207107906905852 2.088108576922533 1.9293193025640447
P 3.0767081337271436 8.38808553179714 6.445253863337576 -1.6463912540414034 -0.4457267011508388 -0.05492544839328605
P 5.189671033784274 0.21552931129806857 3.642008801441041 -0.7795031997839156 -0.10195169654415344 -0.7832079023290125
P 0.2797407152293293 7.768723748526594 10.430486562367076 1.536024336850361 -0.8160635154064527 0.12000701138396751
P 7.919344243695477 8.256501495417655 7.177667377594299 -1.513302469772813 0.8847762473918183 0.07831117430707804
P 8.099102937923561 8.617904791022161 4.050316101612517 0.8187919700812093 0.9031169546825351 0.16419296187256238
P -0.010338879089445325 3.071993365856302 12.970691457088463 -0.26498457667034364 -0.5747096907811715 0.9089991244949248
P 9.2338775431301 5.341299835745337 6.393466106150333 0.6444752895110837 1.115062501349028 -0.9312651349819768
P 3.7254415204069327 3.2996092880169283 11.801029436872497 1.956861730958688 -0.05399573749016508 -0.7028832971363315
