# total energy = -381176.8144454519 ev
CRYSTAL
PRIMVEC
9.16851828452613 0.00000000000000 0.00000000000000

0.00000000000000 9.16851828452613 0.00000000000000

0.00000000000000 0.00000000000000 13.41905327744519

PRIMCOORD
 96 1
Ni 8.821985166098926 7.0310801122180075 7.881131052442963 -0.9906169945777328 1.5909423290444793 0.3747382857574191
Ni 5.471377589124237 5.993212987557091 2.278891198896909 -0.3927509202847559 0.5287908167618699 0.6966833389732066
Ni 7.3714155186033405 2.7092330344563837 8.751034585756445 -0.7149962783497815 -1.367240927393639 -0.14703933291141127
Ni 3.0121517168800094 8.151188847743052 10.573167613617658 -0.866866714101249 -0.40266972206036455 0.36645830513681404
Ni 7.26763705780389 3.300611645643353 12.316745691899964 -1.788051324918772 0.6113242566804117 -2.4056662997039022
Ni 3.9604699214394836 1.4818067899943697 5.884510115476134 -1.3356412982104866 -0.7631052180418664 0.5747120047740166
Ni 3.3479028640198494 8.560929939105135 6.840094370939713 -0.9919619386414013 -0.3031407760250908 -0.9195912981884743
Ni 6.952790132823495 7.427425998064762 3.4073662075449764 -1.0897060248621104 -0.1560335659902216 2.6789568251367797
Ni 0.004326623875895427 3.125373751725173 12.995078532455429 2.7998202709837714 -1.304916101212488 1.0264226914224324
Ni 1.5561634749562512 0.5275437180453415 2.611079459751153 -0.17736163804403648 -0.866076614099786 1.1320793476219986
Ni 2.5213700905761183 0.1253501511050373 0.3678822201914941 -0.5319504454367742 -0.4803134379867728 0.8973132035165644
Ni 4.738803793176111 8.143863201468756 1.2015196786138893 1.0295560948450915 0.760073373194078 0.4286566330424295
Ni 8.780121710669093 0.19494470756270169 7.095955632208363 0.21692988725496187 0.4575278075508249 0.5403980619834952
Ni 5.619238286828338 2.354108807745094 4.821063741077221 1.3295102456120846 0.7492246034050323 -0.9024417829923814
Ni 8.234182277123441 1.7063254708015898 1.4044244939304633 1.0196092680450246 0.5356916576467613 -0.39727451918672224
Ni 0.3359629399169818 6.761342298213254 10.320339298265823 0.11085928344642841 -0.3979160094254631 -0.4098793524349264
Ni 5.445504029942679 2.0353560938875384 11.124113975111236 0.7078810074612389 -1.9300276414849793 -0.3688543161728164
Ni 5.139266343825318 8.893875519586734 4.5522794529955295 0.19074320155726504 0.34707090174913774 0.1818358717653062
Ni 4.005799076858909 2.125574315838823 1.1354274962197808 -1.9155140212498363 -0.09431217772102467 -2.000764345878909
Ni 6.933820468065648 0.7614995549353316 12.935659197819056 -0.23384388940148115 0.029526548704207213 0.053078367882218265
Ni 4.423342577456819 0.2903578120909775 12.532698225881058 0.6278834465906735 0.38155068069356224 0.3895758649908839
Ni 0.5578685929542716 4.259776207577661 2.0823016591169248 -1.7472813420902618 0.21259475021471774 0.5153570598544673
Ni 2.857396293270688 2.079566690051064 12.276420713872918 -0.2531220209048028 -0.5777217381346179 -0.08541307545918193
Ni 8.063574485043207 1.7703400669056413 5.427416376663666 0.4785573745276146 0.0456026283304634 -0.20455156819526707
P 7.641079984460166 5.553555020358928 2.91541009402239 1.5463056641717112 -1.5210985687784644 -0.5128024117534136
Ni 2.861173722888973 6.13601266305417 6.287497676117758 -0.8794165257418017 0.3521472878307806 1.0464179035974366
P 4.246564372432154 3.9729941176981676 4.052299052089634 -1.0454380561826706 1.099992494389783 0.7515627646199056
Ni 4.6036048195080586 4.569626289980471 6.25393631418151 0.5018811368552195 -0.14813308019622232 -0.6021816709491952
P 5.831131917673473 2.68180999564985 0.13682638570020217 -1.5686804323224852 -0.42449298858304313 0.9650234623793444
P 8.44341703760619 4.869225968710361 10.677420086823089 0.12967281660850571 -0.5977107796620351 -0.3745431390274775
P 7.08028755095912 0.7397518290747173 3.759092581303507 -0.23778487632710016 -0.3416852119571922 -0.002001860921377198
Ni 2.426576777897833 5.5871576406283845 11.149395247998275 0.841727238721144 0.6512925695432332 -0.3391279927529773
Ni 6.071191237322912 4.083089687737906 10.207230036198101 0.4475223595986809 0.8047378059809882 -0.2727562501959625
Ni 1.2162773259769772 3.6558183890210616 10.871057363648978 -0.9016719947058922 -0.12533048047940995 0.2891478041801085
Ni 5.380380043101219 8.541767735458977 10.67079124795411 1.7100098593333133 0.8806789373939929 -0.3237229710518167
Ni 7.236069848639432 8.335421058300888 5.724393859105135 -0.5702074320354438 -0.84998125119982 0.10643004403048122
Ni 2.3005829967947284 4.232472359511511 8.152638390516477 0.028642346327040994 -0.49748377911847225 0.1895270697619768
Ni 9.002256576668657 8.879370923333996 4.230544220072857 -0.838296358662724 0.6807031614948664 -0.45057245927891426
Ni 7.928843105818195 7.835535093135449 12.011972218185612 -0.07396935239861455 0.717046476010591 -0.06848158981116594
Ni 1.2201922833726275 7.626942128947069 12.251179782467238 0.1226022829149695 -0.3093299355549382 0.9451141250499272
Ni 0.8676820012831175 0.7735359860102957 12.152777740910901 -1.2270358437952416 0.39903366796967404 0.5232014955995505
Ni 0.43135128944533196 2.211785895209547 9.20583344439062 1.296166122934 -0.5977915123012995 -1.2139900663548768
Ni 8.68870241279549 4.392398827549748 4.719548070641346 0.6120662770527588 -0.7681556359815803 -0.1480459197990547
Ni 2.0619264604744107 6.484187152749294 8.62537820613381 -0.10513549358877378 0.5102030264573535 0.15904792733651318
Ni 2.5543675886251704 3.5176488153619303 5.823453283437274 0.5266711993157058 -0.3028736384066332 -1.1795126014032975
Ni 2.7879080916275187 4.2328115946956775 1.972225342966018 2.4508313262763144 0.07076524363902006 0.8485365483334936
Ni 7.751056363759521 8.610375759327011 1.8790704445420716 -0.21408187628320552 2.1768090648837353 -1.8931896467210232
Ni 4.173665481910338 6.438647121404575 4.48907627077793 1.3063512909971178 0.09205860580015758 -1.558170276819781
Ni 0.5262802961972838 7.380657385242253 2.3361229250213302 0.6371373610887737 -1.1768947041644764 -0.872929375355561
Ni 6.902968403343486 3.7013767574027616 6.664183507764295 0.31308580305294464 -0.1200365790703223 -0.3753910888500696
Ni 2.0122422587717677 7.951131774269778 4.208201457362177 1.554461460509626 -0.03949960075651907 1.0561572423723875
Ni 7.407970401826894 4.110751108025205 1.215101005054584 0.5623442272372831 -0.6382125964308235 -0.6960996985555946
Ni 6.254433247883721 1.1578188520784622 6.854747497192004 -0.3825626668978444 -0.2353929790561559 0.853326256412653
Ni 7.456930290568749 6.380500377134754 0.82159185882894 0.0364880676237049 1.564656655875073 0.3244585636662605
Ni 7.498940442294439 2.9543258707573723 3.4003348707142407 0.02441442428862247 -0.6105305571345228 -1.3350404314016944
Ni 0.489744666862561 3.152402544236594 6.608964271448644 -1.3573887171899073 -0.8642009943436278 1.1104322016658683
P 5.7162503809814424 7.338115459444086 12.915395855102133 0.9944325116690809 -0.0771966010866606 -0.9225503808167982
Ni 4.2940206241414876 7.289696513293198 8.830113057741183 0.04355165933870564 -1.2011409783063507 -0.8803549783956708
P 3.7566262498294325 9.06684878943764 2.923381203998452 -0.946477581056357 -0.70351630273464 -0.20708050526470786
Ni 5.900244210058513 1.2127016037654934 1.8748024991845182 0.9208303128018981 -0.9584406669555041 1.1486557639234412
P 2.1605705509189095 0.9297702916522131 10.437863201986959 -0.8045444590232597 -0.16372167866309867 -0.9830931753968617
P 9.417627138384203 8.676187385055297 0.5618853209051717 0.20774102166684222 0.8964577974948046 -0.4394418965833916
P 7.357268494571751 5.846324152813034 6.500122037886624 -0.14341999099126912 0.3725937286105906 0.10423792147516886
Ni 7.066736480629445 6.499076826778652 9.647977913803539 1.715012197643911 0.368035934036579 0.9857887199511538
Ni 1.3862433217628416 0.844667186167049 5.5704370134563765 0.7604472115937291 0.9457188485134617 -0.19505699844127053
Ni 5.128291627191609 6.320244873612006 10.89557398209387 -2.2001945336872106 -1.1441249659326231 0.4841677787358565
Ni 8.389772035915442 8.748261108912923 9.561947871098937 -0.5796068709724728 0.576280377702401 0.5139393535713342
Ni 2.108530039964083 4.067613228525125 13.24899423410029 0.5707661327523912 0.9326028799567939 -0.9595614108235088
Ni 3.957114243671783 0.4217298461408932 8.756844675924183 0.36474954997582343 1.3342750139905797 0.8645000136412853
Ni 6.464566523178587 8.223390930859553 8.184683279494315 0.12793732197463772 0.2530556864432416 -0.3632973909103292
Ni 8.601491464909248 4.681711428532752 8.461827422736087 -0.04438906763833646 -0.4568122695410391 0.9716065149135009
Ni 9.347212916373445 6.554748071055907 4.514881066070805 -0.768608921468915 0.23209579636212285 0.4022843136964878
Ni 4.248838165017918 3.861679134699129 11.797924902346946 -0.07143193068874149 1.5116063130173127 0.44224542747045775
Ni 3.428044884149542 1.9352725460399554 3.400039644418831 -0.47062192173062173 1.1045790853192008 0.9016719947058922
Ni 1.3936698217405388 8.870899212248327 8.57889473423637 0.9367014755061998 0.08786590787504867 0.5836825837037432
Ni 6.976839156825346 5.637437796032942 12.075323013550916 -0.6180410065789549 -0.5629546071277725 0.05718570518237249
Ni 2.374407907684133 1.851573140735761 7.53440977292866 -0.5723018526706274 -0.46067072405518084 1.1345962005065815
Ni 0.054530680576977415 5.47028653542381 12.773771583675599 0.7294628473970727 0.23505796431424036 -0.01639978151426208
Ni 3.520014293132604 7.168360339583514 12.74643656264658 -0.44006076111431314 -0.91126478060065 0.48188643890084754
Ni 3.078944374086829 6.95824540132563 2.352775705156505 -0.6574341636645967 -0.9978032279135267 -0.8375373690095125
Ni 5.398625394898277 3.6819303296833845 2.2643710161627375 -0.7389939268159595 -0.47586594373838037 0.365012573829223
Ni 1.5086613806544622 2.1841611489962114 1.2170520657894655 0.19029814360004643 1.0843655864858035 -1.0989560827054685
Ni 4.582168823276137 2.7449444139787667 7.857245228070251 0.8460734315049817 0.6665728927410715 0.47063786257022167
Ni 2.254602876562443 5.191966988111494 4.064846169644546 -0.8990579541218129 -0.19500429082646417 0.09241316092609891
Ni 3.3351127807249266 2.601539616261284 9.957487844170334 -0.07844178634767136 0.5621688780016835 -1.0338511226760196
Ni 8.227122517885382 1.568421784178697 10.917957086285908 -1.1198067009022328 -0.054976613346195635 0.16259424992687482
Ni 6.30370486625427 4.891147896422304 4.479977433027478 -0.4332892467184344 0.43237676220649407 0.433876229570156
Ni 0.5510499657525266 5.473963111338694 6.629656700830946 1.438675943406174 -0.5141396425075985 -1.3193952686652695
P 1.7543501706573648 6.055797294776549 0.7062243906568864 0.5466188460822263 0.15662466260700122 0.28488491513869646
Ni 5.684536475521127 5.432218846649243 8.20246378740388 0.044485998227516935 -0.6193209017326431 -1.0232674336229022
P 1.3086409812551516 7.7830819988485285 6.358484013682353 -0.56224215444178 0.04245894049515913 0.330379814246702
Ni 5.151102901197178 7.202192172815245 6.410604290748051 1.257392601710228 -0.8548282948794761 0.4688799993388506
P 3.972673219550983 4.813683083691979 9.526669245649327 -0.4278935296241599 0.3770389088661378 0.28373974579065975
P 1.127269348466503 2.7119469159297154 4.143991571814268 -0.360293828197315 0.16281022259242284 0.24628365782673067
P 6.079901329889347 0.9399565156956965 9.235422087264725 0.4795858157921289 0.6001486996795664 -0.2908822703727119
Ni 4.570653164051461 5.16807382892399 0.3494800867282398 0.03399204067472855 -0.020745974298099754 -0.6090380317493963
