# total energy = -340861.81157236174 ev
CRYSTAL
PRIMVEC
9.26876536986536 0.00000000000000 0.00000000000000

0.00000000000000 9.26876536986536 0.00000000000000

0.00000000000000 0.00000000000000 13.56577501996226

PRIMCOORD
 96 1
Ni 1.6590348371738468 6.263034470624881 5.959132974855209 0.14105251920035708 2.3376071421421356 0.1432749807729726
Ni 6.958238211363151 5.991153778310026 9.462073734214158 0.8701399855358821 -0.8912549131376264 -0.6675278004551729
Ni 4.171407819735461 8.761856518329362 6.569457070554018 0.7986933995591213 -0.7280595392916429 0.01073795524279441
Ni 7.262893257751073 6.230362072970026 3.981120995163998 -0.44778512634176426 -0.504573338975402 -1.7877530769520629
Ni 4.643790442850266 2.9780635571354814 4.948848680528398 -0.2300653961956554 -1.5172218594318774 -0.22152881947955397
Ni 5.376300963889469 4.3084372458147175 0.5694886964511505 1.2477522504069865 0.012666796834391088 -0.4936608058279563
Ni 3.0077977561927227 4.315055144233318 6.342962741245271 1.244202071161883 -0.4240942104827277 0.696156262825143
Ni 2.631671260636973 1.3862828809215293 2.0514168932989816 -1.319874008073901 0.7276116531209469 -1.6915606514891899
Ni 7.899861346158718 8.534818112497964 3.9885545449283084 0.329162139789517 -1.4051099345252702 -0.006128481495241057
Ni 6.914350607704785 5.044729423093121 6.856793428993546 0.9304439246322621 0.7005155682351033 -0.4168688963788821
Ni 1.5023092848487563 4.661428903201242 4.34696286875157 0.7478516343169055 -2.0281021144619134 -0.9183247727712249
Ni 4.859548761321107 3.1275223974715205 2.4207308463649952 -0.5518456416988045 -1.0647367565112822 2.1001788778235055
Ni 3.954055273634369 8.054992670853558 9.184423235504937 -1.1253345726989976 0.34682407584565433 1.8330374027111591
Ni 5.623165258680791 0.23501139773571064 8.567709253013714 -0.8076935461752026 -1.0045456888436828 0.6082042229941913
Ni 8.643040216049194 8.6113595762806 9.735193660448576 0.5667302721201207 -0.3464898324346871 0.10210519140288221
Ni 8.325983561700365 3.958532087270481 4.820720049759201 0.03536372421127458 -0.3330162234282845 1.87199630047286
Ni 6.969592448846043 1.8630774363154008 4.843890109236535 -0.8132301597227154 0.6062833518223947 -0.48329874586734184
Ni 2.6980356201288203 0.7900055990229854 12.1494947643304 1.9543014264306795 -1.4105545025796096 0.7763140034226566
Ni 6.077510864537057 8.767862678238679 13.14869546912085 -0.8351560132615294 -0.7913577851296565 1.183338145796975
Ni 7.8279913400833285 2.776273267959922 6.962348908770222 0.9476245501766066 0.1530145766582397 -0.9029644882650708
Ni 1.2359342391174433 6.157314933702533 1.473161798634509 -1.4660347950351011 -0.8165679658466969 3.081840205869847
Ni 9.017007089291871 6.594114766860745 13.330286338095211 0.32545409481031046 -0.5020192050949807 -0.3470104808248475
Ni 7.096240857798082 1.826753145135436 9.868179124230862 1.5224486550484555 0.8868781242261694 -1.9532164208966167
Ni 2.697701944578303 6.377355421738351 8.233584167379377 -1.2198799494767507 -0.6640642673866047 0.2572080180487183
P 9.056918392639902 5.71381378323809 10.115767309591503 0.3940099895028375 -1.2395326907106716 0.34333174642167963
P 7.177694767185562 6.9474030247366185 12.307725564138938 -1.0586003045962413 -0.9224645059712113 0.15328505671080697
P 8.54291901336331 0.48578711148032266 2.4568706891156467 -0.010252016745311378 0.7974952654859621 -1.5435026475052773
P 8.99449325839722 2.041575318311769 8.915087746139308 0.04846580881087137 -1.4191219325336462 -0.9936241568351727
P 1.1740003494352471 8.373828928138481 5.894830915640868 0.05749012379666873 1.0217679662592403 -0.22186306289052116
P 6.186752532270424 9.177949929824894 5.100745206136274 -1.5288370750733025 -0.2608859811209378 -0.30391673495916693
P 6.492454949136362 1.7288935211808374 0.36027598002963096 -0.7913012208601082 -0.4660844388715844 -0.6324882923525366
P 2.306217104933449 4.219077079633027 8.844668301832142 -0.43641210861813223 -0.47266672007479243 -0.4406626563643701
Ni 1.1246812493156775 0.2257444861966116 3.5695757667973274 0.1798406957121483 -1.4835830883315095 0.37174963544274037
Ni 8.889088859494807 0.5991274272258824 5.48921491643159 1.6851604043898012 2.0097765766798483 1.1709284592787124
Ni 5.014828386260621 2.3240038655290984 9.334378881660635 -1.8983755617973368 1.300291200845967 -1.1420058627070913
Ni 2.8443245427349413 1.354110996592451 9.71484501312617 0.599841967072425 -0.5408276933217461 0.15349485872876792
Ni 5.405126823948079 6.888759546733138 7.6621128820322335 0.5190131685498158 -0.716330938000805 4.995962746088796
Ni 4.003448523876276 7.468947178961026 11.95596479878321 0.36352930441547715 0.6656254412261374 -0.42310587842752945
Ni 8.764275666070615 6.371265842941403 7.76739678698585 0.8545860969616831 0.07401537514520155 0.5799506274651367
Ni 8.995790885538122 2.1442176251571206 0.9103132456386598 -0.6677561144158951 -0.442165980382774 -1.061329016381314
Ni 7.937872552621856 7.640864237599962 1.7806299152886018 -0.09139757517739097 -0.616795564207628 -0.624335324228099
Ni 5.603654507740799 5.864579519480324 11.191302784698571 0.7387363022791987 0.15225661544629263 1.1500940390318646
Ni 4.726199035062837 7.573804720711203 3.34271532125954 2.3999579364652153 -0.921404183027497 0.056976160274727676
Ni 7.742162573477952 4.122626308002837 11.54470504838754 0.7453358098735874 0.32116112386191137 -1.8664648291316694
Ni 2.1867519890828313 2.254960832867818 7.628170663532353 0.25595743347106886 0.9822393120369988 -0.23714030076456577
Ni 2.7130510199021156 8.031116331460959 2.369357787856684 -1.5555701201927725 -0.021739191449304494 -2.050343185248301
Ni 3.150388441447273 3.987348678563799 1.1415179614688815 -1.6413593480444508 1.4341777984255042 0.44379246024260344
Ni 7.112637303599909 2.4456564099886653 2.3156369510998682 1.0075104278989615 -0.48699470666169037 -0.02032611315186177
Ni 2.8945519818531427 7.916137298011747 4.567365765510311 -0.7073269347299818 -0.4907963397959676 2.8269281829441573
Ni 2.675215919979529 0.8381818603820321 5.440337009539927 -2.491229270477387 2.0885945154200156 2.48111377930994
Ni 0.619691109903063 6.923619372996942 3.761843326511725 -0.036219644453666655 0.2067614313623923 -0.3656908308431702
Ni 6.139695010882141 0.016343613839661236 2.629318848005824 0.4331138974828348 1.0999053339926153 -0.28308282893295117
Ni 0.8965834236113871 4.506473685046953 7.077644933992428 -2.0725328339714633 -1.7218672728925313 1.1310254524361876
Ni 4.494934072258218 5.264102560027903 4.766552458515304 0.4717107839194263 0.31079237903307766 -1.446310062912664
Ni 7.707923754488721 7.98334511514518 6.258258275869832 1.6542338900142737 0.24075861424344344 1.4734696540465912
Ni 3.4913770477804538 5.319483432648544 10.389810404849017 -0.6999645808276398 -0.035508220208938845 -0.7582646021201134
P 3.8683748072736654 6.463814464383596 6.410737806814585 -1.55147795240127 -0.09523468953529404 -1.6034412328424386
P 2.6434055174968445 2.567021622724175 3.711609399257819 0.5735521801379605 1.2421133069536545 1.2181477972769925
P 0.5205727876217896 0.9257392517143975 12.619019827105634 0.04800789533784635 1.1801759460189094 3.267244254602386
P 7.254746013059267 7.812169557729616 8.46863820143543 -0.9935272262459921 1.3376400738080705 -1.7928088942084153
P 0.6762685801229212 4.2231738738921605 0.15500526948686594 0.21561888175302218 1.4323564289460493 0.4528108616911298
P 4.358970554187559 4.6394433919282445 12.339347810686192 -1.4057354839244112 1.1494476636971174 1.3039257122747607
P 4.720786076132218 1.4834288099486315 7.0189727228165415 -0.6803748316211701 1.6585278894039372 -0.08585736208545212
P 5.156186325731315 4.801211152572268 8.892826952537133 0.20276773682196692 0.9551848790223679 1.5281837577600197
Ni 8.345874332017335 8.687622977104473 12.404490546912532 1.7502658786398826 -0.63419087686594 -0.33388757028964433
Ni 0.9289063888147278 0.6126690933177245 10.720475460399792 -0.7059030577992617 0.3454410794551986 -2.4885093004430625
Ni 7.830086081039357 4.554652727035588 0.16248794370722464 -0.4882730591534816 0.020985086892099342 1.705681407161288
Ni 4.250210862249384 2.1500384097605956 0.22030094034052755 1.0889586051731246 -0.2714902389993453 -0.6344497869542816
Ni 8.224750107179421 4.073446239362649 8.806982429030759 0.25091395750989043 0.22031371612553025 1.0041039733205739
Ni 8.883203193534285 4.708736681252413 2.8357898636539227 -0.06449329458737925 0.5411765920207325 -2.577180992048858
Ni 1.5849217898977557 7.5333094851497675 11.464138159838518 -0.28544592984848904 0.21886309972193274 1.4049137593540644
Ni 7.099568344537967 1.0708760667947035 11.799117825632793 -1.1267479081067564 1.8852613930128823 1.748861542093188
Ni 2.5292606729239258 6.0695675326816785 13.442082477543098 2.4015049692373607 -0.4027977629977967 -2.5307941772542026
Ni 5.536038864934511 3.174839444287984 11.355164359422096 1.0656525834573323 -0.41662824112298574 1.1433281810629405
Ni 6.485707288003671 8.161537127886907 10.545273551341316 -1.5475498209914573 0.6971358531295929 0.9972141881792761
Ni 1.1393351672425784 0.03989647332356253 7.983770551472091 -0.6771504111466016 1.4378843007428137 -1.316418959645765
Ni 3.9840675356503747 0.6928346443295942 3.760744977824604 2.622007147224613 -0.3917785290691575 -1.057059699581999
Ni 1.8321290290048873 2.461682105178806 13.610270711904999 0.0008908872453855626 -0.4835324591447027 -0.9082666172042745
Ni 5.907725621915317 7.0087807885012845 5.632346897579202 -1.8574991352979495 0.24706115942270354 -3.1997232289322763
Ni 5.21081642836329 3.6269605464741326 7.233271210753868 -0.2760184658870021 -1.760498355001168 -1.1857338997226612
Ni 3.1660155797298506 3.0930889344111554 11.673837486437877 -1.3309012124223403 -0.2292632120093342 -0.9842671411003049
Ni 0.31247139615879965 2.343384853755 3.1887843016700352 0.2118301041345513 1.1398003704153403 1.2995738630639684
Ni 7.524411470469297 0.6747707476517086 7.615663391647115 1.9517442072264644 -0.39589769344385367 -0.13178034986981177
Ni 0.8780811143351823 8.656887751395677 0.797212990914167 -1.5506066055399101 0.7348403096589021 0.450933699273075
Ni 1.2652791500324136 5.17902456341119 11.773342316231835 -1.2169262661650655 -1.061249055072998 -1.109511746734128
Ni 0.9896446077742356 3.055077727948018 10.27728203294305 0.5956361565211935 0.9403663259522965 0.00862527977516579
Ni 4.6381457647873425 6.658078516141923 1.0810596592211967 -0.8664674217803013 0.576312259381601 -0.55983868720661
Ni 4.22677942359081 9.289527326411886 1.2854396414193856 1.742977058287953 -0.23498108832971787 -1.1901250868118214
P 4.816754871967216 0.5974015831284827 10.77353172668516 -0.02471292936564776 -0.09678223652807202 -0.04072601696445244
P 6.418851683951339 5.844086279419364 1.7839675976703078 1.7904015703185034 0.460647069906097 -0.07466843534816817
P 8.741734028880087 6.097077228068801 5.480695067375038 0.2346149632395508 -0.8294453360299973 1.2588748426827094
P 6.565251831740966 4.167283219180451 3.5187857136258924 -1.3528031547017543 -0.6214382051859619 0.8506384251678447
P 0.7474156225055218 2.5946610808253885 5.795054511023851 -0.6109085092992317 0.08058968592860959 0.09043649681570232
P 2.910271807788642 6.103064850447535 3.2969721107896848 -0.4817439997857123 -1.20325493932556 -0.5012319333069949
P 1.5857189037128814 8.03476822498607 9.490901448025827 1.6785691243255283 -1.0853860573305179 -0.4057781857823592
P 2.7802681058008414 8.204266135883753 0.07730613691923924 1.1036717430135832 -0.07475765262786481 -0.7136333365639839
