# total energy = -340872.1842720222 ev
CRYSTAL
PRIMVEC
9.17987228819293 0.00000000000000 0.00000000000000
0.00000000000000 9.17987228819293 0.00000000000000
0.00000000000000 0.00000000000000 13.43567100947947
PRIMCOORD
 96 1
Ni 1.345503017151593 2.134008121559942 2.228977569224487 3.265301014833086e-05 0.3001456979525089 0.2234491764307184
Ni 2.0877874661004148 8.786661351255852 5.837732125654925 0.9394124466794596 0.03528607689580374 -0.9796959767898545
Ni 4.99078428422224 0.4064250624602483 11.432532708955693 -0.7840142002803917 0.7516578954368732 -0.4968335471289831
Ni 6.129988038187747 8.84903858141424 9.232078837972285 0.3295583467866711 0.3399785136787306 -0.12809055972305036
Ni 6.313273362299943 0.10801220978508076 6.780471931282278 -0.29197961720194876 0.5832305837679891 0.7631774660406985
Ni 0.8813218720917106 8.39274386437924 10.217142443400263 -0.470812440474873 1.8974589635203383 2.569024424379995
Ni 6.741092116428201 3.503103409720667 0.12872291897718363 -0.2469485451042392 1.004914127926695 -0.3732192780097314
Ni 8.04031939888834 3.0725215141240247 7.870198929194119 -0.5255599685293981 -1.1306886379220593 -0.5600106940081001
Ni 8.352012772368532 6.065829912863689 10.237295934362695 0.5073277617920876 -0.846478123142568 -1.3517009227765109
Ni 8.971314476294259 0.9388989471875788 0.26904093426239667 0.6864642323483597 -0.968545359489674 -0.4375647341653367
Ni 7.010181704012133 0.2725026639890675 1.8358770909548054 -1.121712659675694 -1.4773134532727137 0.3424233756747974
Ni 3.6422978086745506 8.272404922488686 8.90083600910647 -0.20776030494055187 0.4352725956970503 -0.6518790381743226
Ni 2.92415642305414 0.53096104182371 3.43873873727688 -0.1701448085806231 0.20820844822156398 1.4705925896091125
Ni 5.469331010956127 6.791416174666359 2.4171979925174263 -1.8898037609679261 0.20031104775135825 -0.5863408472621966
Ni 0.8276884700018826 6.342869269589221 12.035431817613281 -1.2040879767498167 -0.40592679554508154 0.23021220618616478
Ni 6.414444731479574 8.855097296926314 12.981276255946971 2.1469822113302897 0.3125150181511392 1.9107410253412254
Ni 2.129289667358115 4.365093389392871 12.647318938934308 -1.4238476201440897 0.6234004711186555 -0.22164323357023116
Ni 6.982697167280094 6.521124023851999 0.5150982230284643 -0.9202592707897764 -0.7499761368590762 -2.269595292878537
Ni 0.14980908493359524 1.611994700962925 11.218072539572283 1.1944705082647107 0.28722384768451825 -0.5442585733801658
Ni 1.9140216692397638 4.43860580427269 5.98403266351471 0.41665472348554694 1.5966915728234305 -0.8580349747422319
Ni 7.680670374142891 7.046901191964091 2.5307695327784336 3.2490459864268044 0.5338268365238806 0.464657990837703
Ni 5.165119233146146 0.8279041969936003 4.73593910400207 -0.20869284405715027 0.24414295733464403 2.2604159403721136
Ni 8.232949832684309 7.932217226357776 8.188060258663041 -0.7297466971860787 -0.7265150776226585 -0.5174046864121153
Ni 7.017773458146201 4.550086169694834 2.369300174445694 1.0590451054431438 1.6639750285614376 -0.042866717456539076
P 8.945014143048668 4.461858420018267 6.563903145303228 -0.029279979911039897 1.025534118169892 -1.2358845524351232
P 0.5111150765728757 8.774736697543455 1.8813431609369191 -0.664858738263442 0.05676815802897965 0.7939805674644842
P 5.451852534690994 6.833515067603278 8.295075534350225 0.24312762869625223 0.12942599070502228 1.1308596162822846
P 0.9985497553655339 1.2818589646588625 4.24923238905806 0.1294403888827255 -1.0543209604945971 1.0377476295169483
P 1.8185418206926862 2.212578645905143 13.525555456050856 0.9577726943542021 -0.35031563393868054 -1.1404323475723843
P 4.035939899391524 0.2688224533090825 6.731083301999696 -0.6054114907404026 0.6800431593133643 -0.030156211868406127
P 3.5509856220100198 3.695458447356997 7.329346575303351 -1.0144382653670463 -0.7487816023303427 -0.17552304217340095
P 8.158941704717138 4.775635624439733 12.013733354195269 -1.0049611791145465 1.740931231502518 -0.6044766376309589
Ni 2.8625227625267797 1.7180773016561302 11.223393193376522 -1.664505961364243 -0.43454548772303875 0.048181187690917025
Ni 5.018957311353379 7.273588950835501 10.605876056565258 -1.180211170132219 -1.5274857032517306 -0.3734478490807697
Ni 2.4271948731123465 7.757882277433869 1.9935312944893364 0.03574656147199005 -1.0860550583730844 0.4005148805008909
Ni 3.5529960139753896 6.529633765184865 12.441444703821267 -0.5725077980338462 0.43078704912187105 1.4558149170793058
Ni 8.969864056520157 7.69204423553601 0.16043295078529538 -0.3095379378006863 -0.18121212213837826 0.9229699848527201
Ni 2.3145945633076686 6.494355517135022 10.372780747046232 0.5100402756272442 -0.34883802095188954 -1.2327328941800189
Ni 5.068014547257194 3.5356001565581496 1.794280337015629 -0.9353927839971052 -1.6218914691278263 0.35741753509078444
Ni 5.546533734375117 5.077524894636752 11.989508590006164 1.1306600986769688 0.5913334153807815 0.7822560799387044
Ni 3.187572849749496 0.665269912905585 1.2182176661277284 0.8830880610561178 1.8750808529354546 -1.302674356366163
Ni 3.9674488744891345 3.2668685839817484 12.997465878184988 1.466431002032255 -1.4159201377668968 0.9878144921319311
Ni -0.10843448389652828 5.066646746330984 1.0444638031006617 0.38569324210702605 0.8350475127081232 -0.28673585230450616
Ni 0.4891265292000446 8.148118635643298 4.152777638105857 -0.8943690332865758 0.20651383412796046 -1.2014937336600793
Ni 6.491858591954289 2.6676065406058007 3.5714971279799834 -0.41010432396153884 -0.45518836078437086 0.9454432262545718
Ni 3.4836604408501057 1.4950706714519042 8.446441525572984 -0.859212797100417 0.754786670873842 0.12377264907398683
Ni 4.5699605925488305 8.19742372809079 0.45757163722853 -0.6189257231767534 -1.1026813540758558 0.9262828512760368
Ni 2.766859316539942 2.2379885315678973 5.348740540573103 -1.7567358026349422 -1.5069844979745852 -0.40374521451273043
Ni 7.0462218814369795 1.6961190478608599 12.073844073959823 0.8229381310390987 0.4747649973647179 1.0321457099491385
Ni 6.5641500838597056 8.074817357819203 4.2540426419797654 0.23130235392655002 0.33456685574485606 0.04607082621613356
Ni 4.749472989273963 3.0280266745982405 5.375960696991888 2.3456212706958635 1.6163137179297327 1.0720068078101344
Ni 1.8570881031702537 9.100539534269185 12.77738946311933 0.003059355651614086 -0.34428176903977487 -0.948487155287218
Ni 4.138506609113329 7.598097425610926 4.198526448145201 -0.8877738965675614 1.3711603170527031 -0.21795807140916013
Ni 7.963217654061217 2.240880191244114 1.6962402221711013 0.30188222102764134 2.971065254607109 1.1531672786405494
Ni 7.81705573226845 3.367782916745716 10.215422135389716 -0.8310962413698589 -0.32362218380789426 0.33608509216159543
Ni 3.1035403015714413 4.803661773619064 1.5267357218872746 0.12001009670776105 0.24664412648994297 -0.4034611076134084
P 0.9853032000868652 7.056310560751781 8.69446422493168 0.05083945124937052 -1.237689723964662 -1.7629007937950736
P 1.3282632175581488 2.3020089588121357 9.484441780806902 -0.7830477226020643 -2.3061419816543185 -0.6955073163872345
P 2.1089654307767063 6.762729074703891 4.640008523740382 0.5434728442540769 1.3500531027604425 1.905124707595713
P 5.399481364999516 1.5973619850140697 0.3382333013846679 0.33713230247918713 -0.08511791281626631 -0.014801326678890638
P 6.388768629529168 5.750253453532578 4.09292211878257 0.32124159939085967 1.3847413981712473 -0.4455541801287165
P 8.571549410961298 8.955818852378533 11.833063375612452 -0.25605873493562353 -0.6942675304428624 0.2668339711742566
P 9.07485425244679 3.8129149094433212 2.8766303897979215 0.12213254236740256 0.3322292087506149 -0.10791125656169802
P 6.245975720755993 1.7414400758655635 10.204378749388162 0.9462988893866475 -0.8969735607889585 -3.3775296678232154
Ni 0.8239036087812346 4.954808365901309 8.300933210665763 -0.18314867703945875 -0.04642486712144263 0.547623890307973
Ni 2.830273872232973 3.8128690100833813 9.507228059055489 1.0546660025388415 -0.66095580366461 -3.1805949927432575
Ni 1.3174401484843095 2.5571818604622765 7.253784295008613 1.4192602578837235 1.4478229000127647 2.720087790849135
Ni 0.19952359967175062 6.716765455660029 6.305789930655335 0.8141081914522947 0.14174928815706558 0.6017299281237571
Ni 8.71631599221189 5.562488351890243 4.30844348136779 -0.023598356145230325 -0.8240984698957871 -0.3393748186564607
Ni 2.950915749899129 6.142995916794728 8.023446794174415 -0.4269072544514905 -2.0870099445417156 0.25176987775228254
Ni 8.994833308327488 2.9866438116763843 4.96466846640361 -0.010190567379756644 1.0218810947983368 -0.39409072214210195
Ni 0.8340519572639568 4.0682897682771975 10.52854114298964 -0.8772169469873214 1.0212938548362993 1.9972753588890442
Ni 4.324013462246619 5.351424735142391 4.638342376974562 -0.6654917438617506 -0.7717248413900774 0.33544797279822874
Ni 5.531276787131079 2.769833595064051 8.148814469939989 0.6693717956424472 -0.35279777693058595 0.4227968318275428
Ni 9.2067690129142 1.129197693498599 6.423997306270276 -2.2508817756294333 -2.0752067812592 -1.108230308918543
Ni 8.308353301193653 0.8504719942888734 9.03711396272977 -0.002398067918531354 1.5435772094969546 0.3944360212966626
Ni 4.714359978919902 3.01971889044911 10.794956633863471 0.8669561884912618 0.27156480099102265 -0.6560221138084186
Ni 7.935723937457188 0.8941232035789618 4.152348020096819 0.5374929725215583 -0.3050868440078681 0.16301668217627407
Ni 6.37666037837701 6.7355841932354075 6.228709299533784 0.8797623391169946 1.8005610273500088 -1.0425270531834627
Ni 1.938036214360344 5.148999377935237 3.4836815545556776 -0.5676509841621772 -2.1834697647333625 -0.5552014455449147
Ni 1.3836912846216287 -0.11538731894023144 7.970886519119983 0.2222782960510688 0.716572878808282 0.6304504359869013
Ni 7.3544544431777 5.389759880564235 7.799541454502564 2.2118529438617456 0.6489204697666308 1.4777245726682033
Ni 6.815990691978206 4.423321317412688 5.63322752744249 1.2181755651911343 -1.6758386127682428 -0.2958437281430453
Ni 7.065848447747302 7.5112833762205105 11.381812998234851 0.8890635619132625 -0.7714875285682906 -0.21018922609701865
Ni 5.1873069837411165 4.965502916767316 7.1105865538807675 -1.8043788584342022 0.11784882739038414 0.8107400463110102
Ni 9.10253156649058 3.2243382370613936 12.935917590467119 0.2602612030527453 -1.1437871229772303 0.4988359222709925
Ni 6.090349350943609 4.9176023447339885 9.655584888240586 -1.240351329957225 0.5424621436013755 -0.21582842666066698
Ni 4.109268716831583 7.3384172068146825 6.568444427975687 0.02292755533045084 0.36709259628670327 -1.0543335589000875
P 3.615731259141309 4.927167771345474 10.966220915607396 1.6130003372857835 0.7360790671620098 1.9512675247003624
P 8.098767643835867 8.50080931742185 5.906146039632613 0.41836399286716985 -1.5719375058072025 -0.356102930044419
P 3.6701954396460503 3.391613864426536 3.5386469560709632 -0.3552315831830592 0.5815879059582435 -0.5425343916002076
P 6.928288066007281 2.158132825144378 5.90512523786755 -0.344515996537768 -0.19182794998101158 -0.13059301442992993
P 3.136477682264347 8.563627181435661 11.008005856922326 -0.36825962001161094 0.020453639868661548 0.4467839387707596
P 1.7718805313777362 6.200975988270869 0.5316587120947971 -0.17644478265672192 0.4540994985955663 0.16270814979691978
P 5.10985640377845 5.4735996514305425 0.7273359454035802 -0.5277495199815492 -0.43271280538967416 -0.9574011699473963
P 5.032727119335363 9.338316578502088 2.847703695176568 -0.21624854491722112 -1.7374730977505883 -2.3524591195533033
