# total energy = -340864.76781928184 ev
CRYSTAL
PRIMVEC
9.30614878469542 0.00000000000000 0.00000000000000

0.00000000000000 9.30614878469542 0.00000000000000

0.00000000000000 0.00000000000000 13.62048942633620

PRIMCOORD
 96 1
Ni 1.9663333383835224 3.0835271580831045 5.123428392099836 -1.734458736404297 0.05306396970451506 0.4444455204455701
Ni 2.3045373866931476 2.2483747805749212 0.04572482997535945 -1.456085397131873 -1.1877146775981158 1.1556666480236355
Ni 5.863971672246009 7.701880161510804 13.250760535829164 0.9162288094741446 0.5693805652587742 0.3352093744248614
Ni 2.2593281173439603 3.099961816310907 8.45019221441381 0.969921156791278 1.8497940533442079 2.2359302965259236
Ni 1.4113146426269307 7.617687436150141 13.401825382986736 1.0833690269004892 -0.2598071462344622 1.2423408495834283
Ni 7.741403374134516 2.811638723890874 1.620088777781246 1.15453202019856 -2.188848769657088 1.2057561084808588
Ni 3.168259640056004 1.7512217161096524 6.938277176029028 -0.12239608044143437 -1.1781766562006935 0.16083484403360687
Ni 7.817816159360159 2.647552713770482 10.540705867591203 0.5012291050935174 -0.4236967179339929 -1.611483900641257
Ni 5.883012052050134 8.115594298642845 5.001416409903405 0.39527805758198375 0.1522717849549442 -0.147260704893598
Ni 0.7672109792501324 1.654205118134091 11.189190865675618 -0.7598630569554848 0.3470580462333313 -1.712624928358657
Ni 8.491274206909075 1.8719038496873095 12.737268666465507 -0.7970664054786595 0.13693515459787386 1.708128326039884
Ni 0.21905463738775457 6.7573805392819635 7.4568362432437825 -0.056657343482728224 0.2362501848501286 -0.3345133767991013
Ni 7.262481054555015 2.7488780584954613 7.725460080546821 0.5720300870664793 0.4763639664207216 0.16844993737670344
Ni 5.384853923548284 1.955100817159877 10.926968727916693 0.6529627581568045 0.3480096115133232 0.6360623828570401
Ni 8.140478939696722 8.595493763813469 13.212963613749766 1.4310991595001805 -0.6459133075091908 1.214485775044373
Ni 2.338774706976322 7.623755044963577 7.989179577597281 0.2586136401469933 0.5531731022609764 -1.1651900141330385
Ni 8.491609228254601 8.503549016763248 5.017624928722976 -0.5366301103006306 0.8528919970887119 -1.1526157770124537
Ni 3.6768034302691954 7.913185569053546 12.642755422432913 -0.9758961434277903 0.512215171791376 1.623780972841055
Ni 1.9308676065000823 6.543041327332504 2.6649849911160763 0.7004052679094841 -0.48443748745747534 0.10888339066698022
Ni 8.541127244353207 5.14746338179686 2.903193543319495 -0.6866611788505143 -2.1840462060621224 -2.208672489251235
Ni 6.3655358510940525 0.6641295643056817 0.5484466936951681 2.2952405042504664 -1.4678271110488335 1.7645794670490773
Ni 1.3550124442814013 4.335883478405904 12.807400732077367 0.553420185274776 1.4506948222439209 0.29937539544538766
Ni 9.01107843679137 4.815103594736986 10.965910306259978 -0.3232015513307079 0.40209405206255266 0.5422577409000532
Ni 3.555916561424827 8.285152324073515 1.6513481305486237 -0.732074831098623 -0.25632355856123595 -1.7568525307184646
P 9.210267239004217 1.568569939757965 8.710479603902316 -0.881227096587979 1.1396551030867277 -0.10482747543005172
P 3.7739317020265988 8.07450765307334 5.901036200439493 -0.7792036662656258 1.0561652127921877 2.893964555668364
P 0.23063986163905204 1.1993578046901074 5.043939924799283 -0.05841366405220263 0.6683765216087134 -0.19276460286266803
P 4.108925129108256 4.96529552516649 8.02520553961963 -0.3987063665372424 -1.4202218504660444 -1.0956391025170937
P 9.235207716949013 7.044614812329033 3.464085349386147 -0.19998811719430074 2.4150935065550727 0.4457583257197226
P 6.345825428598873 7.698371743531256 8.342250198114671 0.768577039789715 -0.35551234764827155 -0.24863158923361697
P 4.074743645716003 1.265896766371188 9.28281238891872 -0.08673359404281837 0.526019681774636 -0.3794704011257658
P 0.20301921293003858 3.35789102777284 0.6775816019434442 1.0854626762047241 -0.008245784948559992 0.38939820176243906
Ni 2.462397583475828 6.43398257321494 11.384372440350019 2.069137692246985 -1.2427398847940598 2.6572186621287397
Ni 0.38378649421313576 8.012705520972073 11.442123606014952 0.06683942622205263 -0.009968938287253799 -1.6807550762332537
Ni 3.8179777028149284 4.085594614851687 5.770510953607279 1.6951985053520933 -0.3681696314009659 4.542817383876383
Ni 7.707212584593776 4.539557844189418 13.3716697394299 1.3956570166424866 0.36718155645608375 -0.4290754657474029
Ni 9.14279766247445 6.5907725629216305 1.3198482316089353 0.31002876139417573 0.07507235565480619 -1.3318846593815319
Ni 3.5403101504123557 8.718837455858369 10.450088177315209 -0.44713155191816545 0.018950830070889945 0.30434662340773394
Ni 5.320176191564576 1.7685032338497595 2.2484566746816057 0.012250278122262773 1.135870953453947 0.9060832363997104
Ni 1.3601587443946372 6.2521869625240445 9.704570760802808 -2.052656149652194 -1.287889998968137 -3.192560649745566
Ni 4.471194877404913 8.63751102423166 8.22864166800188 -0.6401638066199233 0.5562702531290613 -1.5723707366898791
Ni 7.343537607875604 6.007630686437735 4.545688734812565 -0.9175917512599423 0.7507143005766813 1.0699568672596411
Ni 0.8115380257227649 5.556626812318826 4.660604778787761 1.3817198377361042 -0.5103004712671663 0.9035527566683729
Ni 2.57434124362432 0.8024971024677762 5.087702088058763 -2.446315954904464 -2.018473333122898 -1.0306562698878057
Ni 5.5123667701153 8.827858985381985 2.7137734051733116 -0.014379665760439751 -1.0709793949868847 0.09891393815909418
Ni 1.2968676285354725 7.713801337722477 5.3298471410721255 1.886325058390706 0.44020062912628705 0.3555933373978521
Ni 4.747392058346561 5.569757787833792 0.20531969283599144 0.8451570903382993 0.6429434262475895 -0.42505580306504864
Ni 5.172050226099156 4.915349426237489 3.869772002833421 2.9429468991043377 0.16322108487759632 -0.8690066432623873
Ni 8.21426739104907 0.23196226533903547 10.126139287257764 1.4724923777349868 -0.07279127293011334 0.6000476553253279
Ni 6.17901271697183 4.160499804022459 5.8652959371756905 1.7716605422655745 -0.2849070266258835 0.6709391401295671
Ni 6.851642517305414 6.032087244661214 11.578273488992627 1.1361643163246498 0.7443384789573245 0.20158888602251734
Ni 0.5180416453588846 2.888293468977176 7.0442444276192555 -1.7173321040263392 -1.5307515184871958 -1.2137239571776839
Ni 4.031414218361163 6.561635012009258 9.340318802878448 0.476064947123064 0.6218323553005872 0.8918856047430898
Ni 3.7727125965748196 3.635995969154295 12.684121252457025 0.4454906738806328 0.7244021450447137 -2.121817282028888
Ni 8.035589340101273 6.810462810251038 9.446476830512657 -0.4693032029191982 -0.22329208202756384 0.3947234706300944
Ni 1.5080148315539383 4.960726206259439 6.879981600677612 1.4106725162147125 0.22050629175231057 0.3092458604815642
P 3.1874023874934845 0.6376712535426776 3.0343041468915324 0.12168979840302915 -0.9703618438731223 -1.9313746424311768
P 4.286812157434669 3.179417712091755 0.9775988005520702 -0.09202569567969313 -0.37556103876903063 1.1169612610336377
P 5.846234153230046 1.3367816993956338 6.641881930411491 0.616253575661229 -0.3622974888909051 -0.9103301846015225
P 2.7986380344547253 5.788657012541816 0.8074414591588471 -1.923904816416693 0.8794381230083563 -0.2862100617080232
P 4.8801814911056285 6.672043157657417 11.431104195591658 -1.48893458245141 0.1574391880884966 -0.3915391593648418
P 0.42796557292482695 8.137314849211188 9.1119440577811 0.9355686474533372 0.7467781987470687 0.2046047900307057
P 6.405422003508753 4.023987911868645 11.208422952138573 -1.0718283732507412 -0.6441752417721616 0.38494659374898865
P 6.847194178328691 3.075049256811571 3.905675123695743 -0.4834972350313931 2.3505978979748483 -0.9336310641109921
Ni 3.0114882626462873 1.8060721552912309 11.179125335472225 0.7813016864452351 0.5040493481511319 -0.1458198586820134
Ni 5.041196472225356 6.41845991753885 6.483420556436558 0.23592571163117432 -0.6454451096235206 1.0149136623415682
Ni 4.848224177201737 2.8777402965930725 7.724996634352174 1.1135154685768822 1.6182075925183357 1.954947801765427
Ni 3.573756448074146 7.832212771069338 3.9531839423360347 -0.37313468871572514 -0.4235715052100382 -1.435742828919779
Ni 6.129141067230723 2.7768988715894096 13.416453717793237 -0.8437679233002565 0.48466143054282335 -2.0476347851782024
Ni 1.0074557167424774 8.83312626542555 2.030188406840991 0.1232615137655232 -0.205909110664426 0.19575042496386932
Ni 7.623764351112064 8.194668642335733 2.2368788953490975 0.48976532742829204 -0.2697935680232128 0.3972866033715803
Ni 7.86503555678251 0.4483590667189416 7.08720347026432 0.2120342497255574 -0.41217457622700626 -0.24342510533201303
Ni 7.523667417987351 7.21845366606366 6.577456395051776 -1.5018821437510135 -0.8538610458702005 1.1621422284456502
Ni 1.91680601613643 0.7325855925750562 8.921093564612486 0.5337409616782937 -0.5499638512950593 1.7463403183332313
Ni 4.455113852819611 0.8071687890081821 13.099383002082432 -1.4598191531426923 0.5867103147864734 -0.4591265194965125
Ni 6.257714814725242 5.0474874286024765 8.838403782232453 -0.0040739129590575 -0.3627705718725817 0.18011940329483173
Ni 4.079126841653316 4.336069601375642 10.38240828182964 0.3538879246709712 -0.1858856163546476 -0.30058355682087584
Ni 6.238255658239208 8.447684207396602 10.527547904245626 -1.9363944642432716 -2.6017671660286545 0.456242255970182
Ni 3.5511332011025787 2.7476682591921686 3.5298584150467582 0.9060459554038718 0.7610159396130055 -1.140411264526462
Ni 1.1101304529980518 0.4484753935750274 6.878210640620563 -1.415876686123471 -1.1641168356735179 -0.6550350673048009
Ni 1.6207681266207874 4.016933851315602 2.4743801802675143 -0.2451518582151327 1.2394799830958654 -0.8034278289203132
Ni 1.3329754846645063 1.8444414055025729 3.0464133073026405 -1.3464913535511134 -1.6152829626723728 -0.10382474519715022
Ni 6.331317143107851 0.7434179494137663 8.935054648572478 -1.0655952478568356 1.0908691919322762 -1.7818613940579764
Ni 6.190208013601528 4.2841133743734785 1.5830140128244272 -1.7013848366684634 1.8427888256709681 1.839145058270794
Ni 9.10091999428356 3.616583343410696 4.397715390182329 -1.86849368663624 -3.305020702020211 0.9863579621910626
Ni 6.998391172794777 1.0881493302720784 4.39332940240047 1.096157436914409 -0.9544773114323819 0.256647517559558
Ni 4.691871576473927 0.928228752214406 4.622003805479096 2.072021184442367 -0.05736516818303023 0.7882804317559133
Ni 8.815128174251955 4.414390147041092 8.525268636716742 0.13715009882215734 0.9867150884201651 0.874944606013377
P 5.855828792320003 6.423876095958205 2.270958011107995 0.14146672391964024 0.7172547353666551 -0.19333101688909932
P 1.8078775480976825 0.3871432219723477 12.519585755364716 1.2224266271580047 -1.0424200952919531 0.40223392007452663
P 8.82701212586968 6.431953832844803 12.843889209679514 -0.28536365454732787 -0.08373800174960418 -1.2423339076048925
P 8.599151080168806 0.7981604372728973 1.83677779222364 -0.19520997907936702 -0.21999258534068566 -0.5234028129770792
P 3.2248968597470613 4.830077187652351 4.10620959497979 -5.243715275151569 2.6213636001033436 -3.3816082087679633
P 8.466184830588489 4.872113060367517 6.457324254849692 -0.0712475825920773 0.032407726906744184 -0.8815685390877979
P 1.7945976742069272 4.138407007514642 10.652516449816332 0.5175738650001279 -0.4219540242112733 -0.5289049737422311
P 6.781288034744719 0.4227922849809791 12.07572155836493 -0.35802997186380275 1.5821524986669913 -0.1455069554272849
