# total energy = -340892.2277996836 ev
CRYSTAL
PRIMVEC
9.07345049658749 0.00000000000000 0.00000000000000
0.00000000000000 9.07345049658749 0.00000000000000
0.00000000000000 0.00000000000000 13.27991196018847
PRIMCOORD
 96 1
Ni 6.4883698101703455 2.2854024940023074 11.411866159562678 -1.4470106885241143 -2.452548308967421 0.6362238481355688
Ni 4.580577093889371 0.47258611787795357 5.925031950557259 0.545876311489247 -1.5395909711556968 0.9616357768540341
Ni 3.064684839423036 1.7614924049663965 4.793370370436311 -1.7263373928487429 0.3549485047250016 -0.4696361607785848
Ni 3.57677222282493 4.496429916567901 5.14459818430387 -0.3521300614396 -0.6988644057849254 -0.2001989476535262
Ni 5.375819638243511 4.638393118678287 2.5427309862541194 -0.12839240723418535 -0.6926199675371104 -0.04937546510933432
Ni 7.2001729063200175 6.273546802809644 2.672635573024822 0.5177479286841471 -0.8946102027631044 -0.9292553036407997
Ni 5.132197499890968 4.430964973245234 11.75355868459617 0.37350209935747286 0.8040567207535637 -0.4842557104639724
Ni 5.520051202908392 7.921911430458367 12.507644966106614 -0.7766212502504303 -0.061985697674177116 -0.872123334514498
Ni 1.796779052864089 6.476283974480007 0.4101725758635908 0.9793712464605843 -0.23821450766535104 -0.4662564456730744
Ni 2.6516613855009585 1.6203185930249728 0.37971481817190295 0.7904018489742903 -0.8611760914743748 -0.26341183286658504
Ni 0.48872415643563827 0.01810879194502817 4.825747162849101 0.6714158226556695 0.6580766823446021 -0.13118771059113535
Ni 8.644058259856527 2.295827888302757 1.396435745621627 0.3894282836694261 0.2390228624992593 -0.1209313229704498
Ni 6.741591658853504 0.7109556358993132 4.784247923587163 1.379551883550508 -0.6293412620831226 0.5342631527303509
Ni 0.9712221113317043 7.232311066992073 2.671121214183443 -0.46156161130056644 0.8226640514421057 -0.5963717491356375
Ni 7.639609173826611 4.0150833825044945 3.8188772803010287 -0.03974257000526059 -0.41868538076233053 0.14699022484103072
Ni 7.584233907146329 3.908806060101391 12.561030425154092 1.3545936709432735 0.6794916576852684 0.5499247705270077
Ni 7.9675508850547665 -0.33191860445869276 7.016016346006017 0.027336483031423886 1.4273594899520903 -0.660387846976282
Ni 6.8471431052391685 0.7328834430410858 0.3054595162780651 -0.10404688851028532 -0.1904935474403042 -0.035820095022402826
Ni 1.7153448371577917 6.601506660938235 9.444141489901957 1.0661526630222027 0.1296260225309703 -1.0489429840121354
Ni 0.29463851954811193 4.711497907084486 1.1497585765806924 -0.5080499846700928 0.2580443979070846 0.8766459049751998
Ni 6.44974413259244 2.018652131044154 7.204816698141575 -0.37409011065045894 0.07413390300093683 -0.13942269690641795
Ni 3.3091780289965045 4.159732325879402 0.5000895601786698 0.7108686293346531 0.7449378031042203 -0.5201138578131623
Ni 5.798470022846858 5.541156048115394 4.833249998834342 0.8272850951538849 0.7970388946748338 0.419925938037651
Ni 4.96080002527348 2.5226459968516175 9.48145877595843 2.10162769445489 0.2195392998533509 -0.0628866122218917
P 0.23221953346361834 5.713778438512309 12.170401153714991 -0.847573670199592 -0.22405287145298833 1.5163661962998012
P 3.976947671238359 6.033091298583173 12.780347512407756 -0.16608426535800427 0.23507776180858223 -1.1570902678440396
P 2.3536802068925455 8.358598442548915 1.3113276899220732 0.1491869753820334 1.1203684869429738 0.7695108644578942
P 6.338712322275118 7.833408997032271 5.80726582548816 -0.8741233956636623 -0.2256793513128178 -0.9971645658882633
P 4.630408482486473 1.0483918054355548 12.448389892113127 0.5477316195304308 0.7720153760473027 0.7023294815153904
P 3.9375416769417075 6.119370736705867 8.332334433547976 0.24708018558609707 0.7671457066598272 -0.5547885263772123
P 4.87141746717624 1.093432412317567 3.774920950720064 -0.43133983630154743 -1.1797301167307424 -0.9639469414857141
P 0.19689205503994506 5.5134548045999265 3.572482295561873 0.22572511694908867 -0.5345418603130343 0.5462956584148527
Ni 1.4740817958619208 1.0480651612277077 2.5183760311790393 -0.11652753747579932 -0.2883088532185809 0.7465308586229531
Ni 1.8352595552385074 6.538600430577038 4.949210507310065 0.31314031043996393 0.23821759298914455 -0.6802974414160156
Ni 5.901907355331736 5.807470885463086 9.156087573177027 0.47529413039531043 -1.2668447482620633 0.13661299537176474
Ni 8.526548006083575 2.352954330875108 10.214775022574914 0.6388600002068353 -0.06630155144071162 -0.5159381291689179
Ni 2.4495865756965083 5.320045139753639 7.160912994571874 -1.6000867145479087 -0.914602072503999 -0.3990305826458805
Ni 0.7133963940079477 0.054231104607795816 9.130338028803445 -0.5748824689136098 -0.42331799443833545 0.4508984751597654
Ni 1.5218262909088889 1.2127392092336784 11.556524176387803 -0.4422613683100577 0.1240917229763024 -1.6380621653504177
Ni 4.328825144141525 6.601878672397173 1.56980488097148 -0.4993557993302045 0.8440438026694626 0.10443306820511046
Ni 5.553895172221427 7.867824593709038 8.041863349684977 -0.49175613260607565 0.7962608788582287 -0.6238704687765384
Ni 5.440277428591983 2.8599515087047194 4.913580882994133 0.04644003663009422 0.9395525718017496 0.20553990025046537
Ni 0.9758767912935238 7.583498957678673 7.08031807301074 -0.24390950116759927 -0.6378534133191918 -0.18071924166235973
Ni 5.120120737650848 4.402202136054263 7.21712755539732 0.7715127253792713 1.007732828322413 -0.08411749657620998
Ni 8.296136811248399 7.162899172824589 9.228276850456233 -0.2746742931542818 0.49448561572209665 0.06523351518751346
Ni 4.5682553484933655 0.2799213832945616 10.43559376583965 -0.22870631106459965 -0.6454615646837529 0.16247160830608148
Ni 8.203760014579228 7.326121468795685 4.487746624709302 -0.7940666994203873 -0.5077062281774288 1.1972868946675832
Ni 7.478564505907829 6.59817670470824 7.094713101781553 -0.08567841330542664 -3.1886392032039725 -0.6927762906093166
Ni 2.3248175617491773 4.888430186334937 2.707548394773534 -0.09787161293750886 0.9272842959573578 0.6264459428131985
Ni 2.171766603472429 5.14569879381531 11.485145158213063 1.1100359946687142 -0.06637534210144053 -0.12174482001068065
Ni 0.9607241294295109 3.1796273067843033 4.176147104668734 0.49330625070201484 0.4860979058790339 -1.274522062301663
Ni 4.056794033156511 2.6406915841874303 2.5680159699765412 -1.0781268046649433 0.04370566841806666 -0.19002714932684692
Ni 1.1485989896428357 3.4096664901605425 8.409702836211599 -0.24609930973006652 -0.19717507322553784 -1.580533732116646
Ni 3.710106573778026 2.6647815945161457 7.1903944490201095 -0.4480514926292735 -0.3714606434474119 -0.24087919898170776
Ni 4.047548187384399 6.9523134667156805 6.143287444135419 0.40544754191581783 0.3767383469065835 -0.37161362408550835
Ni 0.5924645421577973 7.677409167434681 11.281018841314328 0.5156403954228409 -0.22242253493841693 0.3697614013681181
P 0.3494548616949669 5.569519653496775 7.983032913161692 0.3318427719454736 1.0451686045713677 -0.07519345461370276
P 8.453851522937185 1.4000787358841427 8.053682425938907 0.24040688733097954 1.713976557290545 1.11505041716417
P 1.5870281041752343 3.130421986252242 10.453999259606807 1.1948726287991356 0.3904207294896824 0.47965420713621915
P 3.942622809063772 6.068659223437622 3.734829003586934 -0.14821921215212538 1.009308657449965 0.18095912558730767
P 6.72509612635723 4.012234319136052 10.232265005215076 0.5745068307417461 0.5230276890258476 -0.23107841084120206
P 6.001933070534658 7.670050599307906 10.204257079082241 1.697558520943838 0.8788210582496477 0.8140097182012174
P 2.408629021412583 8.864942331962833 5.773733982862623 0.6743167983525483 -1.8072428102455584 -0.6592339358774969
P 7.220433920656749 4.0692700272062226 1.519341072894186 -0.7420311709803866 -0.10109886162555493 -0.4599528720525498
Ni 5.2523662745777875 2.7349375116015042 0.4536443832029156 0.7347896589266248 0.1070620211875253 -0.15700287188202638
Ni 1.533304205434623 1.153208302353565 7.134791438739356 -0.8659169485934701 1.622688768218141 -0.7822902756107495
Ni 6.743714846204509 0.718401309148181 9.335750960943088 -0.028363638744357607 -0.44979084391788343 -0.8617512472515545
Ni 2.804775857929233 1.5173349330509924 9.156100276007333 -1.12626351227117 0.544560935111933 1.522677740340126
Ni 6.537547910351752 1.8176752087160781 2.563660713871915 0.09493592734795264 0.8408728611406486 -0.10632540013181688
Ni 4.003042914065246 6.712774380961225 10.427997473317165 -0.3280727633800801 0.5884350107870641 1.289365812182715
Ni 8.423319362953709 6.979497523568724 0.5538334205097605 -0.025082139779608416 0.5418026556405057 -0.31318376208338966
Ni 7.629365248530521 4.337199938692713 8.226785709197374 0.025227149997904937 -0.8183075742456228 -0.45797466528025643
Ni 2.9337640262279203 8.502975182417284 12.417912172830958 1.0213964418524344 -0.8436365399287148 0.1461366185914838
Ni 9.16309590612539 4.890317463980275 10.112971818474293 -0.6884691785935304 -0.7922111342688872 0.3816671516667685
Ni 8.584354957422274 2.1850319876911035 5.997725711668584 0.28092413071873557 0.8158999932453948 -0.1255593086607644
Ni 3.5392535061736163 2.844762553039835 11.537162340967672 -0.7649052473650827 -1.1119337259120592 0.1492633371459236
Ni 1.125198561530686 3.2716502388949733 12.739883553815687 -0.7823805213317107 0.1158204841064457 -0.3714639858815216
Ni 3.033408656521687 8.542190634259358 7.968172416394697 0.7288532388375318 -1.575732196962944 0.11803317548704834
Ni 5.590869481859662 8.026900322930521 3.2921036103763255 -0.08335773559205 0.2418690736988028 0.9607906552449195
Ni 3.048525024584828 8.250043684141101 3.529189235191842 0.6352573704572414 0.3312221076423392 0.37885693591148306
Ni 3.6328370717217777 4.225242636453158 9.449081983545643 -1.6084821377004557 1.5142828314082113 -0.11141669861179522
Ni 7.279429493974002 6.177077880092168 11.170556843670695 0.24697142792237467 -0.5643355466356991 1.1473491292968756
Ni 0.6007613050371109 -0.09270707025710534 0.027726649176078307 -0.5531029111446734 -0.04087565516843928 1.4364408834280682
Ni 4.458902126466369 0.20129358574068318 1.172585562639066 0.3053460112065257 -0.5572788968992338 1.315599034847631
Ni 6.3393202434397224 5.811327101805724 0.15676381410594284 -0.7717135285361677 -0.5739093063670632 1.1046958134027234
Ni 7.6153558413939715 8.819039747310114 11.286981912797579 0.3433607998874022 0.29287076155765046 0.7986674314171922
Ni 0.07443404886313189 4.99958902495531 5.766788256720765 -0.5930033468840369 -0.5510239171284574 0.7486759299904138
Ni 8.172220701621557 8.931151298203375 2.400158048289085 -0.19019632791485952 -0.14006110182136525 0.1914854790399283
P 8.51627686043683 1.711379739412538 3.7881346162724965 -0.6413339156686245 -1.0208799072273322 -1.2299339912786431
P 1.963558141320629 3.034678939552203 1.7487387633400153 -1.6038711212910055 0.057138911104837084 0.6175249861744848
P 4.692316633323695 0.8707826467988433 8.153546633727949 0.9914096656823572 0.5606154174716345 -0.38659698486821803
P 8.527618673209295 1.597734775432441 12.48987642854476 -0.17102823962684094 0.5533415095180405 -0.6500173023752354
P 6.38509579978939 7.7960445290346625 1.2644224890202678 0.6600762292731341 0.18503483831857812 0.015390366413141236
P 1.9382885824635776 3.2795259936841727 6.070752468402909 -0.5021361902888191 -0.010295468388737107 0.9061685970246651
P 7.010501502963534 3.941089395976935 6.129356068670745 -0.186512194195053 0.24547838831661592 -0.6830230678772947
P 2.456418883710641 8.601403970381842 10.31222297057091 -0.5930131170760496 -0.5042619783825703 -0.5640900062837962
