# total energy = -340872.42349274 ev
CRYSTAL
PRIMVEC
9.21630181095125 0.00000000000000 0.00000000000000

0.00000000000000 9.21630181095125 0.00000000000000

0.00000000000000 0.00000000000000 13.48898929839077

PRIMCOORD
 96 1
Ni 8.224673634137416 4.48034834832181 7.649187486034777 -0.4602374931725041 -0.4042002997722781 -0.35622197212078655
Ni 3.7415788279372073 7.133472740363585 1.3927647337125588 -3.354946640316377 0.013738432632015048 -0.3333756636502323
Ni 5.074080930342753 8.602293159814113 0.3829778834300568 1.923628937047487 1.3315871827457713 0.3690525482265515
Ni 8.233134199011143 4.013026559120077 10.036131263261149 0.7601183674994006 -0.5549908721960055 -1.1417747205328916
Ni 8.667415546957635 5.816527755067898 11.449508255514113 2.059688631018943 -0.12083387816063708 1.711085351785679
Ni 2.7730284759275983 2.449186070118217 6.448303386855475 -0.46840408814369655 0.5712988653274096 0.8108850565293068
Ni 3.2082038051298105 1.6306494593391647 1.3200693115399067 -0.056145436843316215 -0.573273215444961 0.22055668537427178
Ni 7.563763429714953 0.289605688605764 6.003651856342624 0.5404656819966369 0.06551247988051298 0.31240471782552
Ni 1.636990274843657 6.798137606452311 13.573834440125715 0.10818636459995562 -0.3658818638080537 0.031478530224255466
Ni 8.30829313860291 5.976937484509308 0.6993375739660403 0.38976741217639976 1.0322994619181833 -0.26615571416030936
Ni 3.7857617778333363 7.972017941927889 12.02013280451992 -2.184143136651303 0.2771345817693162 -0.5647350960669629
Ni 4.674701716575786 3.3204122771751523 5.5049642278873465 2.0322248783810357 1.0287446546873895 0.5412946056558355
Ni 5.730779284931564 1.2813147632893391 6.7065635120712255 -1.814623676090662 -0.06312315371273 -0.15230983728173123
Ni 2.9957219716180776 5.0401833730382135 12.118089187762722 -0.9947618699840417 -0.5541915162231618 0.05099963097631862
Ni 2.1034088664880635 0.1370473265019658 10.81532256085673 0.23928125836696854 -0.08171917154736248 -1.0856899617241818
Ni 4.716340967228834 6.010936421131506 10.993242341718178 0.23435579604089318 0.2660127608245419 -1.1498009332714778
Ni 4.293755106019552 0.05804611077092158 9.604874705501539 -0.6998421963171625 -0.669067377028151 -1.1095996784622437
Ni 8.215024166356597 2.5771544179087362 2.2712764271885364 -0.4041416786202008 -0.17545850748405264 0.34747482205577573
Ni 3.9757650517295793 5.754271637723644 3.218783197742611 0.5430388420404519 -2.01596547909938 -0.385651076015181
Ni 0.18362743644565047 2.3414106391450575 6.7446701543189365 0.6910238266945841 0.30220720846722793 -0.4909714319212512
Ni 2.4876549130190186 2.4333893291666184 12.405944700693627 1.1884243020706307 0.3345565713322109 0.6323006018217626
Ni 3.8128577045531147 1.4617975976272384 4.4418970163940585 0.17325867161925645 -0.8602060142516217 -0.9422995384192675
Ni 1.96615970298094 8.03573023492579 7.432014555005912 0.10199206286378563 0.9326938970087033 -1.1125009112694388
Ni 4.416092293529192 2.562657175483494 8.400740016746024 0.5415044076737965 -0.5764842661830911 0.2719386393906736
P 1.0200141801739777 5.759469631829071 2.019193988938863 -0.8820315947671455 -0.15689282866672336 -0.0762820596921912
P 0.14178450552712438 8.304523671246315 5.59134770120429 0.6115790530036952 -0.6341543672010498 -0.31547847165483733
P 7.055806966735158 4.137262304760423 1.2163048150254023 -0.7649538412148309 -0.19713342135432502 -0.8786127988935836
P 0.32871137794749616 1.0799477895136784 9.393043542883145 -0.25053266291107174 0.1087311813598321 0.5719915205190601
P 3.8596488678035623 0.19262531170297012 6.927189791311621 -1.3539917756932163 0.48512165800869356 -0.3542990440664608
P 2.403307320726701 6.00639278444006 5.858308015135507 0.006280947912705312 0.7988391811083662 0.3700444798261756
P 9.014879333781572 2.526510840587245 4.367585976549985 0.18552797590491274 -0.04516091280735448 0.3895103018602711
P 6.346723153821442 6.470746924524865 4.098912352150331 0.7018335157155784 -0.4660186186306555 -0.683207673084275
Ni 5.419987162195383 8.139017327017136 5.517954605000112 1.4496825789293228 1.766120843394268 0.3848044117441695
Ni 6.593996525893435 6.047174919043809 12.329043880098444 -0.14593915786869704 -0.011442180398670617 1.702699955935461
Ni 8.429837724174488 6.223915934929929 5.818651190957774 0.3560260540598965 1.2181655378888052 0.6599620722927731
Ni 4.689844100113404 5.9964391787062645 5.45947901457438 -1.1745902244010158 -2.2159062879955127 -1.152822236596305
Ni 8.136197138725894 3.796590932219642 12.901907990394356 -0.42883686737403565 -0.5190159967632932 -0.924009481860828
Ni 0.5945334786304505 4.61161613208705 4.5368461204230295 -1.1855942888210034 0.0907889950591146 0.1099768808414751
Ni 6.3848694261660555 8.264746113517552 8.104818396650101 0.8122168879668529 1.4040328994110078 -0.20298190971530206
Ni 0.34232662030910466 8.121312811633228 1.7099050449945168 0.6417720316473077 1.032008413040326 -1.2231689046406675
Ni 0.9761722334372475 5.918856351792286 7.758542591103097 1.0670605195484526 0.4633169034287763 -0.8343245184991697
Ni 5.767745870670691 4.179270207477685 2.934232650567391 -1.3157700132078567 -1.7049031342343668 0.8266914274339441
Ni 5.68030160103897 1.480608069203792 1.8706797399794997 -0.13028165383709822 0.029123399728517588 0.9492065499517459
Ni 8.004597568102861 4.9538450595991375 2.921890179457484 0.7680098544323354 0.4937214838625627 0.5878061189538134
Ni 7.296444601651287 1.9462340589101368 11.280638882829136 -0.4661811123504488 -0.8508878221744894 -0.35349017501192026
Ni 2.0231717447117394 6.800165192805492 3.73670616927845 -1.349212352026702 -1.2483857702259273 -1.0881937019826422
Ni 5.7375440503099036 5.9496387991542115 1.4743465138931058 0.9498282426961449 0.6636135530024313 -0.7859846937432012
Ni 1.8796647124145718 0.2535017486968999 13.231794446796536 1.3706990611455685 -0.5601171376789772 1.5403193646812892
Ni 8.851861390985842 7.058461261597504 3.532172474271185 -0.8665260429323787 -1.010050934932628 1.2817093240787218
Ni 1.6496626895510362 4.955190639633521 10.000884439401585 -0.358522338119189 1.186529141930447 -0.9414119936079915
Ni 9.100830562553222 8.660715295690533 7.774648999788636 -1.5948496345186856 1.2603565694345584 0.4765521711721277
Ni 7.543939164961809 1.8990281620874478 8.059846531336554 0.8181828757423006 -0.20922249130837514 1.3735799822377892
Ni 3.576192295628899 4.6305279829812624 7.61565397264365 -0.7522297087799432 0.9535031204445708 -0.4992812373385272
Ni 9.13367746147475 8.526894596380608 12.572533960361435 -0.2408653150246368 -2.0272587926250116 -0.7237097469633794
Ni 1.4566917665378651 0.9461455228069623 5.31785855921583 -0.8256411317925587 -0.9921609420260848 -0.8753431270033764
Ni 8.479449075716177 0.11656317455387742 3.9196847780910824 -0.21097161278899793 1.2326202798615546 -1.1973892245734024
P 6.5553433569605275 3.977847935892392 11.223216715676896 -1.5532975221085121 0.880670966974193 0.7857160134628469
P 6.197400635211289 1.054418634066812 9.544659998962874 -0.12536236215860994 -0.17268634405555422 0.5529501876168929
P 4.966148822242302 7.179932116756239 9.187202054678078 -0.4457485555277097 -0.39048757817187585 0.7999388419304481
P 3.6760140583166274 3.170463050055833 2.937443610046701 0.3784643284587546 -0.14237458044589027 0.00016943569832874044
P 6.35468603840848 3.3716088325929654 6.929631189606883 0.10954364995879844 1.1907686339330912 0.1906933221559361
P 0.754648286420489 1.993016005858979 0.6408794945133589 -0.17625863478784484 0.12296712245355595 -0.13659602609090024
P 8.212323789986225 6.729116723729719 8.180558884873168 -2.0560199239181043 -0.9544906811688207 -1.6272802442435652
P 2.472927263053642 8.723386146607028 2.5177876111177655 0.03976339594086701 0.4610527899849479 0.3977596863532569
Ni 3.73248233825271 3.940070315611993 0.8386640918550134 0.22418605459674293 0.943642168490091 0.19995597840478466
Ni 2.7438496650450066 6.92258532702958 9.498878942368375 0.5476840541219471 1.1312511952937485 0.4773944645677649
Ni 7.027448406695444 8.191835951517493 2.0679565191026987 0.12307665144822676 -0.13190967635882445 -0.3116020194185666
Ni 5.927602622015779 8.432934401513892 11.234870729056883 0.49503043248197326 0.4681966001185807 0.8302668034900281
Ni 5.622211252020343 5.023723058371029 9.051003549553966 1.109231753599864 -2.127002425774253 -1.6933293133538385
Ni 2.791083210772512 4.224688141788933 4.662442192180327 0.13915041708163775 -0.2546271446954195 -0.18031455002477334
Ni 7.984063648126104 8.840838694265823 10.215251928221775 0.25347014827284087 1.856624703112796 -0.3092551164529448
Ni 1.216376702177924 4.12023979569531 0.003690207162788892 0.24546964656586756 1.0383500389876377 1.204358971023016
Ni 6.981588089907139 6.519003479730565 10.021078277849103 0.6301408751662825 1.0139448706703957 -0.45832510664113973
Ni 2.24023408012134 1.0990071012335771 8.377782209447055 0.42055611542248217 -0.914421838172393 -0.5110972561368489
Ni 0.9493527957656299 1.2798217224292694 2.680261792118778 1.1234167868509943 -1.2736491727784065 0.36626007308307884
Ni 2.092192627434332 2.7542917347638873 10.058618117548084 0.14570621592228455 -1.3519971138606908 -0.40548739401481776
Ni 5.928109518604074 2.8123636511793038 13.256573395292728 -2.0968834949016855 1.0811249680613186 -0.7731340630327782
Ni 3.029462851795326 8.228350938477957 5.048496477086255 0.32350005640773316 1.2070144063679922 1.346860563965074
Ni 6.242781704316116 6.090887837558063 7.051881743881433 1.2258580214370565 -0.2031436321041469 0.40012407282037543
Ni 7.4910468100486085 1.3816157736605466 0.3072456898784362 2.1927805006113266 -1.9110246180199155 -0.2539193199951175
Ni 6.569149376765367 2.25417834445026 4.343831880792313 0.6884748350204852 -0.8298456567922097 0.06068009148887614
Ni 3.983285553839558 7.166282774078691 7.295276896237888 1.09626362347497 -0.19860254970068378 0.5991930206345164
Ni 4.660600775119574 7.9606265931436555 3.2425907480495946 0.5742168103051529 1.2500796129885825 0.46712882097569874
Ni 0.1870347031491546 7.149407725839263 9.804876745009446 1.9969187468805738 0.35721158972756545 0.029092289380266027
Ni 1.446415590247881 3.573657812687423 2.2534438052123122 0.5027604541363793 0.55647157050659 0.8374316966695836
Ni 0.4046942549027827 1.3767679990161235 11.79544674442236 -1.707146678852905 1.9670967784231346 -0.9239945694624925
Ni 6.991937996609966 4.523987536423222 5.06588395169494 -0.2966723946919278 -0.17962857970134224 0.6968651159667095
Ni 4.547765594565068 2.121850686000402 10.872341053998653 0.601657680124925 0.5176602540663472 0.18394160525439934
P 4.155234092890888 0.9020685603792953 12.604785486199255 -0.5851856506118308 0.19303045492954496 0.8367745227015588
P 4.006639662107558 4.150625942088205 9.923133875798388 -2.6426255948059136 -0.9214121534472969 1.0007322286348637
P 6.211059194190442 0.19635699222298317 3.7159740988171768 0.27069293990903054 0.8855470641195717 0.549807271112537
P 1.43018568312083 3.8719434141451217 7.82838833281937 -0.1733556022084369 -1.8336521534770227 0.5261667488754617
P 1.62111058717761 7.255994253905332 11.48014139879003 0.14415841181919045 -0.14561468464974278 -0.42104513924375875
P 4.491011609279219 6.2797206411504245 13.122277134819964 0.5481946752097785 -1.3264496044088896 0.6606958651350041
P 7.246943845728861 8.382613394748589 13.362637359057771 -1.1460630634956004 -0.6984846538480035 0.1548292612694753
P 0.6814800679754816 3.8059178294442733 11.499376741870591 0.32336018839575925 -0.639473465421118 -0.4736553092403068
