# total energy = -340867.22015395854 ev
CRYSTAL
PRIMVEC
9.27018229150348 0.00000000000000 0.00000000000000

0.00000000000000 9.27018229150348 0.00000000000000

0.00000000000000 0.00000000000000 13.56784882800171

PRIMCOORD
 96 1
Ni 4.495639860085454 9.103448927558437 0.1649119103157397 0.9719615842600746 -0.012770926512423168 -0.5458948234320082
Ni 6.929285232003116 8.206243591377063 12.084055457172008 -0.949416609080023 0.6427408233184801 1.7709388336082017
Ni 2.2885484765433146 5.286126856147387 9.611206483763283 1.5220683888909015 -0.207026769208637 -0.4107517277375506
Ni 1.628631999989923 7.59890758955938 9.501306617034302 -1.3155797515739214 -2.740433444385022 -0.13387811293910493
Ni 5.872818161696308 3.290951842925819 10.05066875197925 0.674454095261361 -0.9901346556246754 0.6920491826353049
Ni 1.9555171727914975 6.8296307708943615 7.082634443775512 -0.2850692632353607 0.16151515793008311 0.8399801741230501
Ni 4.8835228332680165 7.374884360986897 3.997440788982865 -0.8019317039907609 0.8340522386743894 0.11870911850815041
Ni 8.202220332202998 3.288838241332071 11.67938047553806 0.2824431384664232 -0.07583803017623714 -0.7637132839395104
Ni 8.805987313785625 5.614671391603704 6.362642549992791 0.7279592662683527 -1.2287607969061483 -0.19778930977076903
Ni 7.153605106413318 1.0510718241332921 4.124734299002853 0.5873006400723046 -0.1453488325828658 -0.27558369234242863
Ni 6.517540809249026 3.5645705474919605 4.048320185242902 0.2693197137105878 -1.1516593266364554 -0.4505107528030434
Ni 2.4615115402983987 7.437560064387483 2.6250941064538598 1.2620645532646007 -0.4939510833748654 -0.248265721253766
Ni 9.314957409852145 5.247256981223758 9.810015743147884 -2.015314732889258 1.1515258863823845 -0.1659773074664948
Ni 2.61811273206679 8.881919378059282 4.708342341875981 0.9726678662984797 0.37937089943342406 -0.007683484687186767
Ni 0.3390699005858862 6.993462704957155 2.7861709422988374 -2.238326307561926 -0.20362854216036547 -1.9443132048697163
Ni 4.239365666843451 3.1759459597151016 3.1785267785032576 -0.7828644029466646 0.4064836964898161 0.11358542412833986
Ni 1.6963599528141615 9.142633988684643 12.179328830064948 3.3134122685180163 1.381035152964254 1.5396282521515354
Ni 1.69803785583376 1.519447791344442 2.1121202185963743 -1.367485439304277 1.3135506369590346 1.3858161192926648
Ni 5.398305333717345 8.033892359662275 9.514535167360089 0.8454375976931956 0.4352792805652697 -0.045507754623811944
Ni 3.0757723683903375 7.1869221420621425 13.36818430265457 0.16147967670645738 0.7133536005400359 1.5093802519002717
Ni 6.655221558680397 2.675865968597724 13.338688436202865 1.6006099340412305 -0.3304505195836373 1.75006481837267
Ni 8.746305879309515 3.410120038047033 5.8599001624818845 -1.3964342611281433 -1.8590909052651015 1.4505220441114826
Ni 4.145820255955223 3.683358665133597 8.57342902825102 2.343370526988474 -0.48522064548040306 2.126248321217048
Ni 2.064960946544983 0.37632120165746036 9.803435767659979 0.8374075282998674 3.2867614986997076 1.1794436958385752
P 5.148464647080874 4.370510937662573 6.673414291696762 1.0658749838807837 1.739167711844192 1.209607106795833
P 0.07454339094583469 1.2972785992577045 11.224125524536523 -0.49514278969012143 -0.017002190984951364 -0.7172416227405325
P 7.196118163031434 4.943436022304843 10.464949496645838 -0.18941394122288024 -0.027411559243733435 0.8466704416590322
P 5.841308811621084 1.110679097149971 12.40941290390933 -0.8195360473360853 -1.9698550578945622 -1.2205515216224785
P 3.2706408732244907 3.786952953774559 10.966878889157746 0.45653381906867174 -0.06659337164951756 0.48924725014129294
P 5.270274844194273 3.941496165043774 1.494376582965965 0.9330206842205028 -0.00099887357815957 -1.5209479021332128
P 5.306057748369138 6.957271912755426 12.813015325436274 -1.1914854574944578 -1.0632804836807301 -0.819953337379162
P 9.147602806466438 2.3230891762727306 3.839429602467065 -0.3651467854142421 -1.7333269367926987 0.45702747087563866
Ni 8.424964275600317 2.5417913201311264 8.878135289591878 -0.5991320854895938 -0.234075545796313 -0.16117885763658693
Ni 7.322915718291485 7.101432519704474 10.192114122494923 1.754450349034875 -0.7344127352031803 -0.8361672281348631
Ni 4.772697802332651 5.533028894953954 10.583383493318697 -0.5018094030770197 0.9112665803728629 -0.13197163994501143
Ni 1.435988338938663 4.707658202412741 2.6098298240667273 1.9834497658598618 -0.43995894542912617 -0.8025084024298372
Ni 1.0740804169213787 1.8200798075078777 6.191457507227536 1.5098271096297031 -0.5862511157618677 -1.1309030679257104
Ni 5.575226765369494 1.5864897506689555 1.5833406696979184 -1.357882111886558 1.1132151637276442 1.1643600620325754
Ni 0.5075693715015411 0.5501056035757294 8.22109905871909 -1.0625472050591314 -0.7661388626618676 -1.2336875447838043
Ni 3.386685016867226 1.0129250234391036 6.821317271292284 -0.8958227350139668 0.4675661656234334 0.2038843669249134
Ni 8.359006927619964 5.904689048886254 12.298535959952362 -0.15539130442053237 0.011592332823289713 -1.1610564515806392
Ni 8.097309677657158 7.663465139992996 5.754870849600957 0.3847169942366858 1.4102441704280422 -1.1210500863910307
Ni 1.6815462012930646 2.295056144608277 12.31309478145667 1.4911950963508127 0.17468383410155722 -0.433222398036241
Ni 4.807053098413492 0.7549404815390007 4.6255781531523565 0.13437613562144599 -0.01717239801422849 -0.13542540282156676
Ni 3.642467890440507 5.5800658005972865 1.4787053395702112 0.8287092291949213 -0.789703280245369 2.349583083557089
Ni 7.827102400224787 2.0831583146525627 1.8963650657320692 1.6792386395887273 1.3400756798327567 1.118815540633557
Ni 1.17709995425176 4.576142124296471 11.833986724047788 0.29065267086040913 1.3563250518120835 0.24397146475378628
Ni 8.86077409193937 4.379224909145571 3.848588542706642 -0.19545937608601177 1.339856364733099 -1.9264643496137532
Ni 5.976236316871125 5.5569088848903405 2.9637199653014106 -0.028267222375809385 0.07318182350031267 -0.9167006069042406
Ni 9.245542283825879 8.275603096308757 11.460681112734392 -3.341133902803001 -1.1898530640973575 -1.7002931462661814
Ni 9.433708446764069 3.533218790518025 0.24122127101424587 -1.5667119957422049 0.1931250715258803 0.616835416306628
Ni 3.7415568704211104 5.876414992478653 5.825776620961762 -0.4467237749567855 -0.8991001202136581 -1.1733748639366761
Ni 2.590988178280351 4.057651550875653 7.185017119573041 -2.7772303014983977 0.19478009063080004 -0.35473381761103423
Ni 8.925109157994696 7.164228735476632 7.854522672830702 0.4555028067009962 0.8772771108012957 2.5231687994984613
Ni 3.7679676201605377 0.9872373479291164 11.32557191190875 1.0528276637785223 0.5783220907227782 1.1190019456127502
Ni 9.510929066395317 1.1651970400132816 0.2746115411042575 -0.7625729996874803 -1.1493602461896335 -0.6447213440836187
P 0.22504851074909843 4.195202517753022 7.958818714281517 0.7558485364794532 0.18871382983206209 -1.0507638392709582
P 8.655263417677043 5.375760250050695 1.7890432367365183 0.4064618421129451 -0.0853408274603498 1.5583104019420708
P 6.41535558833723 1.8558627116827424 8.435972617234423 -0.4976778974071494 -0.18093778543106903 -0.6409325664651478
P 1.0368050133754898 8.632838846381965 6.110606684157199 -0.5613947188398203 0.11140589997851781 2.610347194388182
P 9.126939569832818 9.031252746803556 1.9814625593730033 -0.5521917121843135 0.4158358271286774 0.42689028517062605
P 2.771135633417694 1.848984236320631 4.272638205616618 -0.4397540285071717 -1.1747496327970155 -0.19104530617871612
P 3.2013740701170845 5.548454478515346 3.7779543876909996 -0.2360879482406515 0.3714943248988247 -0.5086387672940272
P 1.4106622005433962 6.813862190583106 12.148896675187943 -1.0251975607660797 -0.9147193148081536 -1.483673848273103
Ni 8.05828220963224 1.0408004620022688 6.41871881052237 -0.34449671326405834 -1.292233363538497 0.7102957875503185
Ni 7.35435090690728 7.706367544273118 3.36380898768787 -0.4376246408689947 0.3011926511597845 0.27009927218908963
Ni 4.214929465961341 2.9064246757824552 5.5704841400389595 -2.1038385860632802 0.0707089364797879 -0.649900831402029
Ni 1.1299332660544252 6.7602156448680955 4.790970258917904 0.9759462799394354 -0.28069196010327147 1.0559335563973555
Ni 6.335149969963933 2.572994754186203 6.103035726167662 0.765193725139779 -0.55307257212737 1.563696605954649
Ni 4.145134262455498 8.061999552786158 6.6995460089450845 0.8634026668120486 0.624317583616286 -0.7999614676382675
Ni 1.2359378021268548 3.0859232181497878 9.9795738688969 -0.4306083574521616 -0.8504679610282514 0.3332445373890067
Ni 4.129421303238814 6.069040113165055 8.14515957829949 -1.524465428368168 0.9134311921243495 0.09440859408957289
Ni 8.789606901434073 7.64211590985965 0.37562222990233474 -0.051502281644350015 0.2216612312923602 -0.3855158359888973
Ni 3.5251722721698946 7.832590348222589 11.181264836077329 0.4901080554796914 -0.4557799716217828 -1.0395247760220292
Ni 5.726581033883228 4.379799660456151 12.36372944490059 -0.27873895014195865 1.5407641655281916 -0.5459452170539694
Ni 1.5151464266975152 4.501433724103405 5.244380443616126 1.2370405204164372 -0.17946660020218125 -0.714745595791556
Ni 0.28386503720460726 8.939088593097207 4.193130631980202 -1.1396767003532824 1.444846333882944 -1.5830958364168672
Ni 7.1238385506346935 0.7964421612541437 10.497078094907302 0.0806922729447449 0.24926896570729976 -0.2896669099083721
Ni 0.9381888126987514 5.761093923065358 0.4539107745493729 2.3033924439336393 0.3114783493565087 -0.539530057556245
Ni 7.224809377648327 0.1754817723209679 0.8364022096313902 -0.16331930101835745 -0.7616630862787012 -1.0024109018888672
Ni 6.1797446317288465 5.582837585143474 8.561286016287637 1.859897717437113 -0.9207948315782722 -0.015695299248069745
Ni 3.4900846316771843 0.21835543903556157 2.4197447333657944 2.2396810218176073 0.074334191937201 0.8749893432083834
Ni 4.138506082018962 2.501364054559472 13.251772132769416 -0.41546867359724576 0.6489490090117211 0.35220385210032895
Ni 3.3931092532903295 5.017310106079323 12.903458933283853 0.09244658526719562 -2.1008486501970207 -1.578852744869797
Ni 7.233347215665179 4.842937974595074 0.5234315806553264 -1.58539285998116 -0.3832851468861657 0.09731728309593562
Ni 6.031125067031584 6.481201694128438 6.223341372672881 0.20581295140619396 -0.5423528717170207 0.029869019645290495
Ni 6.40773549838082 7.130781917273806 1.0999006560400966 -0.2700607056416704 -0.1180833119986934 -0.290040491197707
Ni 4.41468335693543 1.0213145385370965 9.06168119360759 0.6925523475239685 0.6820848723337415 -0.7001607559988459
P 2.5400670661993847 2.254517636847478 8.577729465879703 0.281466890596083 -1.747159728910733 -1.8824015549665838
P 2.180884577816144 3.2016614457723747 0.7257820497277004 0.8351724683217616 0.7265068500925423 0.37050856394678766
P 3.523670502616442 8.241099477309056 8.728862177033392 -1.1467911999108766 -0.22205203897287568 -0.1718283669306331
P 2.3130681090672827 9.004916158523558 0.6991293482268834 0.15880033010208133 0.5516124426420758 0.7850017610046416
P 7.360404336033235 5.451089752466485 4.775977592875933 -1.8621836852578124 1.3291893719375558 0.48604314138169835
P 6.244700800006897 8.669224312414698 5.587417055263262 -0.6409585346070767 0.49214642606595893 -0.19302634116448691
P 7.782790928215499 8.751107833807595 8.64438856666991 -0.4117086923341813 0.715003220328317 0.7109886998522852
P 5.65681364092467 8.827206761364968 2.3623113181286515 -0.6132788093036212 -0.09878641144229439 0.4406927382713572
