# total energy = -381172.4819346286 ev
CRYSTAL
PRIMVEC
9.18432815815124 0.00000000000000 0.00000000000000
0.00000000000000 9.18432815815124 0.00000000000000
0.00000000000000 0.00000000000000 13.44219262557430
PRIMCOORD
 96 1
Ni 6.737512947703552 8.486310062548917 0.9792431743000092 1.1340886647425437 -0.9645622064722098 0.7542714218003204
Ni 7.185607135729404 0.8378605445873453 7.622986886489664 0.13542154616682484 0.5749058659523776 -0.4616721687365017
Ni 4.045411853195575 4.173423019497495 12.267856166867025 0.3800334727180874 -0.9494006682404231 0.9575312677673574
Ni 6.789817696741393 4.496940979964211 9.863962046236514 0.029790086778239015 -1.8336796642808486 -0.6029715138403422
Ni 3.433248826396766 0.5364051772968714 10.42517317553976 -1.7119464142343934 1.6749783216504766 0.12470364552868846
Ni 4.944061629202001 0.749794776878979 8.376489376658647 -0.32532733942445907 -2.18648438318997 1.0162359806974175
Ni 4.521637638465133 5.917692260545553 4.035185103756834 0.5885903054180057 2.035707180502681 -0.30313177716402634
Ni 5.439133655915923 6.531719705966782 6.082888016387332 1.7039510547337429 2.242924211345253 0.812445459037891
Ni 6.082238684384351 9.09134605067286 5.589370896435853 -0.8850503269888113 -0.3888523565612981 -0.23822324941609938
Ni 3.789444626560873 8.667452567425709 6.7640841275879025 -1.1249532781001788 1.1396293920551148 0.021242454318544064
Ni 7.469871277515219 0.4562342580999938 3.317546496734095 0.4415556004922847 -0.603770869813186 0.44377549096173896
Ni 2.402050825962927 2.297174982369756 11.714387426227326 1.01015043662497 0.4376125566841367 -0.05640897491734802
Ni 2.7004037271910684 1.7001201754422812 8.194615799257988 0.5445321387565267 -0.8300873404893705 -0.5243626057871873
Ni 3.9327752522824793 7.514966328924491 8.697716765674961 0.5758258066634857 0.7430544700385784 -1.4670310975100993
Ni 6.87745455632332 7.328056065944841 3.9462780515863307 -1.072297856687992 -1.146568028156477 -1.2714534506786683
Ni 1.5886591685374103 4.040691108506295 3.214673755119002 -1.3721900438687982 -0.8758228948532722 -1.343004166333461
Ni 6.943967461069949 6.085848125362731 1.07345417599981 -0.01830085519171687 -0.6761116854694421 -0.37461461569536125
Ni 8.212295631022316 8.235761589545879 8.874293741008874 0.2118984954786415 -0.0933025055095877 0.4466803233133598
Ni 1.232334787778654 3.5075041198069408 8.801034028774415 0.8710604404676223 1.1576019173731353 1.1923046109616433
Ni 3.2542187170035026 4.231780240812058 4.67945562347248 0.3719090438387401 -0.17117684938956326 0.5287414515811732
Ni 7.725351734755891 1.2773379959060327 10.234388044497061 -0.8929143031179202 -1.7502008297299019 0.44201505662720647
Ni 4.767006150369428 1.9273955608137323 12.871893818516796 -0.3608471295976237 0.20788963142956454 -1.3391218005599195
Ni 8.60630331034161 3.7910886213067507 0.10079983874277662 -1.1868327892137946 1.0756300063850184 -0.3979931425203017
Ni 0.17948473363863185 4.373751585961654 7.071736161107671 1.0448803839069876 0.7952262669461272 -0.6177594707827941
P 4.087411786005066 3.568148238840631 9.97324636736053 -0.5391636753557617 -0.6708555792768253 -0.33453497406565613
Ni 4.385865714843289 8.748182812209313 12.654359331622873 0.15692033947054912 0.6432470735309374 1.2617349378393237
P 4.07804377125202 2.193906396209706 6.318812283614611 -0.07714517902343489 -0.8734469384219279 -0.7639354272526456
Ni 8.395348476162475 3.5911182436419726 4.71671736136913 -0.5588308147673859 0.41825806341692484 0.6118451621808881
P 2.257572159217663 1.9134629349506236 2.460243647802903 -0.36898724220625484 0.9878828834760213 0.4444144100973185
P 5.909692710692706 8.05900919354355 7.84088507277988 1.1937518849311313 -0.4738576550591 -0.5491840357062413
P 6.593337363788534 5.1075243023144665 4.446153481943235 -0.21655039242835608 -0.6327628861701619 -1.6384105498287718
Ni 0.2921369479096497 1.8113791271269883 3.6305346249318236 0.7254946067779441 -0.17241252156887726 -0.17850912138491837
Ni 1.6443804876616566 8.44746953863653 9.604971338761905 -1.9089412531283254 0.6198541485282937 -1.6249878486649627
Ni 2.20156612591955 4.617531209089208 10.61404980318473 2.0793022914848125 0.6159249886772166 0.2779208251160375
Ni 3.673428192874129 6.441006096441452 12.602310825341513 1.1204579613329864 0.8551255144049208 -0.07767148384055012
Ni 5.308045739670601 2.8397667231349137 8.115750891529624 -0.555833679812275 1.8511132863762636 0.1453370055083239
Ni 6.696266129805581 8.146159283731448 12.009335696995707 0.7386380861384375 0.05513936417630504 0.26552965054053623
Ni 8.901735595205567 7.519466649737228 13.120682574238772 -1.0862165236516133 0.21305600612185244 -0.011850471580682816
Ni 3.78837006016273 3.084180064907526 1.2084803321726865 -0.5519898805861525 -1.5840224619961945 0.03839814016222419
Ni 1.5159101049502748 7.40399209141365 5.219401359286311 -0.6503294342990155 0.41219385950071596 0.5846171797028705
Ni 2.247744928055154 0.698880535128992 4.874542693839028 -0.8262126880253126 -0.20465235543918947 0.6164194118151319
Ni 2.241242423697157 6.396425367410779 3.2631330259439992 0.4371710982713439 0.37359363063001466 -0.3818571561903875
Ni 9.490166317963327 3.753157345885103 11.248090818163178 -1.9389804798028927 1.13576116734896 -0.8013465209112522
Ni 8.025146575509746 4.302637332792207 2.3910029975840645 -0.9088047490959316 -1.3721545626451723 0.9410026739847149
Ni 0.4750676414848923 5.5447442457642335 1.4574022606534067 1.3754651150756443 0.16456782871347786 -0.950242447415428
Ni 0.7159992044409554 8.585537544305692 3.332521543846685 -0.3905865656435854 -0.8070122038374616 0.08931112496200748
Ni 7.1708571046574505 3.813333064181141 7.086602833147628 1.1797658550646841 -0.38881713244798843 1.8113424342362285
Ni 6.921493409990827 3.006618413349217 11.66451652415964 0.518767371087597 1.2014330556254729 1.1423074531079103
Ni 1.060220477511904 1.4731019512601295 10.055513150250196 -0.9204166223032471 -0.19451835232898113 0.3108939376079485
Ni 1.944276356025594 8.48403234915798 12.342903149367112 -0.8541153279728516 0.5846151228203416 -1.3624735879119825
Ni 2.2500593787588477 7.4252813641563575 0.9378236910320803 -0.9273120638714998 0.27163422077637733 0.5587151151251281
Ni 5.305694551654151 4.25635750304652 5.975229321352816 -2.0123957594702504 1.1543276174972377 -0.11309228654200523
Ni 6.455462229011348 3.4047223030409217 0.8768342412584741 -1.5900612119911068 0.2197547582982667 -1.5608730204629249
Ni 0.5968490779760356 6.313545989830889 9.877927735681103 -1.2178017267914834 -0.6925921996229685 0.608183654168901
Ni 5.337307009281586 0.9944790563331742 1.468721026713852 -0.9753227874228234 0.3222397016380708 0.4432407015041915
Ni 2.9671625394481524 -0.06340217278892503 2.2579386139124145 1.1839446690327222 -0.4017808916975081 1.6923677207715175
P 9.029002830924155 -0.18466285787173717 11.400297178646886 -0.16128273020430287 0.1411047125945312 -0.4522321063695243
Ni 6.80737813223926 6.686595032222289 10.217719407266372 0.5543516959501098 1.2440069244319414 1.0625027249744412
P 8.163499295352771 1.135899341791414 5.440135666121371 -0.20425614844203532 0.9445885915637603 0.19692619043952536
Ni 4.545966923838486 5.5601279954812455 10.331211987566705 0.04476907668557451 1.8620566727616445 1.471413285738195
P 2.886625165556523 7.318421705674306 10.688586137037497 1.021633240453589 -1.9593443881712254 1.3692839259655967
P 8.34570718229952 5.702907561511497 11.853245284120762 0.6064533017413556 -0.20683085114774702 -0.5333897489864621
P 8.547073577849066 7.274731856477993 1.894434843808113 0.029464070897387968 2.44815917876079 0.7946673091188636
Ni 7.891321729464025 5.8653507741949555 5.885543438151863 0.7071379586476273 0.1562852769897115 0.9666851663524834
Ni 1.4425181383898906 6.110177410736084 12.646616942959326 -0.6756913101025718 -1.863754886399674 -1.3678978442513474
Ni 6.959387948099718 1.0808944002659304 12.90270356586049 0.2249206187699223 0.24835288165093355 0.31970305125914616
Ni 1.6262781768006234 3.8118452030144807 -0.07013612221729114 1.168512650748368 -0.7539634036415983 -0.05909140684551759
Ni 2.5784634018222508 5.891608768488052 8.546263520102773 -3.266477551639691 -1.6035685024489224 0.838856344931252
Ni 2.447072402746684 1.1241985076782957 0.32845086313716854 0.6208314248398986 1.1279475848418121 -0.29102908036322134
Ni 4.648124206287635 5.247374067652343 8.132083382348586 2.5595139137863985 -0.25485828686961914 -1.1279601832473027
Ni 6.213997056587489 2.376454103299457 5.430229449736434 0.5780508393392625 -2.336322876113073 -0.38085494017811833
Ni 7.0303919893308935 6.054704068472947 8.153442455985532 0.43064203890357444 0.6671529336142575 -2.158042582909509
Ni 0.5094758086131395 0.1256765100762088 1.1241057459635841 -0.43004271475667877 -0.4095569360985011 -0.24289365830857526
Ni 3.2213663750705166 6.261186134823912 6.34655630220873 -0.6634204631550188 -0.4082973526597871 -0.28685078061581565
Ni 2.9591721739234953 5.18999956945403 1.3254528544239326 -1.7330754829035249 0.489517473083544 0.2790991616948548
Ni 3.8246389721821212 8.164380990858943 4.652826582320537 0.7430233596903268 -0.7396037924858166 -2.602065928215996
Ni 0.2881573785052429 1.715035524421641 7.67746832130836 -0.42944004817567333 -0.9805812076082854 -1.2781187785139858
Ni 4.0980196850636625 1.8955167576688075 3.999240398522523 0.15469119302971424 0.02496104082071185 -0.19226298063590114
Ni 3.047745834980728 3.907398953495551 7.138772572561087 -0.2848131813604966 0.41595229810188367 0.6777877876202844
Ni 8.224575077811357 1.857622219559917 1.5138326099138637 -0.33170933169140293 0.3463875025288679 -0.5005588184993701
Ni 1.6510666785834387 2.9345030684071407 5.652334058337332 -1.482138642575499 -0.8596413999974035 -0.22800080035714285
Ni 8.949145097318532 6.0639894242722905 3.707437760158962 -0.38012526110094536 0.8778373541801399 -0.4249640146821907
Ni -0.0016210339254045553 1.8611857388973503 12.345551909616896 0.4767180073260306 -2.061748598871765 1.1473085058669272
Ni 4.998276718503208 4.117242483963786 2.8442202038738866 -0.14772427479357786 0.7399740313410418 0.2755075876888546
Ni 0.7539295614297843 7.132788064312964 7.459610546062176 -0.7543202727603847 -0.8531547638317952 0.5727687650047167
Ni 8.274344952268963 8.14502961136417 5.520063200621234 1.5607125836256606 0.8169132650012576 0.7522747030852657
Ni 4.918914938619804 8.208162683337148 10.473310076445314 3.003502034979576 -0.7756977099948963 1.122744700484634
Ni 6.35516018085643 2.449322563153053 2.965737131713179 1.3414208810067414 -0.5447329419134231 1.2608203964448546
P 4.9419676023748496 5.189843435874813 0.884353450747022 1.873196234318232 -0.8305784211931759 -1.7997493300819907
Ni 4.4776355221103845 7.113087680346999 1.687707555894495 0.7893386978170986 1.2057291118976654 0.7712070212133945
P 1.4789891056294457 9.064187992217214 7.09009838845646 0.7348606213738763 0.6503674866258026 -0.4752347379122848
Ni 5.317478044720972 1.9149140588045266 10.476172831541907 0.030759906890676054 -0.387710529647371 0.17490366342184718
P 8.387560165857982 2.9569311978453157 9.27742513195138 -0.21166478220128065 1.5152223125033453 -0.8263934365775509
P 5.438821388757487 8.802700984340765 3.1581488072781956 -1.3031438398034139 -0.1769464048834888 0.03134277597733957
P 0.9332930619363179 5.118196491670388 5.120816780502785 1.6566813231135016 -0.5705234206139658 1.3593748943820008
Ni 6.206557750754188 5.567989780411254 12.222407518822468 -0.17856697120604728 -0.5910757908440207 0.5456006892303572
