# total energy = -340861.64546904055 ev
CRYSTAL
PRIMVEC
9.35219277978169 0.00000000000000 0.00000000000000
0.00000000000000 9.35219277978169 0.00000000000000
0.00000000000000 0.00000000000000 13.68787946734357
PRIMCOORD
 96 1
Ni 9.23341052514096 8.180877347105264 13.72059352978665 1.5334437206073785 1.0731532627097518 -1.9548395583223366
Ni 1.5079569071621195 0.5083823908699442 6.31487548234589 -1.1689777633102447 0.6516543237580261 0.48409373096481145
Ni 6.7826964781484955 1.6224183939226655 4.849533711773507 1.2557581514305984 -1.7970578992927566 0.7181911311379954
Ni 2.251287889325835 8.591803343246422 12.431509729843402 -0.5970829162700491 0.0026374376228470706 -0.43702634516336347
Ni 3.3163436534202253 8.706844665955915 2.508700447544913 -0.8102474229453077 0.8946742232318206 -0.0567802422138377
Ni 7.343837393837646 6.838987326159912 13.38433731079996 -0.8230700286312728 0.2116619539878032 -0.7087094168998053
Ni 0.7954189547645434 5.048182702224694 11.362911355144801 1.4218077068959256 0.4658972625614428 1.2259079008383855
Ni 1.8130628426205762 4.406818677341004 7.71526908010138 0.5711050041490487 0.2704386578063794 -0.6052004031708609
Ni 6.496669015848917 8.424081118917341 1.259621587201869 -0.15119963493668798 -0.13078276184323284 -0.6515327105784973
Ni 9.093314678121352 8.855581939053367 8.213699802692714 -0.4852147319431321 1.3924734767081826 0.666919991667845
Ni 6.721776294738233 6.500624993371567 8.191237706205953 0.028416603469480092 -1.8115401520693317 0.319458796458824
Ni 1.4785255566567321 6.7045682601243435 9.711742450347124 -1.010196459371557 0.8216749480559591 0.0527729208266575
Ni 5.032162396086871 -0.07071660528963704 5.623706355105531 2.3438652072367057 2.147083512794844 -1.6680376286665854
Ni 8.884994585173304 5.262198280542231 7.278256077573273 2.143546189065547 1.4357163465572176 -0.17232638961297417
Ni 2.6146205766897705 3.67670234349763 5.1582084439758 -0.8904187903895762 0.3718460518112886 -0.24738871796545134
Ni 4.291880228751487 8.221175945557032 7.22899340239465 0.05757342753909439 -2.4303931130266205 3.4860145375001963
Ni 7.126099642815583 7.626189444396322 10.611829275650656 -0.03407405886557357 0.40410979694100085 -0.16197230007215974
Ni 4.754608020396089 7.5086043252656465 4.045083344494489 2.5323499517770967 0.8027331168461336 0.23800804808149975
Ni 2.2825803261834854 1.4502071170856126 4.2077366803666525 0.7662635611651899 -0.9124942821323769 -0.13467952579447773
Ni 9.118247623926043 4.546428210338915 9.447620629067176 -0.5221069769837912 1.188384707081947 0.5589313449009923
Ni 6.25590616633805 3.3122286886212513 0.5263217669549249 -0.8333400430987132 0.5873564330109046 -0.1109454154023315
Ni 7.819648903104441 3.259996692252459 2.406220054884288 -0.7602878031977294 -0.609755369531395 -1.004377795807251
Ni 9.273634306050928 1.6737338754044135 4.315487033627781 -0.7654927444374365 -2.0080531662308387 -1.3945082477500241
Ni 7.404187093491687 1.4265928304551379 11.463804680700006 -1.0640888385146385 -1.257622715443163 -0.5449553423368745
P 8.8935798980948 6.856485278748275 8.791793438134366 -1.0295635510442591 -0.8547053961483668 -0.2933196761696109
P 6.351186305819745 5.398805759675436 1.1381908464226973 0.8725323970274586 0.12535850550386798 -0.24909541624391296
P 2.612460220170309 4.800976191926343 9.70451507580929 0.19904786476821848 -1.2744521282956762 0.593059911153585
P 5.606742412721761 3.084371865070803 12.125695833395667 -0.012016564844901885 -0.07677725416105487 -1.177853982753952
P 7.8912025296429595 3.868693507947932 4.436994462387298 0.6417373217546303 0.7229661839291356 -0.34090333948584517
P 9.071524069072241 6.830532943936565 11.77780455143988 -0.7923690000029902 1.0727053765390557 0.529720784775307
P 1.0913354256514733 5.36914995654465 5.102307582401014 0.03337446169538768 -0.8455137023467696 0.6509968926796853
P 7.597048011865408 0.9688497575329286 2.689353013535497 0.7276548476540565 -0.7950725149770823 -0.44829343343675054
Ni 2.104944777565967 2.5785491693496754 10.284566125188272 -1.743627033167126 0.9755768124151586 -0.3038791968530121
Ni 4.448529456894239 2.919520763908278 2.496984020499107 0.6399221229227624 0.3058630600522603 1.0957144358397195
Ni 5.546364656489546 5.158304771560867 9.870425780407551 -0.45814744341269487 -1.4422541476757356 0.26004111662213925
Ni 7.224484710281956 3.8532623899517806 6.751149661648727 -1.3446967235445357 -2.1340014827999054 0.035480966515429216
Ni -0.145688458269122 2.9424055795062074 7.959720434422962 0.036376738856821224 -1.8909347892485757 0.4171303775703848
Ni 5.867406728351301 3.573444783621563 4.40007855204414 -1.639368285756351 2.324344106484642 -1.5133214959362067
Ni 6.617115905953425 1.6338374212398177 7.7026080815903555 0.9161020540882933 0.21211549658545406 -0.5103536931026049
Ni 5.711776889215567 1.0784106953056056 13.387060669321466 -0.33348724952743214 0.9664553097298646 -0.30252062594258866
Ni 6.915768828431673 6.210950175909262 3.163953413844411 -1.3316432327946872 -0.43232611147421673 -0.40990403502527467
Ni 3.0135196529866546 8.250326730280673 5.4556605449081665 -1.4869347784125617 1.0171890886393062 0.5925102092977022
Ni 4.319226040279212 2.217769630599648 10.073868704849543 1.5874476856276596 0.016621410606764923 0.7129892752220818
Ni 1.6950475226245527 7.693338188161395 7.656986215039552 1.120305237805206 -0.270239911532012 -1.1610297121077617
Ni 2.0947882962666817 5.282417721213552 13.502914697578754 -0.1724166353339353 -0.22018876051189176 -0.6374950015385086
Ni 0.578831523447648 3.8754270867098892 3.252198833958404 0.6786593915919602 0.40711387387464726 1.899145607194142
Ni 8.900659507987578 5.6475927905443015 1.9707127553848969 0.20102144355482154 -0.4548322629965328 -1.4964159784301196
Ni 9.549711035291171 9.10368625985331 11.039124414718279 -0.009240287651345378 -0.055284374394601564 -0.02788901310078423
Ni 7.448002116408032 5.794955291311187 5.685644057084266 0.42849722464642975 -0.22712739661325404 -1.8061724599995153
Ni 7.485803679402241 8.490266586831744 4.307576013801754 -1.3113065781198643 0.7618659463181267 -0.17354123585668177
Ni 3.1205742031090473 1.5395205576087936 12.497102268739043 0.5423731834319949 -1.360921155823198 -0.032799048807891897
Ni 4.316121112294532 8.579290109380452 13.879509729445926 0.10514423533952214 0.45982483111511774 -0.10963183879723055
Ni 4.614979783012728 6.575292900087492 1.9301551011946476 -0.25525423675645714 1.283037298861526 -2.5678651139645714
Ni 3.348131756492298 3.2744645343979424 0.4533026518164075 1.0949366771334303 0.9909910900876998 -0.9096907512453106
Ni 2.64292031187544 6.690539971036932 4.011109633982597 -1.5008182212628733 -2.5091012656618012 -0.9618671761385499
Ni 5.4196892060302275 0.6110993940065098 2.517556974055431 -0.1407514430201705 0.9064264786717422 1.0726300432164302
P 2.607138822509818 2.318202828272783 7.082382817922849 0.00863273597433352 -0.17123418499005993 0.15609810067956986
P 2.8327978807699057 7.162797647068249 0.28106705927826964 1.0031876321538915 -0.5464802636218331 -0.9025477124426262
P 5.5875891220210825 4.430966038956801 7.817531566671513 -0.28504560908627685 0.2637306496585845 1.8803618988287358
P 2.8148042619671205 8.90429751095758 10.298569163355326 -0.20742374753673953 -0.8120325398701885 0.17318488095852755
P 0.9204643180319043 1.0263657427913122 13.227296225782036 -0.7260329957799173 -1.2219514872937989 -0.2637188225840426
P 6.098901554871752 8.411885859604018 12.596749882223284 1.3376344173811157 -0.38323758147768194 0.8816582705881267
P 4.629681429976335 5.301496194372431 3.4887803181019494 -0.9033059307648895 -2.058530349044784 0.54986949180904
P 8.28426583767948 0.39314373689395576 6.354734527739586 -0.5695109201890515 1.9969961370857283 -1.033736451475026
Ni 2.1439060124580687 2.4554369043185593 2.1242224524298865 -0.3460128927982686 -0.207026769208637 0.5176455987783278
Ni 8.486460244392692 7.959941146171271 2.088373627276645 0.7076830325178198 0.7345268921835415 1.5931601626314047
Ni 6.873122829605945 3.1011122900484462 9.661015221787776 0.06353453021853574 0.29936382548116186 -0.12173736381151293
Ni 4.347993385101129 0.9747977521059907 8.007819696826605 -0.9075685626959853 1.199492129849018 0.21697102490554246
Ni 4.642241424805929 3.3086467988075996 6.257920628651004 -0.4937556795346077 -1.8154428295578475 1.5646265739680858
Ni 2.6499251042264205 4.975132724850184 2.173265351079474 0.7389705297771919 -0.7128753753520368 0.6157231570790558
Ni 4.828752204319416 9.330009323796869 11.226305746450143 -0.5198963424857175 0.15782305379047656 -1.3561962395437028
Ni 7.269964423503342 5.185912444484892 11.335686186903228 0.184606749642224 0.3079572235771277 -0.0025862726699374815
Ni 3.4066671307577 3.80779202892312 11.891303697569029 1.7126295563443474 1.146254610681116 -1.5739077421596959
Ni 4.773592971627719 5.6750882371556255 5.598671470400137 0.40843696356144504 -1.397218961812968 0.004424611430256895
Ni -0.14424635015093618 3.2145543878019742 5.847845682047816 3.0651570887872115 0.9464590691135957 -0.9308267618929775
Ni 7.971883896281021 1.6489131559124217 0.23528901110895875 0.3529453582520438 -0.15024575566385093 -0.2496528314092797
Ni 4.32119000075145 6.832712004841477 9.239045221257737 -1.4429048938858569 1.6669443956024066 -0.7534643525179927
Ni 0.3538233778012162 1.1756173864886366 1.6965990513976204 -0.5108468306889395 -1.2557789773662051 0.5793245638453636
Ni 1.6171998703821486 7.093469842398266 1.8646177402360826 -2.280760051246104 0.31673779798323515 1.290157711956391
Ni 9.12976952536317 7.900526665789726 5.86147837338296 1.6232667522087978 -0.1331846864165061 1.5637362009433327
Ni 1.346491299766023 3.081556855060596 12.645109135584677 -1.4831567994273682 0.01460772261084581 1.0705651902676014
Ni 4.753663448930871 5.629038040178019 13.234167281777049 -0.1546189450308821 -0.11553586298649135 -0.0001871763101416131
Ni 9.012277928159744 6.605229269000026 4.083641499880145 1.7697401853144101 -0.4740090930352998 -1.1380371078673304
Ni 6.72621858628258 8.614585284724377 7.520955766197475 -0.10136779901622543 1.0578312876407006 -0.1091024486563218
Ni 3.104993450029297 6.236163687495702 11.167242908515053 1.3197030297136756 0.1521547997611057 2.5142375584471024
Ni 8.673868834407774 3.3057850278337675 11.481626219156652 0.011588476168547784 -0.8865683062952344 -0.03107075326287552
Ni 8.124717429791998 4.757741004958945 13.474484966914208 1.6425106880400744 -1.884890382826709 0.5669189910921592
Ni 1.7732879669614046 0.6911850259679924 8.850773976773475 0.20031798972989373 0.2475563538915672 -0.5681801171927698
P 1.3966471093498787 8.654332103805373 4.0527755230107525 -0.44601157938110925 0.3470811861617829 -0.3740536009855687
P 4.511422952969463 1.6021802488658943 4.485353715748691 -0.2682974430936605 1.509181248515588 -0.8825702408794348
P 0.7952113360860497 3.952096362668951 1.0615337283141781 -0.20839253920791206 0.2397018908441549 -0.11008949515993943
P 6.165105727171604 7.296889386358445 5.902364289537855 -1.047262768096235 2.4498018565705357 -0.5144831418899461
P 8.904232045608506 1.9102134206472572 9.696124288496476 0.1985477852033484 -1.201079786051112 2.2145037512210317
P 3.4356589282050156 6.249649549405066 7.0582644481045 -1.960561291297462 0.5083358913416277 1.8515575730025335
P 3.797457855962061 1.2348635274011341 1.0922042443556204 -0.021635318881588546 -0.252038815142953 0.17860065265746014
P 6.092654290131492 0.24250890389261276 9.371105664288075 -0.4665469803302997 0.6483049476698189 0.6102274240718071
