# total energy = -381170.5067982356 ev
CRYSTAL
PRIMVEC
9.20901004397709 0.00000000000000 0.00000000000000
0.00000000000000 9.20901004397709 0.00000000000000
0.00000000000000 0.00000000000000 13.47831706035761
PRIMCOORD
 96 1
Ni 3.9376529899183583 0.882657830231749 0.9743786496539669 0.8199091144047878 -0.7144630315541308 0.33343788434673544
Ni 5.675632624882312 1.1974291617217183 12.698232158847446 0.1728984600663603 0.14533417729484646 0.40804384188808435
Ni 4.999608404461868 5.86030090386842 11.291985931026208 -0.873086726869032 -0.3566865704620309 0.08368657968637845
Ni 8.36107205215698 4.626127791956977 0.9970991193051176 0.3192204551957728 0.0321866120348736 0.2456452529117834
Ni 6.8444401832983495 2.7910391457773187 0.7798226565528947 0.23376649919632647 0.18195465673135758 -1.3632893989450585
Ni 8.15127238468271 3.2912173188612193 4.872950442626171 -0.3354700842854158 -0.5306772351513054 -0.1318130028799601
Ni 2.8138959087775444 0.4120976753433865 10.680717627634362 -1.1723757332482 0.4144464029803185 -0.43154089656876005
Ni 7.2300398530588 6.691229882720288 7.299182942485992 -0.26323571230003695 0.5503744564699167 0.17118122026493743
Ni 4.979781405775531 0.280013764772906 3.2071390568982627 0.533387949214249 -0.7373242524230206 -0.40364159905533065
Ni 8.677871207664937 1.0976127015446664 0.36011005078046454 -0.9100501914672585 0.7470520212337456 -0.2675291974690683
Ni 0.7469649086138116 4.096591294761586 3.6679892315660623 0.8456862233688919 -1.1872225684530455 -1.5580995714828456
Ni 3.9438414446871546 6.1790615785218455 5.635486866371763 0.7768115118843654 0.49530476918928246 -0.04550544063096679
Ni 9.100435843856856 8.271035560677042 7.401846828577495 0.16480514153526454 -1.2927465557294897 1.4526156934157177
Ni 2.657333528533051 0.8575936675171184 3.014371453553292 0.06635683015867927 -1.4610735943750837 0.7112463243890461
Ni 6.282230118365328 1.84916001357061 4.7421033021084416 -0.18171580124767417 -0.1109346167690541 -0.07362636723689901
Ni 4.684485288787125 0.061300696449355443 9.012519266495634 -0.462294632811849 1.8921023271941155 0.5278523641080006
Ni 2.5319804834246438 1.300413521363749 6.688237875347696 0.14631582448182545 -0.6345675434790684 -1.4484206814977636
Ni 4.730502712119971 7.563875677201092 0.48642727924347473 0.6188850997468052 1.3463633126136814 -1.1378776994713307
Ni 7.475902003977421 4.408233404628881 6.688264581476906 -0.6417812876186882 0.9757344210389454 0.3381946823054305
Ni 0.618577494686478 1.0177521661949667 11.669108707014818 -1.369968353627131 -0.08320938293964379 0.5245158435355999
Ni 8.496112975861775 0.46540034654467755 9.353359463699155 1.537511977139481 0.5696507882010254 -0.10167890249874104
Ni 3.332123741603766 2.43384927209088 8.43982566449595 -0.15313027630049758 -0.11514274131313074 1.841004480077036
Ni 0.24830622219189233 8.011940062284076 12.91197144083078 -0.3534181841234043 0.5078931473772543 -0.7807393861838618
Ni 3.324590771364368 5.4725831617912695 7.812234390750398 -0.7330780755521569 0.22208340643144334 0.4858310253708923
P 7.553137971456425 0.3249933326705695 5.73098061722073 0.9263651265771982 -0.2081169169490222 0.7845618452537456
Ni 0.6299911417704744 3.364861772411905 6.596234339316249 -0.70462007732178 0.38509443218076256 -0.5279297543131554
P 5.613315253720941 2.147550357943415 8.723638145923807 -0.238382400701783 0.12940799298289324 -0.03361357428938727
Ni 6.532770446400837 0.3595713236912167 1.4867127160337166 -0.0458067739214695 -0.0013092057297267774 -1.0757585615430827
P 1.4100007412278432 4.093625993518204 0.25959923124393763 -0.2161554709827826 0.19940936187269528 -1.6000923709748636
P 3.680961043154345 5.299490608466436 3.7158235925862355 -0.26079419273807986 -1.0904359610495995 -0.507428806146326
P 8.508204406087117 6.982354318145801 9.70871490257913 -1.457524957791877 -0.8883819624652056 -1.012435890225037
Ni 4.817352886114785 8.538290241994341 11.30275494740512 -0.7543938063107976 0.11256983837963194 1.8010186837127176
Ni 7.10531302063533 2.008374588716016 7.042299448312468 -0.7992107055151719 0.0731936505748546 -0.6824198870756569
Ni 1.4163457491678735 4.103323081124666 8.501125440044298 0.35030534952603537 -0.07532046710987028 1.8327509818189922
Ni 2.701849883224062 8.805029218747576 12.756014092548059 0.3186172743941351 0.01912643641680577 1.0906478199500893
Ni 2.064254861836631 8.804320124971985 8.615259148181241 1.0372200391482524 0.34695957298225405 -1.0858195453235107
Ni 4.613833763510038 3.4344910975709313 6.784351392574551 0.6050163121845128 -0.0291370265752724 -0.2967796096937534
Ni 2.0948011482474884 4.837769261445767 5.447006057215594 -0.16409088907705935 -0.33465555880392045 0.013150935559661223
Ni 6.15722701563968 5.0994248646389195 13.25515625199879 -0.07559300404496659 0.004635441889482339 0.23336669265474647
Ni 9.055026215188802 7.454656817739902 5.251381818946099 -2.1601246622495185 -1.0948963108137983 -0.02368320254955276
Ni 6.7140129736399325 1.301886962975367 10.531970013337489 -0.42371034478074776 2.2770504636050006 -0.7277245245497274
Ni 0.7455918452119851 5.167101879662552 11.626315358108393 0.368123865764695 0.31561525434301774 1.7045174687601738
Ni 6.100913919045652 8.066052205470749 5.411086313427367 -0.9291789418769094 -0.3556473305642391 1.3680924767606566
Ni 3.701543180666635 3.210067522101354 1.3397442824828716 1.7012873918586506 -0.1557998527128607 -1.223551741901383
Ni 3.7236263868207606 8.446227768298431 5.242162678962406 -1.398708916094933 0.7602515506431552 0.023012915955405527
Ni 0.9270986710401647 6.248985592003195 0.7052950589362452 0.0779473632097561 0.3442424311614071 -0.5282071763442581
Ni 8.567538057984962 8.178429755386846 1.6332216199819378 1.9859771602674055 0.9009947661332095 -0.09762761524750282
Ni 2.802458318267359 7.607185651572591 1.551852648782344 -0.5924402752917152 -0.02542332516911105 -0.39144711387166775
Ni 2.4047672182815676 7.0855504850195015 3.666924670001668 -0.8264371453312928 -0.4113366537067432 0.8235189432432335
Ni 1.1885516760117194 8.981013401235211 4.88243940660499 2.160872081938504 0.14258592512574797 -0.5750058818653516
Ni 8.367748584459623 2.289534875242962 2.7649822517768605 -0.705901772247681 0.5709569086069587 -0.8041618788728602
Ni 2.3372743834593876 1.907720108622356 13.044948625378302 0.5276762435414526 1.5236303340613824 -1.6554083699383488
Ni 4.968767429728687 7.1296340162371 3.538354917674897 -0.4848007843341651 -0.05737622392662376 -0.24308726237662007
Ni 1.1969042481475793 1.9687113823332716 4.701223585495106 -0.24559897305488024 1.5362889033656573 -0.8292252495993913
Ni 5.528150328569416 4.37231826534569 4.695333502652662 0.06715721457278756 -0.08941011243371699 -0.5281902070633935
Ni 8.174442254025404 3.1762888731550096 8.536694320548758 1.2409951341888112 -0.32902689976323335 0.39837700822228167
P 2.208348242442806 7.524847892513359 6.766020858025014 -0.13226500281571416 -0.4522791575573759 -0.22139306523263805
Ni 6.721186792486497 7.050454947632773 1.9225604283543718 -0.34024822240034946 -0.8775391062134307 -0.45424630858607584
P 6.689047347333078 4.80961731765379 2.596287921662707 0.4641100887540329 -0.6370427444924384 -0.4091316756356244
Ni 8.614706607576885 3.675647444342447 10.629701553634101 0.1568429492653944 -0.63661028494071 1.4824386903144209
P 1.2495245317024897 1.5478504130047868 8.67661233598801 -0.8215692757160301 1.4529085420657881 0.24764454272999928
P 9.016587807145715 5.408423988615374 4.9132647260210485 0.2513677572178574 -1.0432644455701194 2.2669758529778186
P 3.9372201664449458 7.2761401574823 9.703054124087496 -1.688256269706305 -0.9463446550229186 0.05221036345496815
Ni 6.74804947486831 9.018871641643722 7.956453013893561 0.5477586161136244 -0.38881996066146585 -0.6842826513160086
Ni 6.273518394836636 3.7244183616870057 11.08416343801453 0.17350344064021087 -0.0007721022793341541 0.7958482168008423
Ni 4.404991833083321 1.9964765477021995 10.797749411241158 0.2789443812845454 -0.10864813472772257 -1.1583642494604567
Ni 1.7150399908730751 6.674837844791037 9.286991969907849 0.5094527785548902 -2.4127268060951095 -0.4360015034432749
Ni 7.183497516151814 5.18944293809871 9.280939808488126 0.3807312701160604 0.21894203258898423 0.10249291375960412
Ni 4.862458617450443 5.586434153318984 1.7049662547546436 -0.6328284493007746 -1.4641244653862653 1.582175638595443
Ni 3.56908077978217 5.576856782843466 13.368724526917275 -1.3349686976234945 -0.5737259867116635 -0.5039750432697707
Ni 2.542672144118947 6.861817585305371 11.759804563615953 -0.055856701958303806 -0.20781532654820337 -1.2250676643252771
Ni 7.106602282045495 8.492880613326287 11.221049847337877 2.9900325397382312 -0.22242870558600403 1.4775096284439198
Ni 5.921955226304564 2.535148382889622 2.6006548342391405 -2.417519342387746 0.5683606086346922 2.011049529855001
Ni 0.22296026376903968 1.0907980340909327 6.65247928923574 -1.249190782625726 1.2316954540544403 0.6310253346537649
Ni 2.6966099564927455 4.770819758217871 10.685825865521641 1.8395284097521414 -0.3249049071750598 -0.949000861698843
Ni 1.4707617896869434 0.2648548132923778 1.1058556864606621 -0.2796159534302733 -1.7978729389948844 -0.5159296445284857
Ni 6.061526982965087 7.257703719316928 9.796687654901795 0.9391728198648277 -0.42709160254815476 -2.540146050782748
Ni 4.768342534508339 4.193129347352787 9.29019946811614 0.48669671580529733 -0.019260133781192637 -0.04914175183197343
Ni 7.4064384409997 8.775855074837539 3.6658868145664845 0.9156747367428875 0.6115973078361402 -0.4140833632139449
Ni 0.7063421233815013 8.187251987036408 10.565827859770458 0.14929907547986546 0.9830360969066811 1.6136459412895823
Ni 1.7147268845306063 2.6717456292966903 10.562673773820588 0.5829107385347251 0.0706127772215558 -0.48553509139702833
Ni 4.958527010527941 0.8819708380803322 6.567040856485058 -0.0580303125708549 0.09700335139994262 1.1282345199546118
Ni 2.319712801250915 4.945477843255048 1.9802069896069145 -0.0042999129269345295 0.9575924600225961 1.5922384221480836
Ni 4.194179174501065 3.5718987368643895 12.28864025514482 -0.12869734006911385 0.6070693380587996 0.9868531566599262
Ni 3.015453512236824 3.081178217125063 3.6539850899486397 1.158125393976773 1.109698151713321 0.5257463735085913
Ni 4.689237137984593 7.641093226659951 7.449101942864102 -0.17405545648893894 -0.9851140624816326 -0.08682229710188273
Ni 1.500304293999886 2.424115348444128 1.6461206803906467 -1.368343416429198 1.704503327692787 1.2979070168845066
Ni 7.123556069589175 6.264880343388525 4.339923730613259 -0.38291105137619863 -0.5696793274461156 -0.3708332942760581
P 7.776981379291429 2.7117127330118302 12.468521690695182 0.554949991655741 -0.7358124437641844 -2.2177184015035873
Ni 9.045144947380887 6.10672480440147 2.890829820726167 0.10836865581409078 1.0923298356382027 -1.0654322399164102
P 3.9586403238738437 1.3440089750474986 4.697382507393819 -0.3619838143052282 1.5866182477478288 1.0456002927921477
Ni 0.5970523545427525 5.962548542704641 7.1076696063129114 -0.0248391705308669 -0.5778934878257919 -0.40170015905824363
P 6.654983219074483 7.619406007938948 13.12910700572889 0.9717468971461071 -0.23909691027030433 0.35174799550983293
P 5.4411712284335865 5.466827530495887 6.9912704816981055 0.8060053598395022 -0.6883750762178273 0.4647472081173996
P 0.38422292275459435 0.6666577362755902 2.9478022824413945 0.1863954661115306 -1.5109303699962109 0.2014564742097111
Ni 7.867192841962745 6.179172086642717 11.859585108653722 -0.6661764286336012 0.20403323379795185 -0.67165287836714
