# total energy = -340894.3453320239 ev
CRYSTAL
PRIMVEC
9.02468495930635 0.00000000000000 0.00000000000000

0.00000000000000 9.02468495930635 0.00000000000000

0.00000000000000 0.00000000000000 13.20853866708648

PRIMCOORD
 96 1
Ni 6.3859753673279505 2.0722752324323865 11.356410850770207 -0.3305860167202371 -0.6784326202931348 0.6947753233172164
Ni 4.6879628444856465 0.46140867734792945 5.951701210221262 -0.13848167314938728 -1.2983785572042863 0.6952892868391574
Ni 2.679771899888112 1.350535078185871 4.85049200563661 0.4646410215568385 0.8681895466777305 0.1761560477717095
Ni 3.2526498758729896 4.065638619655936 4.853240022204096 0.5086590790090013 -0.5638094989289 -0.5949028778995948
Ni 4.767650812600243 4.544443279714817 2.2884714875796215 1.1890693918537973 -0.2649426676888147 0.2417160930607063
Ni 7.296277288934191 6.366933282081993 2.783831932180543 0.683697725346816 -0.8161128805871493 0.3200673765771004
Ni 5.080464442361074 4.6059194335989195 11.602010431955286 0.16902560737451536 1.06560758915201 0.2269980701242413
Ni 5.262014029514113 7.852125684417116 12.319683160694526 1.5693484049237876 0.0012009622866366414 0.5251174816753408
Ni 1.824475433056329 6.495589190739036 0.34293080837827544 0.9154088846760107 0.11708649530306288 0.19085401610351646
Ni 2.8136260270767526 1.639099379484197 0.20358877027112027 -0.24262497802822086 -0.45079743080552687 0.2657337961315423
Ni 0.5507990842530132 9.20111754147642 4.683536236517332 -0.16985915901940424 -0.5470528482958514 0.24727121855098064
Ni 8.598620549483377 2.2432569135081675 1.28222453038861 0.19863854514494178 1.02167103567006 2.1151763796736023
Ni 6.829809373202905 0.750800542256234 4.8212222449360365 0.34685261509074455 -0.07044411285417544 -0.688980313901994
Ni 0.8837269318319434 7.463757392249105 2.5059772245132015 0.35945744833894866 -0.6248472308675109 0.9542042602766536
Ni 7.827100233048852 3.956069919669604 3.774194541389845 -1.009556511794713 -0.6240144505535705 -0.42705175044915483
Ni 7.773322135427687 3.901181785799505 12.460539540936406 -0.39259125477844004 0.30004233960542515 0.6259566618816058
Ni 8.0015834918855 8.979128341059335 6.776231623587646 -0.43098013896928355 0.2694153587481876 1.164881738864
Ni 6.737874907610221 0.5482144144831353 0.3748790955722146 0.1458525116921617 -0.07362636723689901 -0.06488435937821084
Ni 1.796020601406802 6.338225759253847 9.121460257290655 -0.44640521527510213 -0.21752664029869634 -0.6835023215065583
Ni -0.0693718507474622 4.860361401098685 1.4403117416068443 -0.007979675771366903 -0.5152133351877513 0.09849022035811425
Ni 6.23081395897073 2.182953968667654 6.932606852070735 1.1567529391092788 -0.8529485613582601 0.30530847310037096
Ni 3.313972610112931 4.247576268261855 0.3085539784641055 0.8745885082255388 0.14814362171918355 -0.3060512648036664
Ni 5.951463861007058 5.4963941223684945 4.463389876767181 -0.371087062158077 -0.2519254294935403 1.32281149343567
Ni 5.355933925795949 2.9679300903636574 9.18760849057373 -0.7112638078905428 0.4956739796032431 -0.008868763244539566
P 0.37340175464578657 5.507738151351512 12.375739991265739 -0.6000641103855601 -0.3333314406758582 1.8308663632017692
P 3.9883241436833714 6.167262127547968 12.589758589934373 -0.8283220210588315 0.1789832328078595 0.6717351536683012
P 2.4131466077049146 8.502083494565841 1.377439468960869 0.6008968906995007 0.44902054141076214 0.11789047926159697
P 6.351636441090573 7.665955458569323 5.929893961506414 -0.7471057572898165 2.1258937660911066 -1.3357045473482545
P 4.728700272353064 1.0276679493899703 12.500824832087794 0.3362506712051822 0.07713155217668007 -0.5290774947643534
P 4.0824786817739245 5.937746339882009 8.1252325053319 -0.8043202588275954 2.1893596478552357 0.60762186812816
P 4.642288913950202 0.9390274938042891 3.631040476359518 -0.30057815750423716 -0.2740795969930763 1.58674834556779
P 0.2326518656863237 5.6078489815095205 3.6408277471885415 0.95576517700587 0.27403203158459255 -0.35088667595080214
Ni 1.514937763932598 1.144663965090721 2.678850479554647 -0.01658155850776499 -0.16561246792790832 -1.2659296926469619
Ni 2.017540518206449 6.350084195279055 4.84944875205631 -0.8026148461007145 -0.06416599315494756 -0.8915896707692257
Ni 6.002173565744989 5.664533027684807 9.092334891549292 0.3533991579600107 0.0017288097656486354 1.0323174596403124
Ni 8.483889729705249 2.6139999959674807 10.43403209576295 0.8011799134264009 -0.944573936275741 -0.8746615275553195
Ni 2.454705281902844 5.124766620784013 6.897869034758537 -0.3446134413475807 0.3269800445365336 0.5450080499516807
Ni 0.5162877865330779 0.26618308262061396 9.185376685985425 -0.9885529129598524 -0.2026849473001735 -0.21837973232761101
Ni 1.4537774740217693 1.1586793008191432 11.244283652600354 -0.1566398321156528 -0.26736156154295243 0.9005774760901328
Ni 4.062398757758638 6.940822022781348 1.7627853941388947 -0.05484934373971199 -0.2641949908895127 -0.6725777041742546
Ni 5.630997298408042 7.875625964028714 8.199411805752595 -0.5336211482709777 0.5566831722967638 -0.6903633102924498
Ni 5.235246813950366 2.7565719688184878 4.8433859687064365 -0.20446286513620274 0.35277900787750854 -0.5840060284814329
Ni 0.7425826641401352 7.3042460857456515 6.829765152246647 -0.04084480193050385 -0.3875570347886422 1.2400068021336128
Ni 5.0484629095259255 4.4514529259829025 7.045579663220468 0.7311718596683795 0.08280391997110902 -0.9238783555996023
Ni 8.156717826187869 7.302513346235118 9.013453730269287 0.23819111062658335 -0.0006962547360762203 0.3701529803795819
Ni 4.444404647036413 0.15086836572617698 10.303360072487925 0.5740797705066565 0.8194542862555565 0.048564796282580876
Ni 8.358202942396982 7.20409915684784 4.976977477563011 -0.9856377961955864 -0.45630396244605287 -0.8980210282168662
Ni 7.166339875014151 6.1849414853663705 7.034920607825207 0.39985179299559526 -2.1078446218988796 -0.23252259948689633
Ni 2.388915328612311 5.208010314769181 2.4054864551187682 -1.5964054090415798 -0.4686051484109091 0.7128108406626885
Ni 2.5439233173253695 5.044311554448608 11.292772382371918 -0.5105884348212304 0.44285837846410825 0.4322008987502621
Ni 1.0628100725879588 3.171978217098768 3.9953191769886516 0.5736272563502701 -0.07252413531165575 -0.8396112208194056
Ni 3.655629132976169 2.467276668039156 2.519343685393669 -0.44539580017398134 0.6378431289065467 0.24155874154723558
Ni 0.9932838997278398 3.4886995354432484 8.241374785836316 -0.6386851651918678 -0.5103102414591792 -0.13606792150157213
Ni 3.7226825421597987 2.580978673732904 7.051628909542916 -0.8628542505077463 -0.2771962882451871 -0.4697732005770813
Ni 4.1886992236435505 6.815965506488546 5.92985425289263 0.5474989346943345 0.34990322899161025 0.484124841313063
Ni 0.8972802036908902 7.211463299767603 11.19249279060533 -0.40310449560493805 0.8378394736309634 0.33891176297711306
P -0.008582475388106591 5.487486758322162 7.964695994618048 1.2603732816051068 0.5320262929800321 0.618693038340657
P 8.36678541778509 1.8198908931013782 8.14842684812367 0.0432958345741577 -0.46878743962504427 -0.5826651981828224
P 1.8731545836803531 3.1170630091738167 10.416002580168463 -0.6945570366588232 -0.20468243734617653 -0.008135484622940826
P 3.9386974011395246 5.788071939974809 3.8304634520573995 -0.2546862800681291 2.0064292574741702 -0.07159159619505735
P 6.736575352977323 4.162491538546745 10.452088685412292 2.086875218736064 -0.7893937194247501 -0.27652677298198824
P 6.460943425213335 7.707450959972599 10.338811742379722 -0.8949799273976974 0.7749986270453426 -0.4514476627950161
P 2.40158598628308 8.301455723427042 5.920594926133222 0.6090969100117897 0.5039143652351643 -1.0541877773508426
P 6.834213419458842 3.779510983294296 1.7715420459465494 0.8599440188394867 2.7553502135958547 -1.2530068139377064
Ni 5.566154937037331 3.0289640346851767 0.23059604245455645 -0.9009078628463582 -0.32527694580249783 0.3775580145944014
Ni 1.3495243134713935 0.8782985838341031 6.975456056216612 0.2537336863468727 1.0899477085592713 0.18347777824410336
Ni 6.720348969435981 0.8925684156781347 9.270808866071135 0.754294818839088 -0.9308519587039582 -0.08262471408076738
Ni 2.7600645218944053 1.5384741422839987 9.085506814915599 0.03639499368926635 0.07909433233000572 -0.005173573781139477
Ni 6.194715219167969 2.0322056312513213 2.6204950617264924 1.0646552525410697 -1.0848774931252156 0.023073593990011878
Ni 4.039476057983884 6.816272345776869 10.265848067021885 0.048897239921335135 -0.42632027159976904 0.10130429276814167
Ni 8.18445970772629 7.141720534468668 0.7214612914815395 -0.1025438216021976 -0.06326327883502009 -1.1466310201839285
Ni 7.4941254571081775 3.8484144528928175 8.143235849340032 0.40943403736739165 0.45808445138524334 0.32470770356258916
Ni 2.9032050498973057 8.418460763812742 12.284072656347597 0.012207854920101556 -0.17215052615674223 0.028233026703764277
Ni 9.218174196033223 4.882029669665293 10.391949989837883 -0.544870495932552 -0.2233581593788089 -1.4099312671733137
Ni 8.544508538519036 2.3913880922888002 5.916672798053652 0.030286309688367197 -0.020491435085132452 0.06278608208828541
Ni 3.9599866329382034 2.6872353143423333 11.265971775473853 -1.5486736501832554 -1.0888701592243764 -0.19993900912392018
Ni 1.1675054427009186 3.2584256742414315 12.617271244475047 -0.9888930699080904 0.5083312633559375 -0.5078422395346608
Ni 3.0246051118539934 8.13514882915572 8.037580252748318 1.292210994940994 0.1196005199741682 -0.9130444982088921
Ni 5.534685860614274 7.910497346678182 3.838955680595999 0.6762533532536289 -0.4064351026400677 -0.19621733729795884
Ni 3.215874284698926 8.21568511765568 3.7881557290085626 -0.989682141468289 0.1232975092097812 -0.5154920427704348
Ni 3.121593401019063 4.228525158330948 9.078241943530292 1.5372381546528042 -0.5454371670692995 -0.06100765003162396
Ni 7.427694751186146 6.3635039018007316 11.74828162316758 -0.3443051660785425 -0.42921507664906083 -0.6869758818774556
Ni 0.5311920537291431 8.989425506588073 0.4095239586294201 0.4659695105602749 0.4179042796219319 -0.650990207811466
Ni 4.5363481373140475 0.36801943254119485 1.4320297882275954 -0.260374588702158 -0.8935807330573255 0.3375573058317477
Ni 6.146433154681775 5.712445080088023 0.6315357207588799 -0.4793436178743357 -0.25448521980091654 -0.6668873386576966
Ni 8.15033737392773 -0.13973100202852995 11.355843198086808 -0.5300827961004161 -0.16217233189810779 -0.315525779953005
Ni 0.2692370360079276 4.743726372795962 5.706009577249685 -0.6190457936943854 0.6522909289007605 1.0600894875472582
Ni 8.026978955336743 8.811449694675508 2.5209157855120794 -0.9150070212519016 0.63177943921097 0.36521800497180973
P 8.428180349504636 1.6540623071324418 3.5402981716488204 0.099797369205312 0.4755998345611874 0.6644684448035588
P 1.8571718666326804 3.1976353964135806 1.4946647116593674 -1.026511651591813 -0.17616170419866437 1.2220774713487017
P 4.796701273456515 1.0870684257354148 8.187075061425 -0.34529864034006336 -1.2616680891571304 0.4165822183763987
P 8.416105321040613 1.610942362438043 12.572006132167868 0.12589715161615736 0.0872969227454561 -2.612124855113895
P 6.134267879368244 7.7515365459567205 1.6384135034279446 0.7503553745753657 0.4132061028153142 -0.9776838314558324
P 1.8369114489183804 3.0924526933132843 6.158164342649177 -1.1746233916317965 -0.8677331758666024 -0.437979195994936
P 6.826786103744424 4.062371683703786 5.83736837904946 1.020741324766939 -0.3857683183193356 0.22963859307088194
P 2.2809800966020535 8.418650282196706 9.99970920535753 0.5997859170235089 0.2086185391757891 1.4235547714940193
