# total energy = -340862.90341199614 ev
CRYSTAL
PRIMVEC
9.29808134369945 0.00000000000000 0.00000000000000
0.00000000000000 9.29808134369945 0.00000000000000
0.00000000000000 0.00000000000000 13.60868191096951
PRIMCOORD
 96 1
Ni 6.484695671024428 1.82519473953505 9.607116855472835 -0.3785324626925287 0.6604215284276949 -0.5367596938999594
Ni 8.398733576237465 4.439963936740771 4.569250966128808 -0.6934584042780058 0.6311716304236421 -2.191631474608548
Ni 8.841749952155135 4.22462037660449 6.937542908174055 0.232885896363586 0.09920627258853237 0.22635580855455212
Ni 2.6161081208956873 5.465997896908237 11.006770032860514 -0.2743073967331663 -0.3795277367262625 -0.3960151928583244
Ni 3.430136532070608 6.885619633438777 12.608484461418383 0.48179876428304763 1.3616415789289904 1.5464473319558982
Ni 4.055237231742545 3.0236430190292456 10.84147897352603 0.5086611358915304 1.5029375815987214 -1.0925206114927701
Ni 2.6262151351386986 2.552713803408245 6.372183309893811 0.32676432898130175 0.742463887642431 -0.5625476014973408
Ni 5.7579390498080185 1.733748111126573 11.993494495221928 -1.184256543846186 -0.11786502534030023 0.43448712368127757
Ni 4.641295288538306 4.77240753126204 12.629061115070435 -1.4482062514941123 0.9915891286830149 -0.4063091185851648
Ni 4.94940580461067 3.5132148874167943 6.371625425022993 0.254955988789748 0.5330693895325659 -1.0563984118489163
Ni 7.104905579995515 7.011171623616678 11.712543674277287 -1.1153010997223956 -0.7682304550835737 0.6934933712809992
Ni 1.7748735241871418 4.837298839819515 2.9304251061559174 -1.319019887603722 -0.8322504095789602 0.7955448266278106
Ni 6.885786998900023 5.4915862163164855 13.85173275565561 -0.9326105932662777 -1.1763149204016063 -3.4610216150002846
Ni 1.8335165221914391 5.584576326200897 0.18865341810816408 0.4718527088139294 -1.1728033077039222 -0.7338380936466329
Ni 7.041529858670434 -0.1834771763150783 8.217698076040339 3.2880840741658726 -0.11712609029174666 -0.9846540921260785
Ni 3.281720560270292 4.336913303019251 4.654903960153827 -1.337904897433683 -2.444049013247158 -0.7654621483098172
Ni 6.764605106876873 5.819492347221758 2.4678939174569843 0.40545268412214047 -0.5798729801496658 1.1570257331546914
Ni 5.372626565695433 4.161942011367932 1.0669845693018447 -0.4121095273170257 -2.5226957165167847 1.8737328235479922
Ni 6.577881040613625 5.496384026205532 8.408382195078286 0.7337113382607816 0.5559982304145973 -0.2725590465834919
Ni 9.225202820031658 8.912917465509327 9.538841975173842 0.10811463082175572 -1.3890163713975174 -1.8078084529410414
Ni 5.376234221193398 5.123893596040611 10.405333879600617 -0.1358614619177209 0.6833596252811069 0.2678616411078225
Ni 1.275017978014156 8.339449010631725 11.564263454462203 1.1681498680923108 0.410862285173486 -0.26609735011854824
Ni 5.717018194533417 7.8760512407667855 6.687591889884611 0.5111947009466616 -0.46246201162764866 -1.4153434393278206
Ni 0.4584576993338335 2.627312308717977 3.1099515277774765 -0.7118975848197998 0.8725483378670585 0.29815797809851874
P 1.5010729276701695 6.653074623118897 2.049276636364599 0.09034702242568957 2.4898979532604733 1.2549397692943614
P 1.6358021239730502 3.7357458643054655 12.656032988958318 0.7813790766503897 -0.016929428765486972 -0.14946619718534906
P 1.3732800999278096 1.1496240552163197 1.021863770758091 2.10953743622027 -1.1474604580637593 1.9744303359700708
P 7.5899585809294265 3.1971452138540735 8.423556663564572 -0.8410695505324871 0.8055464179252126 -0.38468254145432457
P 3.8421717014954426 4.3919486455255825 2.4259112213115896 -0.9812962313974392 -1.9637003511470763 0.9324504135393297
P 4.226191752323964 1.7353659772519492 5.100683725798289 0.47231396472106396 0.3039722707874507 -1.0565084550642192
P 7.649680156350641 8.294176653364731 2.704466856544179 -0.21780920453612165 0.21097392678184312 0.6887620272436009
P 8.695044827291998 7.916581576631813 12.84568409117713 0.7263852369130136 0.633377122715393 -0.253102480520777
Ni 2.252804194936926 2.9864135019832325 1.412608193896222 0.5115929648263448 1.9251379174928456 0.48286422943308455
Ni 7.943890041058422 2.302521035008113 11.674929216670408 1.1701432443732558 0.5108571151015847 -0.3407076785352713
Ni 5.051945043867272 3.6342573082222396 8.648440054991866 0.17103723848790542 0.06699292108078139 -0.04960532173195328
Ni 1.903428794586288 0.7502723983295636 7.671200565242499 0.2841788902106074 -1.392324352724828 -0.3111052822878061
Ni 2.2488618085164687 7.470599112817619 4.2092878407381376 1.3031325269495042 -1.518860937697197 -0.6671017686613478
Ni 5.255005838764347 8.82171258721154 2.3205118922839203 2.5227929042162813 -1.082681256804845 1.1262375441292412
Ni 5.321059407469361 8.776319354889202 13.367413373326826 -0.6911714080160418 -0.07993971104943652 -0.5925521182792312
Ni 5.636459619187098 1.2644739539556697 6.61187296579265 0.021899628286568735 -0.552464763340042 2.0131742895074876
Ni 8.855827247062145 6.103613813848888 0.8976070032886082 2.5269254383274156 2.779504442244555 1.028947514726815
Ni 4.518569915039222 5.936927112529238 5.276671297722618 2.2091681979407305 1.893611307639474 1.5885380904783608
Ni 3.3926838610762666 7.907897168809392 7.110073453515538 0.1801242883908382 3.4313968501553163 -2.978507312707451
Ni 8.321671079414948 7.62403604845531 6.164542280207309 -0.31778012320482046 0.07549195969072806 -0.9871627174805451
Ni 7.88021678113557 2.140241624167935 5.886149361395376 -0.705637719953017 0.12967255949818957 -0.11334862552718541
Ni 3.118241696957852 8.332066334174549 1.8789776305063923 -1.4656794685782113 -3.5098314374141357 0.40244320787185534
Ni 0.5528025396462172 0.9261437442391376 12.732282833485673 -0.5028933801698178 -1.5959660075113158 0.8697532916204247
Ni 7.820755551987404 4.383041083754833 10.299159090602506 0.44843355855904066 0.5129854742984973 -0.19436665724246527
Ni 3.0283571461876697 9.40175478548363 13.419698343420018 -0.7736781084617063 0.2724428327206017 -1.8292442542173144
Ni 9.388737471831178 7.4512312097190065 3.6918310268907994 -1.469064068779728 -0.6614301721978674 -0.10996248266377191
Ni 8.784910781899821 4.783109622700592 12.634626946464977 0.4364856421685451 -0.6365115545793167 -1.5516666713733083
Ni 8.646759891722581 0.8081027440387006 1.5649442367221624 0.7790702260115551 -2.187185780132369 0.7430866088280943
Ni 6.297292844835018 0.37499068419430975 4.595611026275025 -0.26747134764793934 -0.6061136590137497 -0.3020603984767185
Ni 9.297653468588734 6.598197347992631 10.902254951353093 0.45642763250811075 -1.7396431088187136 -0.7481591382549955
Ni 7.069991285163402 5.6354089360137225 6.071391313518479 -0.6761124568003904 0.5458739974964018 0.9417608923069781
Ni 4.29024623357521 6.331584168228049 2.964665290102457 0.4932340027031828 1.6022767802206923 -0.9441124232582901
P 6.431863973757833 3.9514241553642386 11.98639076120016 1.2756849722615127 -0.03200149260726102 -0.13814588707652337
P 0.32660904858061685 1.1860818315243664 10.743033679413122 0.9151785138327594 1.9666972289918707 -1.646714955929409
P 7.638624737827238 7.170484946560333 9.625501951390689 -0.756196406737175 0.35255120813741864 -0.821610927587243
P 4.515817683009846 9.564564186951086 10.91685758784679 -1.6265503080560761 -0.4005277360166973 0.3190790445219021
P 8.782995377176674 4.3379825823549885 1.8149082723252585 -0.36136726376715184 -1.7961562134140936 1.6571474641166428
P 4.54066215592367 6.459944178922408 8.000652967048058 0.8407491910785906 -1.4393459728900049 1.2170185687685555
P 1.212869603404877 5.070978216043393 9.111352465019191 -1.413154659206618 0.559950787304442 0.9348019444906418
P 4.983994666601471 6.542966745781513 0.6690025197729502 -0.4089079896605925 0.8721647292753947 -0.10150946680041226
Ni 7.167583945232073 7.687969654651211 0.7811755009404852 -0.8233533641996466 1.3518222788457237 -0.41308988895242404
Ni 7.459934213703789 0.6226580937458661 13.257577929768024 -0.3857827164970388 -0.7957476866672359 -0.26429217858900933
Ni 4.315220879625557 7.348691970462404 10.528125269476082 0.7246001199881327 -0.0778720298871304 -0.5401031564508957
Ni 1.3391747381583847 7.881472022094914 0.3422651576720448 -0.9307830531392358 0.7334197751622918 -0.5128006119812007
Ni 9.079269435906488 6.405810750290567 7.974973526444243 -1.6397930319985952 -1.2733259851110328 2.0996703136182036
Ni 2.71778263860252 0.16427198963712106 5.096070017916613 0.9142279769940319 0.9723135682828546 1.2254715846319153
Ni 7.440222281601505 2.6428401042891165 1.8510796677329513 -1.7946472329687349 1.0429410007924298 -0.013493406500744503
Ni 3.6624490903609788 2.5685763299018762 13.242376496846314 0.09552728107504839 0.4992318721578305 -0.4888947518978806
Ni 1.226110071005657 3.531997011401047 10.522477614967153 -1.723832109928386 -1.6448028265083612 1.7350202653347215
Ni 3.7131980174431822 1.051594385332174 1.7797708235448177 0.1868137845958718 3.354803172759977 0.7083116672407543
Ni 9.366050153751189 2.812678855128897 0.31856992759210956 -0.6784336487343993 0.8569790226738919 0.04757826399959548
Ni 0.9828350750036852 5.983770845515705 5.809437402233357 0.12106013523883023 0.24799626964246319 -0.13744011925875038
Ni 6.48158081382902 9.023341477606845 10.515714190716587 1.2842750279233688 -1.0788950502895356 1.0035221326751749
Ni 4.931609277231532 -0.13704906755737128 8.63193224166432 -2.1370394982952807 0.816584163796613 0.5140648234056051
Ni 2.742710794246966 8.821768375698621 9.534215249978512 -0.8478917156606429 0.009657834804738207 0.3136676436983437
Ni 0.8672301720724929 1.4842434007337848 5.282536527331166 -1.4653871341487732 0.5318668845840324 -0.09485056672299792
Ni 5.713317558223649 2.4746657099806137 3.485305766945937 -1.135367274344651 0.3311238915015781 0.3270198966355336
Ni 2.147800964167538 6.624780562087175 8.179770273097683 0.8056860288268705 -2.009149998839443 3.6459461529932438
Ni 2.404269937364388 3.4394718055756526 8.607627057458956 0.35834544622169257 -1.2805464141188723 0.0826347413830964
Ni 6.744632828501539 7.2692863571824455 4.34906217588946 -0.8692560402690319 0.16359620882882792 0.34816439192363263
Ni 9.486367324224572 2.2132222633522907 8.034851309629287 -0.33098942280624283 -0.6652474890614285 0.27869755538106195
Ni 2.6476937026652445 1.4009976799263528 11.356512707417775 -1.5382326573555896 -1.157893223361309 -0.12940130811467393
Ni 3.085503153121935 4.888540565204274 7.015901557513109 0.8527246182729121 0.8709609387752807 -0.4156409375090519
Ni 1.4517373089273755 0.30411606039729744 3.163678630261737 -0.8116941826941635 -0.052013674063129775 -1.1414103952149375
P 3.8407212008313123 1.9093981627040555 8.38033546300596 0.4870438147320709 -2.0970267053477687 -0.5751190104044482
P 5.409326092114168 1.7891460787989377 0.6461961862538538 1.5513910491144183 -0.4779451948649123 0.6009413707841909
P 1.006312729984001 7.937576643936983 7.250419620659452 0.1719839186718909 2.633127682617807 -1.6939183530880892
P 4.351548482797079 8.107136452341354 4.7045073636346135 1.7166253077673015 -0.29023486659670017 -0.2843691518445425
P 6.249909823140091 4.200966058081748 4.802299932448661 -0.5883285671161868 -0.0866016964506444 -1.2511790167003483
P 8.181632678758103 1.0872153343339914 3.705576380299671 0.3674605211490833 1.4760890939473095 0.2999407810305544
P 0.970050213380741 3.872632215442181 5.158071482843242 2.5064417165517674 -1.3826310366964638 0.17621929690947716
P 8.840094893705038 0.2810707661918668 6.562773518311837 -0.24193797926352528 1.8120636286729694 1.3009607161091659
