# total energy = -340861.8954234248 ev
CRYSTAL
PRIMVEC
9.39874923375289 0.00000000000000 0.00000000000000
0.00000000000000 9.39874923375289 0.00000000000000
0.00000000000000 0.00000000000000 13.75601954373149
PRIMCOORD
 96 1
Ni 1.739050565688717 3.856269204452347 8.09959957847885 -0.14710643870392084 -0.20008813310727475 0.6152891548654308
Ni 7.1981448648299855 8.232270442528726 10.231961481964081 0.5716439073716543 1.3303684798473216 -0.3553783931735686
Ni 6.618843558734813 4.497856021539355 8.860238472015437 2.584428417639891 -1.3879565626744355 1.496914772443409
Ni 2.7326581355580033 6.525955720326438 5.0262292651838925 0.8339097995592542 0.8337377927577642 0.6558717042734834
Ni 4.366329925142836 1.2736902962246006 10.922692478902318 1.4350540303828703 -1.535180243682511 2.1176716352916305
Ni 6.0314029358267645 8.025544953730568 3.755269305603796 1.2369261063257602 -0.8682301701076789 1.7855213594080668
Ni 1.354152988181911 3.381331609546752 5.776152644750088 -1.5264760310402938 0.21333497081485195 -0.09363289226581294
Ni 4.8864755037319565 3.5698141261349896 3.530812136552552 0.22296400926418375 -0.5222242192879457 -0.3823700912710641
Ni 3.036153146186844 4.760372485627618 13.08193292536845 0.6184261578325155 0.3905413142279468 -0.16156812265520562
Ni 8.788281648090058 2.6695173383883724 8.088277845184635 1.7032761401539052 -0.28879684859859295 -0.12945890082548672
Ni 1.2080776280136463 7.254339986335973 3.2499417950137284 1.4146037329483185 -0.6292394463979356 1.6410091637938833
Ni 8.335619088803996 2.2805125074783024 11.711448670565233 1.66398017076776 -0.8478451786934237 -1.6112882396906831
Ni 0.9035139796000203 1.1534426988759467 12.191671182149673 0.6401519795453813 0.12257888587620179 0.03244449368195058
Ni 1.6819813605065201 4.353453638729857 1.4755397139343993 1.4083911763797035 -0.46281913785675133 -0.04808734242553009
Ni 2.824925656518746 8.934234824518638 4.3331598594430645 0.5534890908394983 0.04977964252628846 1.005039854871282
Ni 7.360028921163674 0.31863075635107535 8.368873743246626 0.03560977878380964 -1.3395671156274545 -1.1666259752486166
Ni 2.6972812435445337 2.6990764046429856 11.61329941235103 -0.45629084981993034 -0.5617413035459616 0.2849034270814577
Ni 3.672608246207073 4.395315667695848 6.277875735019441 -0.3393462794113704 0.3177865509627237 -0.795915579703668
Ni 7.863369536171477 7.533304261535706 7.0500703907054865 -1.246281322288415 -0.2279609482581429 -0.3054748234749062
Ni 9.23616964277919 7.1122684933297 13.857125782051387 -0.7444721763217114 -0.5468206776803873 -2.619887015557817
Ni 3.218131728324146 7.032990043772416 8.555927649955468 0.22430458245247822 -0.9270456975839905 1.7455687302745293
Ni 6.768067499887274 1.8255002608906024 6.701396532515661 -0.1567874134371106 0.8030424205564364 -0.7347544348133153
Ni 3.683181839064446 1.2678724704657436 13.524505927381277 -0.3563302155638767 -0.23325047879185637 0.21718468357824533
Ni 2.359997729518131 8.540032485297344 7.14585304386948 0.9345780014052937 0.7753418693173744 -0.9250849743131938
P 8.382753816074866 3.2863008563192833 6.054079298037418 -0.055247864729711306 -1.1640435592334213 0.14948882289316834
P 3.9047761491073736 4.625133883294511 1.395576095559957 0.4678243043808265 0.4393681059226626 1.0428003614495072
P 7.804232606163837 5.5997747772649715 12.986342946563193 -0.6587395127395816 -3.172995583129445 4.124354660647819
P 2.1835644094126963 1.355102261851773 7.547363850473791 -1.1838947896313932 0.37628711830177775 -0.5584901435985157
P 7.879901936025805 0.06881482206562763 5.983125320652379 0.6299868660869216 0.5642203612140735 -0.3310837822922621
P 7.716269712339697 6.478501435582546 9.0087208518555 0.13194155803802438 -0.7120065995938383 -0.8105616117516169
P 7.809636886957605 6.918541474684206 4.787163620240901 -0.0663617152546857 3.5718672715999578 0.10069391287765239
P 1.3824244257952258 8.667799082011241 9.375236355664127 -0.3499507944000941 -1.0141670139835308 0.49768201117220734
Ni 3.0230794860405275 2.2157175304483183 4.647292374423883 0.17350883995684957 -0.8938802665756154 -0.10424614900528496
Ni 8.341013970848559 9.686632894750918 13.319238184585055 -0.31988971334865557 -0.7177697273298606 -0.23469389610660224
Ni 4.9388641318092885 8.126092772742284 10.605024154469993 -0.5452080817776288 0.026074585599864773 -0.07839422093918756
Ni 8.666953194582652 3.3459547175332824 -0.07840436588107484 0.07330832177584794 0.7313209836517341 0.8112496389575771
Ni 6.984257529136433 5.286796428686717 3.8394285256240437 1.5403988117689729 -0.655410962586981 -1.562541152193967
Ni 0.14608381904255072 8.20970404568379 11.615129348821545 -0.77337368984741 1.297373770088856 0.022689214067399634
Ni 6.309963064810617 7.797681677966869 13.64462288211596 0.6902216425082629 0.7711915945944267 -2.136728137702449
Ni 5.235780017993542 8.794879570033059 7.619954150095692 0.12934757205860303 -0.6235192560847068 0.7652297205840369
Ni 0.8388806610563887 0.7234696600494275 5.652403073447071 0.29989527250459963 1.5292731341694565 -0.5639041155252353
Ni 1.7662411471432784 8.736428748717499 13.535125574109763 0.44612830746463167 -0.11438786542497718 -0.6109776719742703
Ni 6.4078510377968785 1.867813429818509 12.885675763436554 0.05220290725580042 -0.7361739408686612 1.0540389104778038
Ni 5.38178958691736 5.878156330013899 12.17688319014808 0.9437023323040652 -0.7418275396100127 0.19184311948966315
Ni 4.755898681005299 3.334713813482244 10.083850352717675 0.2472871593905806 1.4067209877661322 -0.5177109047986246
Ni 5.037090459766986 5.778398005935533 4.423041977855183 -2.9496754760774233 1.7239082145819602 1.3955965957181966
Ni 6.212930378002152 4.096585822914731 0.1436580018723391 -0.40423038167926506 0.7480699209752988 0.209014231952311
Ni 0.7786713337642821 4.576344976163289 11.99351547287805 -0.9098388467874008 0.5328816990017919 0.22925035649352773
Ni 8.930813679807452 4.661281472742918 9.946825988035323 -0.15714582521779388 -1.63556022486417 -1.2642129670661713
Ni 0.9216864611908928 6.540796345323588 10.261522427968533 1.1487910039497249 0.15241113874628592 0.22960182629567555
Ni 9.127839659424447 5.590131660579047 1.7404115045738262 -1.2267743626037388 -0.2000624220756619 0.8886714686811663
Ni 4.013435088684346 7.640553388731696 12.819564961517651 -1.0619393962718033 0.23537241023086558 0.4931689537932022
Ni 2.618115578977728 4.64051963574564 10.508828896215832 0.1110405462192991 1.3938281909638641 -1.4405392218671578
Ni 4.76721477504999 0.614313526639428 5.452184338724609 1.0895191056622848 -0.24905762102744203 -2.40409381301046
Ni 4.1012945962672145 2.024471781593354 6.905494131035667 -0.22297043702208696 1.2296326579881405 1.7284382412418295
Ni 0.2883724231554949 8.398769284722833 1.7726698916005612 -0.6677149767653145 2.3355440889655195 -0.34127614944423157
P 1.5238380063570398 3.076755742759158 13.43899798684989 -0.9722593180061514 -1.2277704079684209 0.909765056126672
P 0.7650168309170001 5.2085800377897735 3.6136508323092786 -0.3115066314912829 -1.0055985555882294 0.420409819652605
P 4.592642407287453 1.014952129317371 3.085021002811402 -1.3108656339277036 -0.8929703531668363 2.8056165659505745
P 0.7776543891001328 2.5905490475549047 10.204159981811094 -0.5072485718147199 0.7761432821727472 0.023228631510637414
P 4.965086642095575 3.842067694401244 7.83482365508133 -0.08946976202705881 -0.07418686772605933 -0.4366303952765254
P 1.4722388732130574 6.757841660750542 12.484537147300822 1.8033046515334168 -0.8425019121036394 -0.0912412521051848
P 6.977659607193432 3.452545932284813 2.8904152011150948 1.1055136813183284 -2.5278104120355307 -1.5609815210163311
P 3.6401355676984277 8.72513145217122 0.935953762486442 0.5260700753965972 -0.6541547215823768 0.2023530178820515
Ni 7.086769686732318 2.3209177303172788 9.443506990150697 -0.17563977025692334 0.5996429636877415 1.7044004835663358
Ni 5.538504331187445 2.0427147538032755 1.6253285199141738 -0.7052885641437143 2.8142940391199147 -1.7008523612037614
Ni 6.399307574768121 4.506230307082394 6.111029139104692 -0.6013609748201126 -0.6754426844268754 0.6152382470228372
Ni 2.384218306223421 6.744551829372475 1.0448457910437374 0.18860944304371388 -0.3027857066785173 -0.36610092179739534
Ni 8.922448793013618 0.5713640623902375 9.982990495232302 1.5574141153800467 0.6558596200886253 0.689668083997638
Ni 0.11654167053650967 -0.2353531390064022 7.686698427711116 0.4610173087613222 0.6171130954480468 0.3902476942469279
Ni 2.8509131980748683 2.1014851325918587 2.231157795644845 0.00079472798715347 0.20595256230785175 -0.021759760274594784
Ni 0.6975949034837838 7.832137492558096 5.685376705288425 -0.9818544178937542 -1.872297890873679 -0.7477922418338799
Ni 2.6487367038926815 8.965495064379637 11.08504083344681 -1.0192428858445415 -0.5654861153003744 1.465259607431973
Ni 6.756976975823539 1.05234975241025 3.7385423516408913 -1.1730701882120635 1.8187911772047904 0.9570458434905066
Ni 3.5642500666047097 0.1879261106352092 9.098781546502543 -1.6239036144618484 0.18368115250416106 -2.0554090298069827
Ni 3.999863294830082 7.568831533536481 2.863218980411009 -0.9241925444059115 -0.1430906326763084 -1.0208446831140225
Ni 7.684379756281858 1.5075499739820815 1.5129420364018815 1.7797482043697155 0.11847771922363465 -0.07240560745592045
Ni -0.05239614707669816 3.0129382356466556 2.317559557225777 -0.7359667099538615 0.337373986176348 0.8241306086853032
Ni 8.618624826162549 5.337700054389415 5.772396904567148 2.096011633819694 0.19932914345406316 0.46542366535913393
Ni 8.481064732775422 9.02320338450788 3.757346429178444 1.0663292978093828 -0.8910710792615943 0.7825923802322006
Ni 5.4895274490720904 6.288421131629195 1.3358583228513532 -0.4671501611319374 -0.8730553594104641 0.9455769236189585
Ni 5.509396404894747 6.135644463276657 8.064906915407617 -1.3743420572147944 2.538774110135886 -1.000551222972309
Ni 5.957857723285478 9.205247757889627 1.7565745335843372 -0.630467919488398 -1.1785247835687318 -0.8640719249649312
Ni 7.80264421754793 6.337548393731854 11.228172505363583 0.3636570882425931 0.49686285770502175 -2.2298406386884175
Ni 0.40982024077782586 6.404975020539673 7.960209548621207 -0.42990053275185963 0.21505863837417805 -0.004766311040391791
Ni 6.9231938555414505 3.8613727252715067 11.295851958525057 -1.534996409806479 1.7306000247798388 0.5266174632596349
Ni 2.7567377310251953 4.519200580987438 3.901289213151742 -0.02907377743750477 -0.17515743130386607 -0.733180405457976
Ni 0.9304874499479101 1.1128682985512524 1.0160893779713642 -0.15916799785414523 1.673143582434583 0.3427031116987453
P 4.770175381050055 3.047967373939483 12.388162372936815 -0.6409297382516704 1.2405673026227733 -0.27814245420854034
P 6.419204726838395 9.328127005016116 11.964916958792347 0.3354649420790932 -0.6623004906179626 0.26895873082674326
P 5.514659704450417 1.0088147460854913 9.140269505250116 -0.4553755370945125 0.10532061301638636 -0.32949895430364545
P 4.814546876054197 7.962310169068872 5.814394275521715 -0.9104008899384579 -2.62820761960837 -2.259791162303921
P 2.164682322256729 5.83604053481933 7.0312381169203135 0.8040770324685378 -0.4843233304771143 -0.500432577334151
P 7.639237563842779 7.637207434014163 1.5526423530503664 -0.532750058519934 0.1951457015003349 1.2125201666775698
P 4.252012938543517 6.047531189465212 10.395616262648284 -0.22841500507642598 -0.18385418774691561 -0.9223794024565728
P 1.3007398964410635 0.6603843155001153 3.4784846003450616 -1.2939678297311006 0.646229553198029 -1.5973325488415393
