# total energy = -381168.224862197 ev
CRYSTAL
PRIMVEC
9.24559344462018 0.00000000000000 0.00000000000000

0.00000000000000 9.24559344462018 0.00000000000000

0.00000000000000 0.00000000000000 13.53186056510711

PRIMCOORD
 96 1
Ni 3.081944512267598 4.023007211180898 10.190045284743455 0.40658139840994495 0.5263850355338547 -0.20383474463390056
Ni 5.858377644440966 3.5168017405496452 2.091024027726161 -0.6234706622349586 -1.3019721880928157 -2.7262859492400464
Ni 6.309756747684531 7.011894828379847 5.045259161793735 0.3997116678733052 -1.7568211632598971 -0.4615356431586374
Ni 1.0180415074916975 8.41876900144602 1.9747717885593281 -0.5076216388834226 -0.4717316098550327 -1.1277845769013868
Ni 4.317849176778434 1.8710214404517926 2.67982223109733 -0.06257705140127287 -0.36624721756727247 0.4715038101149428
Ni 7.4686918492101215 5.939350549260761 6.991478709582968 0.8317737270528578 -0.7902447545711357 -0.19026291948673685
Ni 2.098324348078491 0.68368202764653 12.99268320158578 1.0881703049438745 -1.8989759143854974 -1.7979837535411356
Ni 5.41261061624029 7.813663420874444 3.0634773645070297 2.148640572869319 1.542416099309318 -1.0073859865059553
Ni 5.50146076642506 4.410684177611449 8.191904334934696 -0.26490435825171155 -0.5662006248688959 1.2053213349362855
Ni 8.772255764402763 5.142833453676149 11.755654272947737 0.2923321154453611 1.9420051255618296 0.39603396191140183
Ni 1.1206675914720252 6.325169151467883 0.1130689814448122 -0.027334683259210985 0.30502565175262947 0.8006240409229308
Ni 2.997754141031124 4.7291671248970655 6.698704058614082 1.073595749563809 0.14546170401164626 -0.0749653977632967
Ni 0.907822942415456 3.894040432312287 5.2705511529100075 0.12773163372173488 0.4556167065710412 0.16910119780745714
Ni 5.019034961379159 1.4421368653455375 8.651391823372022 0.1780272966524934 2.7567452941711683 1.845967737619582
Ni 3.2877514158173353 1.0183281208793904 4.712686855104729 0.7260065134173561 -0.3586496077256726 -1.3929355039462654
Ni 5.6360118835571065 7.3378019869660225 13.455770923996255 0.3916273482032739 -0.7932395755334015 0.2717558339559062
Ni 6.5032392755634785 6.478803172864379 9.148105768074068 0.46873447489992176 -0.17123624187258896 1.44295914416256
Ni 1.7465572654479036 5.808044635324849 9.27882366228555 0.03146233227433936 -0.4868617806282518 -0.24543982176919663
Ni 4.216739370074933 5.449657707997873 11.650255435581311 0.8082856712332468 0.08054032074791291 -0.785244473143067
Ni 6.1651834075763885 0.6122182153829318 10.593903888307551 -0.1196398578525359 0.47889830280680107 0.057077975959914595
Ni 8.007155194346543 3.6765655902055063 2.870905527553494 1.5415987456143452 0.259386770867592 1.0077071172907999
Ni 4.321417975734867 3.0048362653850815 12.397402912856181 -2.0924987355704285 -1.5898928047340426 -0.9938110760349981
Ni 3.692051958734069 7.310610697507812 4.552984026363667 0.510055959356528 -0.9606644140797003 0.6534422688963843
Ni 0.2994296289192507 3.5888064200125993 10.144172349763565 1.6931501074634971 -1.1457360191734849 1.3704321806374269
P 6.417051856206306 5.682017955078377 11.789768662557703 0.9221091795143217 1.1199116019112132 -1.1109703335575252
Ni 5.053382339936538 7.755185044191961 11.061862189190173 0.33557395685313174 -1.4137843223708169 1.1091065408759093
P 3.7051437186364247 0.17314869486111528 10.556758793262564 0.8480053584203718 1.8411916563871775 -0.8244795073842899
Ni 8.090300813556912 7.145715543652934 0.41469074050025534 0.05905026919493702 0.8392026725270773 0.18640909295828542
P 3.1010366621251992 7.285703069557992 7.367853862945271 -0.7317200188623656 -0.4713279466587108 1.2982029508583706
P 0.2961955204348977 2.1723723036279003 11.998415812323545 0.6530504327746044 -0.34709481300853773 0.5223185787739649
P 5.014911426833642 -0.25189710996868664 4.874351598712514 1.444514918685454 0.1575057796603739 -0.3308104740262174
Ni 8.656121868828269 5.781519028573538 4.685013870243331 -0.059649079121200495 -0.16591380121841104 -0.4310017362358383
Ni 2.319950461510242 2.011563701945933 10.74115752587028 -0.47032650197739 -1.4776767501494035 0.40519017448937317
Ni 5.846913108933254 4.6428225304563195 3.9000713327249326 -0.13560229471906324 1.7299096835810335 1.739040185127392
Ni 0.7541695052733425 8.542253143575863 7.887883344456469 -0.46192490817725607 -0.9193704404269198 0.7667327874921247
Ni 6.457695483699776 8.646922503642644 6.566051061756015 0.7532638064714123 0.5168447001435873 1.1137684651279527
Ni 0.6332658081920501 7.9399119953565505 12.081380217908148 1.0991589427448942 0.10623952528622993 -0.044067422632859586
Ni 8.472236266640454 0.59051326090075 6.698947217713964 -0.16169693492358606 1.9904501084370945 0.6770876762294661
Ni 1.3960475834859039 7.214336336022483 4.025660696415345 -1.792575695151687 3.7515845543603645 1.7037566793347496
Ni 0.5452200246114502 0.42850827946499404 4.599803710082259 0.10430168483356875 -1.1803515523648251 -1.3776634082785435
Ni 2.2671488790227055 8.629078508860479 5.965953818994544 -0.7837372924699213 -0.7839298680967015 0.486518024135588
Ni 4.413060295051354 3.077525118741238 5.119602976323988 -0.4086025426050318 -0.4496111238069096 0.5647500084652983
Ni 8.959691674360707 6.699060938509725 9.73534793811786 -0.7155385240064968 0.6273417151545906 -0.4595772338806859
Ni 6.4243743659821995 2.270551257302414 6.770409180858931 -0.5787733193275839 -0.5249840414212701 0.37545305243625665
Ni 7.645939115515245 9.024873106077942 4.305756865495743 -2.0696927934195064 0.5984967658984403 -0.59360549924441
Ni 8.920314693128976 1.0123554677035984 2.532068406945112 0.9307411441577068 1.3082215114366373 0.6618729161622408
Ni 6.596065030803342 2.0050455587742095 4.072047686374453 -0.8730196210765223 -0.8463544530805102 -0.513045123891839
Ni 3.3292363922875814 7.604814717177902 12.898135916901131 -1.6691740562638737 0.05833190297167373 -0.19510404962912206
Ni 7.001225413883154 0.4397934504655695 1.7953120518130803 -2.4851064454091008 -0.6966108338640583 -0.5721447582674727
Ni 3.2363551634888093 5.402754813940918 0.10010758440589138 0.4101161510360808 -0.04888027064047065 1.6169150989591574
Ni 1.5018633971034578 5.778246088597949 2.4794156785073134 0.4544841356284947 -1.008149347034541 -1.882821930333454
Ni 6.982234965550218 5.805677763478096 2.1197796715455857 0.8464534405522197 0.08461269104507363 -0.29605532993321915
Ni 6.87926679462329 0.17298504786233584 12.793818813933417 -2.4092550454964248 0.7164720915643596 0.4101179508082937
Ni 7.500607636768688 2.255601133176631 9.306509590977361 -0.8132054771323672 -0.46240081937241007 -0.5508182288755545
Ni 4.427649841044233 0.449197143259839 6.847797569213935 -0.16772000118921437 -0.19637905968680372 -2.597253080208385
Ni 1.5780008567050792 1.6428124646962592 6.036887858770568 -0.28264959805027445 2.058052123856785 2.977562946516311
P 2.297483670152386 5.605002164127374 4.778208524649935 0.644170099565839 -2.5570991336973186 0.5261520935874422
Ni 8.664489130630267 7.774748719300283 5.8835580173887525 0.6554055632703422 -0.8553090911706367 0.03482456387835293
P 5.939258093329246 2.011286334151392 0.07269440071204714 -0.4547631003214942 -1.2005146575762615 0.6791196190578304
Ni 5.630436790886823 3.4479220715718575 10.415499998299191 -1.4185645173682797 -0.08175105322656243 -0.0002470830137995745
P 9.116931477086242 4.813486934437659 8.330970999761876 -0.007179034246942475 1.6776931494784784 -0.47415770279802216
P 0.8400629147683009 3.8382802600163086 2.1280877615514164 -0.6047399185946747 -0.49575856889724945 -1.7516673869730992
P 7.49894343000144 9.273884666424083 8.780350281206797 0.3050318224002166 0.17569967696058128 -0.06283004795234341
Ni 1.8076798817716826 2.4204223222862975 3.3790951024750333 0.19641711201359077 -0.7385385844460959 -0.10465264041508429
Ni 7.454934406600867 3.090690843388804 11.845073027111319 1.7308396515944708 -1.8725249192828204 -0.5726175841388332
Ni 0.45404183407116255 1.3857849750878712 9.147537164095256 0.5672118397422296 -0.45045830229855327 -0.9757210513025067
Ni 8.766597461394118 2.9946846041048656 7.239978064068523 -0.24270211112305942 -0.46012359330245917 -0.2662901828556446
Ni 5.316613622549502 8.365070596422798 8.90614304794654 -0.20618936090900622 1.1135445220426048 -1.7750705963883882
Ni 7.436683605720042 3.8026384984177355 5.320524508452537 0.22751203364618236 3.2012484073275513 1.0663922898368345
Ni 8.592558415912524 0.41111269595067096 10.969616132640901 0.4846038378320106 1.1205464072817346 -0.28276941145759044
Ni 8.413554486908641 7.3437006753966045 2.9049792365535927 0.017027130685615836 0.45220048180064054 -0.07398992122390484
Ni 3.5321309339946345 4.248886297462285 3.181786748150045 -1.002208556070074 0.44263392115812805 1.0436549961403185
Ni 1.648415294145996 3.416773668244856 8.260970764894141 0.8446068742617842 -0.49656306707641573 -0.38141235534348505
Ni 8.498419786445165 4.869274843513091 0.49870359634822287 -0.035448056394964754 -0.7492472291128516 1.292793349807025
Ni 4.501318727274436 0.2726053895091495 12.572924951479255 0.5641103179987704 1.8562030421943452 -0.6335409019867669
Ni 6.0183171603667045 4.116101088622152 13.17893567562035 -0.049392948610831065 2.8889707019981987 2.3375132968767485
Ni 2.172289093289538 8.069664649643029 10.244037699628889 -0.6778446090001488 -0.6416951556627851 -0.4107429859868023
Ni 7.570596776924642 4.53261506009186 9.865443603910254 -1.4287908230819781 1.2652316381386726 -0.8270560098622143
Ni 1.1057267129393937 2.0056742591085035 0.7439799370612057 -0.5015656624973297 1.856428785051906 2.5460441614347378
Ni 3.276610476069922 7.604222999216214 2.2367623125713774 -1.8756364683286086 -0.995460438712963 -0.19889102747538004
Ni 3.5489764047164503 3.4082030033935258 1.0476486704403645 -0.5351195871933752 -0.8933506193243906 -0.3901430503482636
Ni 7.742398388863601 7.682792049816649 11.575545495562263 -2.5221419008958437 -2.3690211376770427 -0.3240939812379902
Ni 8.791098283245278 0.20949774433576915 0.11129567667837735 2.566855184642818 0.2793670706442608 0.5147739336574877
Ni 5.143138558250143 6.648385842447007 7.20112808164642 -0.5715647173942866 -0.5770113423311547 -1.0122021769476761
Ni 2.7548446721648943 0.47370443702620424 8.291741948020567 -1.0924496490455184 0.19250903520843618 1.8795761697026467
Ni 1.3488395848549533 3.959563950976123 12.941722416694686 0.4146942573250665 -0.1968176898861191 -0.8237559989547039
Ni 4.82079095302725 5.85719420851759 2.1291029276794378 -1.6108115571645807 -0.986872697043952 -1.3402811109753432
Ni 1.09619450640032 6.337909578830486 6.698582016784484 0.010319636758453194 -0.6037346172586118 0.23176412405431698
P 5.61943453503668 4.56348609562432 6.1458730617204145 -0.4146037544937892 0.988864016442368 -0.42573406007899584
Ni 4.454730183384627 -0.11955661415913615 1.257503294671777 1.3411609424771354 1.1427386271080577 -0.5921325142433093
P 8.629642490042713 2.331100646850807 4.857558827871661 2.3502235453545652 -3.37037274506346 -0.4309713972185351
Ni 7.976367369152444 2.606989146488012 0.7842010409476579 -0.4371029640375699 -0.8745579120979196 -0.6707452789512062
P 3.310551048528641 2.45974382995912 7.187663724340065 0.7981203006644707 -0.20235790297805795 -0.04106797368490346
P 2.5632389996956775 0.5750731203379439 2.105273335891069 0.2921729641596775 1.0435742635010543 0.05696587586208254
P 1.9286214857848956 6.105586314122588 11.606966643887231 0.2961144653059287 -0.29064829998503494 -0.34975153390509445
Ni 3.993772645636232 6.308989363452967 9.303762725252085 0.5719290427122409 -0.08322249556576636 -0.536880792858856
