# total energy = -340865.63459723385 ev
CRYSTAL
PRIMVEC
9.26476870931475 0.00000000000000 0.00000000000000

0.00000000000000 9.26476870931475 0.00000000000000

0.00000000000000 0.00000000000000 13.55992550325425

PRIMCOORD
 96 1
Ni 6.962862585425623 5.398478643960113 1.0291879172915257 -0.09201001195040928 0.6479737895826453 0.09284433492624657
Ni 4.5313241144619845 1.734234940848922 0.5150117997013561 -0.4478936268951706 1.1178644895741974 0.06838568766324997
Ni 4.701490115971564 6.1433289655893475 6.7868375443693205 -1.0214697182925312 0.7203894243408948 1.4525506445057372
Ni 3.864872263174888 8.67005366726619 7.190095854474724 0.04859693507209695 -1.0425815605704818 -0.4784005372347761
Ni 6.831747582792445 5.983011412906723 12.112931479166575 -1.6526925136690827 -0.10591350940537887 0.11334219776928223
Ni 4.431709324445596 7.621217029116521 4.718460392280438 0.243492982455471 0.1850993730079264 0.06610923292424743
Ni 4.971141200739698 3.4602612968806454 5.800705785340738 -2.220858746904782 -0.1726521483835091 0.5935473923129648
Ni 5.816208522332406 8.051361697167195 11.515345577997673 0.3138597051044917 0.3651334156778034 -1.1156978209401818
Ni 0.062333361907576136 1.0263695747391648 6.476057373168918 1.551206186797122 1.8140696033594046 -0.5449190897823003
Ni 6.22359891915166 6.313837763530344 3.1746229277326496 -1.5180142734261857 -0.6913151326827578 0.6936224406596958
Ni 3.4289278500953566 4.944597639225845 0.06613006400474093 -1.3772502320005247 -0.2930646227360114 0.1597488100582797
Ni 9.023995615089484 3.1856535610095755 8.060657039319674 1.1870022249121235 0.3485613702517352 -0.8165579385443678
Ni 5.507274819477452 3.954342131774987 12.90808578739114 -0.06788072300237342 0.5325302291996442 -0.36076331163456576
Ni 1.9931759533273474 4.393075240147946 1.9864339813505127 0.12391637374070273 0.6641051479268693 1.7246510062852558
Ni 1.3074348541966763 2.0405281847051153 3.867941680951342 -0.27981341415306005 0.1900934837884081 -0.3480132110577491
Ni 0.7603298966998617 9.591166208023195 12.333620115806118 0.29856601217021483 0.32762564854033255 -1.1760292708403874
Ni 7.95485986933882 1.0485772246340013 0.18252983496166936 1.4709741413182473 -0.5497373371065499 1.1615596164693027
Ni 8.4587798882917 8.764767394790141 8.352493538538443 -1.1051012763712582 1.7352377806621664 1.415736303890865
Ni 4.558905330038508 8.298258510703908 2.161112851555868 1.5945339030504797 -0.37129300752129607 -1.4825618461558467
Ni 5.395977156487603 2.192007148318205 9.857685801066483 0.408970981688044 -1.0907303523615666 0.3405634396479231
Ni 2.2310303528893574 6.805027990678674 6.38667088748457 0.4798215859520188 0.8374602359146739 -1.3425830196356425
Ni 3.8869409415434744 6.099617788199343 2.4613302602843876 0.47184550972507766 -0.916565366877957 0.741815969645787
Ni 8.828647973023307 6.91499152701652 9.763403811750749 0.48260223402094954 0.18750849667005126 1.5191298750878677
Ni 7.432993993962787 6.778540017775322 7.591604976303055 -1.1541494400481607 -2.091467723202753 0.460733201862
P 8.74429225658923 1.492090953509979 2.2532667235662855 0.7144625173334986 -1.0758022702968246 1.3255219503882978
P 1.3100011950481028 9.078268628474529 10.11554098268647 -0.42384661324829587 -0.16917833090229573 0.21978843974967952
P 1.3942827933348478 2.9810782096003625 6.088514889728767 -0.6789018466200695 0.12266296094957586 -0.07545956379089586
P 4.995433423528293 0.4630707285267955 3.7578753056840717 -0.46090546577380626 -1.2275174114173504 0.50941626889
P 3.7363513956983874 3.6318818670316477 11.700085986703566 0.03744708910286454 0.5832598943440277 -0.6813611067938394
P 2.7705548768676254 6.816164242315551 8.442964928604388 -0.05858541374337652 -0.017883050928007915 -0.7437856917776481
P 4.695041837153538 0.9030443893907509 11.531739585711028 1.0314530547574883 0.30223703326389884 -1.0913301907290947
P 4.802754034766125 4.388276090108094 3.9059772612092734 0.8687168799361102 1.1485549766795187 -0.04322872878164813
Ni 1.6381500275992977 0.5480314343384848 1.8945385963789214 -0.566914620216785 1.4506140896046564 -1.9025824007898329
Ni 6.084340185080201 2.3635443355534567 4.019812544268459 0.0023574444885830366 -3.2096561717752725 0.9231625604795005
Ni 4.681394833275736 6.970941463484988 9.383861455838419 -0.11573280948864584 -0.08842589414357675 0.19435045929254915
Ni 1.5195609918655024 7.023426376565608 12.574362343683614 2.778592729063563 2.1548924673163015 2.891560317102246
Ni 7.132139169167198 4.083928447619408 3.664786618540409 0.01607505118499167 2.3698264071871575 -1.0724791194608627
Ni 5.514316043474147 4.556440901639665 10.35147016337149 -0.23111106385135036 0.6536865236967065 1.1911838670936388
Ni 4.095157346940452 6.36403427881204 11.790476773284286 0.38172525859821355 -0.7523855176315172 -0.14654311000128312
Ni 6.755517068259815 3.2968307820100087 7.023444906102442 1.6488705688198313 -0.42297475216630376 0.8540124838464
Ni 7.378489361367325 7.606421193955046 1.829843645001928 0.5115988783636157 1.4364162008377197 -0.7635793294648076
Ni 3.173683480215196 4.6850451520319165 9.67362357340869 0.9889046398723164 -0.08373954441150094 -0.9605942229633974
Ni 8.580463356676674 3.0161268285207488 4.994581064833955 0.4545265588306559 -0.4625538000105066 0.9300724002254562
Ni 2.0691099952706433 2.2237853039874955 10.753427699991187 0.5095826192645353 0.23247323430619962 -0.2691027126037753
Ni 2.81187574400612 8.873072537581397 3.408083974111459 -0.08036060063693902 0.5543794638642517 3.4418846370605176
Ni 3.81659355495545 2.354529715884005 3.659213860337762 -0.8140451994248432 -0.14220977273325186 -1.2513515377224707
Ni 7.042094884925265 0.9930812618179518 6.409776293438985 -0.9338400947980047 0.7164162986257597 0.6452936716473209
Ni 0.8211660720312987 3.914448038972665 0.13166718283081288 0.8671690758330163 1.8774840630603085 0.09142662864311352
Ni 3.0369262336162466 1.5638280553605082 5.700565682955123 -1.0921822543167448 -0.9527603287412754 -0.10252479543880408
Ni 5.99698268367911 9.192114102778973 8.418151099353933 -0.6212759685764849 0.2800916075151112 0.49464373856651594
Ni 0.650452522708292 5.192356076225309 5.481138907773934 0.6369126466724773 0.054431796586319164 -1.0222621322868393
Ni 3.208667245756666 0.6293390419634681 9.25848597723939 1.8355195457030649 -0.47711858519855893 1.2016091761920207
Ni 2.2064601870482616 2.405736090923121 8.165217362716898 -0.5392230678387875 0.5704871680593917 -0.46480377238694787
Ni 8.799732630794779 3.640738985638015 2.0995512448574036 0.24357628619789667 -0.6496740601032037 0.4039845842170462
Ni 4.9508328283702845 4.0915440872579385 1.7778692206610671 0.5279783481629036 -1.4194597754890392 0.1730488696012955
Ni 3.1746099570568664 8.606617797917025 11.495575488673271 -0.742831812504811 0.23023740299714543 -1.0636892890833745
P 2.669485518209815 8.842730421016697 0.011078810072693155 -1.5152631930436096 -0.16150178819364447 1.5517970263035856
P 6.764318598255683 7.363508230837517 9.570079595106778 0.3416445885272439 0.47553709964405194 0.779624041632496
P 7.405542485144097 3.8805297217991157 11.181392368033412 -0.2864103506442874 0.575672311804757 -0.06281410711274342
P 8.162965097514798 4.7793882888192005 6.530812154511632 -0.8766487331886774 0.8223069252130032 0.7099381471005838
P 7.608079587501636 7.522565775015469 4.303038367720745 -0.057577798414468584 0.22938559651981139 0.03840482503044353
P 1.495203915697991 8.695411338422705 5.345227534531429 0.4389847544413149 0.6849825055965106 0.062036091296138324
P 7.67685196345882 8.23031069913581 12.920317134654871 -0.394758694743404 -0.2667712362571212 -0.6714515609896113
P 7.495188384344113 1.6829637124308892 8.543390385857238 -0.8198327526408977 -0.723035089493858 0.10860725418745812
Ni 8.0182494148459 0.49839451106915805 4.404670097821449 0.4716202810881491 -0.14746433626397182 -1.8446824431492552
Ni 0.3822736096415724 7.872468283809082 3.2994962558834944 -0.14521436388753056 0.67113685796267 1.6801030444715517
Ni 8.71369072650886 5.638352763036964 3.1822163319269787 0.8426438369981423 1.4835841167727741 -0.08684389436843754
Ni 7.602400284462198 0.29121946564221773 10.673003024796316 -1.2014723935038405 -1.7007808845358772 0.4328768417713642
Ni 1.9421085498144819 6.558826034773215 10.535533317506124 -0.04864964268690331 2.387284197652289 -3.468372398938401
Ni 1.753968897576499 4.6536653814045446 11.514885119007362 -0.6663584627374202 -1.9678411127883266 2.011431595784768
Ni 0.04682136014749072 8.541903390526357 0.8218359147878264 0.3223314900209287 -1.7073881054397497 0.11254567000991585
Ni 2.760817605261671 4.25796712232717 4.761513771112856 -0.027019723121953467 0.1257068899822222 -0.5413776522879451
Ni 9.002195615004984 5.996723270163442 12.115386642797 -1.201979415047246 -1.5120277168254477 -1.2724934619074084
Ni 6.29030525175192 5.540350042725081 5.436241840026592 1.4015705539134442 -0.14427359724081604 -0.10918858061222485
Ni 4.801920205608622 9.00892183687551 13.351915444870126 0.5176288866077796 -2.552761168443597 0.5550278960815279
Ni -0.11093355759107379 1.7126202361327545 10.019875763446121 1.236384117779361 0.5359935051578963 0.015534091079857117
Ni 6.759510183447414 1.9547734882401147 12.200637335860135 -2.690830436645914 -0.04039768709075623 -2.765010362393438
Ni 7.879018475079691 3.5435330354099697 13.469629886465384 -0.2325645084684253 1.0633308773026913 -0.6256298746698065
Ni 2.0347284396762593 7.230438362068415 1.7907509546676506 -0.7659473154763518 -0.03302144923134313 -2.2011083037507317
Ni 4.899987779299421 3.8265809753086555 8.293752127346023 -0.32432435208124144 -0.3763943333036034 -1.3609142138446628
Ni 0.3994245489345726 6.1312013837318835 7.756114836694238 1.002036292158268 -1.056323849857239 0.2928049413167215
Ni 7.673952090944392 4.8547664446574945 9.077596932764319 -0.30661433639598806 0.10009793116486632 0.6333799509288704
Ni 2.94022984565112 4.578287225566251 7.125008076916862 -1.1084997605298457 0.1324804612606299 0.5329248935349016
Ni 6.562328117234729 0.7651012524344636 2.2107423630104615 0.16060601585225243 -0.28998521247973924 -0.10566694061221157
Ni 6.296401469370109 8.08751282352917 6.261119378285623 -1.1062621294485786 0.0010415538906369157 -1.870644671540972
Ni 8.784593999201885 8.064971641971333 6.288130810604519 1.1445995915761966 -0.8409505084561194 -3.018037509591589
Ni 1.4309249524229073 9.039365865892794 7.919579631208015 1.1371297655617125 -1.1675340888851828 -0.22802471161654278
Ni 2.431603324342555 2.3728368982754096 13.055861623068074 0.29543543696103314 -0.8879515597960063 0.43580070028637846
P 4.22907957440389 1.5246844087999392 7.4274629272180155 1.2316358044610982 1.0920069050811452 1.427311410322974
P 2.900419135764548 2.465030608790019 1.6481819188409035 -1.1941804878281175 0.2153615143265775 0.8243697212793029
P 2.0217207048192085 6.018764154226778 3.657599937679573 -1.1557769483492546 0.3871086343973139 0.486992135558529
P 1.0912785422665843 4.40011646414464 9.456583402571646 -1.2457123371588223 -0.5790574262269059 -0.7511660434021191
P 0.3218228486762703 5.991210732955504 0.5600895304328234 -0.10526533429841871 0.30178580465909316 2.028073060996191
P 4.973346215622873 6.46577996556427 0.24613988195706712 1.001244906605224 0.26916030531458807 0.8035473852173128
P 6.353574355269583 2.530161930759439 0.9281889708736824 0.8461112267214524 0.521284995303128 0.6719146166689589
P 0.16335176433909465 2.5100573832951945 12.33808110179876 0.6515887606274133 -1.8549321459017214 -1.9867158382056431
