# total energy = -340867.9114957649 ev
CRYSTAL
PRIMVEC
9.26281113243595 0.00000000000000 0.00000000000000
0.00000000000000 9.26281113243595 0.00000000000000
0.00000000000000 0.00000000000000 13.55706039161913
PRIMCOORD
 96 1
Ni 5.023620700862951 5.551452722329024 4.730084999426523 -0.9091749879511568 0.44259792571387 -1.1469992021566244
Ni 0.264825618772275 0.2606379019236015 4.678907968705618 -0.4335880089057758 0.5545149610008515 -1.6910577437108423
Ni 8.143057558035656 4.232169078615528 7.197633007541285 -1.3174134623485503 1.696069595103137 -0.489977186328782
Ni 1.3295468382906472 5.139776350680172 6.3134550895952755 -1.1494890584580137 -2.0811838247782415 2.1475090303680373
Ni 7.7719708241459005 1.8767566603482375 8.623266689357767 -0.38557368581002627 -0.37501802178136706 -0.7019373882832942
Ni 3.3299249741142147 8.636348557319238 10.24126116700792 0.49067884038149684 0.22757605411489837 -0.36219747297793103
Ni 5.375848351576641 4.968738545745962 2.3046596242897373 1.1076903772546727 1.2442216115459088 -0.501814288173026
Ni 2.361942700015388 5.830782050549768 8.83296654108401 -1.2542404292344915 0.9525155597203208 -1.7837593824116376
Ni 0.9338117643559457 0.4224397580194743 1.6544084402148633 0.7701677813156026 -0.7258797580315047 0.5097291721447286
Ni 9.095533886536872 2.600450820202281 10.503738663194179 -0.3149241418132641 -0.26288809915263106 0.19916742106521826
Ni 6.41884086907418 6.426269643488329 9.203766127833068 4.203179284256207 -0.995026693609654 0.44832402956436984
Ni 0.24916591051222756 2.5870104814554877 5.636767842954344 -0.6313770615662287 0.07154325945562519 1.016894697327339
Ni 2.2854411440472515 5.644015992554183 4.444004008275015 0.7239961678555465 0.13623221499357827 -2.6603790621345924
Ni 1.6059861694824464 2.209865869178136 11.936869664226135 0.8524291985196804 -1.024768957869093 1.0937138604699228
Ni 2.689762843769877 1.9768783843414073 9.848336429927647 0.33485661907113295 -0.5160684840991951 -0.7775100806132867
Ni 1.7031901080137004 4.105639080489272 10.507819857716463 0.7471607788974681 -0.02317669522677944 -0.1613791465728511
Ni 0.24479201116265087 6.9280546404499335 5.243382744167859 1.8677123283855253 1.2891650090258184 0.23855492172390524
Ni 8.125291486556433 7.651804377169918 10.628247515962368 1.1354243528348318 0.788927321311293 -1.6922435364888273
Ni 0.49433584436327893 0.7974529974879792 7.719959214154778 0.3103738034384203 1.2587046356534322 1.260979804840854
Ni 5.938119504304311 3.3847515523652625 13.269799281090405 0.27857311398805573 -1.1767152411638186 2.077858617059751
Ni 4.603570748078951 5.990139450825325 0.14560675736059128 0.006284033236498856 -1.541478932207029 0.18581568234866064
Ni 8.56018972535774 5.5738965133583 2.369476144193725 0.6496198098265006 -1.5294466836328435 -0.7635837003401817
Ni 6.364820155379281 1.551993244220518 3.798430543750197 1.672875159264545 -2.2840400075489566 -1.2537326363601375
Ni 3.4641986822282855 6.204101121888164 10.867488324498588 -1.4062731015954362 0.5190018556959061 2.6621667501626343
P 1.0659828143752388 6.098273506325025 10.43500490052243 -1.3059550839999639 1.6050689982538486 1.4616608343371214
P 9.265404577286317 0.4690576331709984 10.117023714601741 0.2963515210173993 0.024587459531377007 -0.42496144357902943
P 4.080518337083825 3.671889430250753 10.540519433074099 -0.06345559735148426 0.34815127929751005 -0.4737404127549454
P 4.889541511779675 3.1002072615570304 1.7671359236846085 -0.9015650368143828 -3.235397028184802 -0.6052438548142867
P 6.686193382684585 6.802182301903982 12.013317495890528 -0.4246670522670622 -0.8014246824473553 0.037365842242967906
P 7.830113488731442 7.465038319174333 1.244150204928613 -0.26403455405224846 -2.3891297355014594 -1.8418598860987958
P 7.9112464501946835 1.0317937790103773 5.979612266134953 0.05680929567956022 -1.094799637334934 0.8659462591695087
P 6.270941565993512 1.2537863072017275 12.67200061680979 1.4281318493417405 0.38026744310576444 -0.5575462916280075
Ni 7.340916651905531 8.609866180698232 13.158713167728125 -0.7745617966182402 1.3037925291310062 -1.5123035961946536
Ni 8.617878512204761 4.973314374375125 4.710590487416529 -0.653827677260261 -0.8975559156549897 0.545930304655634
Ni 1.2335007511331697 8.089444408024326 9.265301760084325 -0.8439250177034111 -0.09009916808094161 0.0030408437088528277
Ni 1.9088708260512925 9.160188307248532 6.102628880052621 1.1338271835510407 -1.0049393247376757 -0.23822067831293814
Ni 3.4389853107129364 1.1732091143978989 0.5816452481947916 0.0909895411056949 0.7222195355710982 -0.6566234948378433
Ni 7.488723326876297 5.346809439122335 13.702120605874235 -1.1462543535708 0.04266514296869427 0.05070883920877719
Ni 6.605949651076404 3.0393413305403665 10.846298718077385 -1.2050241154108408 -0.2847044236967742 0.08881335938998254
Ni 1.2050453957712473 7.330959130091057 0.9309171359215055 0.5397509153177994 0.07878065774432884 -0.09843571297109499
Ni 7.705426789992239 3.489995610836018 1.5403397017137357 -0.7356085552834944 -0.38837927357962143 -0.5953160541776134
Ni 5.45559189139135 5.055466245047289 11.931474076824337 0.5970469208257911 0.2153607429956291 -2.765234305478786
Ni 1.7961238906784678 2.0975357602998708 3.412027751888131 -0.24296256387329768 0.007847778179192934 -0.1622597494055915
Ni 5.501137133030208 1.3764629759560563 6.850043246290393 0.9699296414317102 0.14996807652243205 0.31245074057210703
Ni 8.762072690889347 6.861955221223801 12.622070360448166 2.6764402293625134 0.19036833471634956 1.5265017420719067
Ni 5.280367295889566 8.271115919975296 6.368673484751208 0.20586334502815512 -0.7011547444809989 -0.062142020746383295
Ni 5.8739930638190945 3.3955242015468756 8.179896683624817 -0.08316798817874708 0.5382326789010602 0.11735054759772694
Ni 1.4876815475154963 2.55297891387746 0.8324969903072371 -0.5645780016638083 0.8439509858453401 0.14207273293475534
Ni 2.965581566625332 4.086539164227461 2.4287748075908455 -0.1442121478752613 -0.5812413212521021 -0.11253744247979973
Ni 4.152805314051417 0.8728244905153103 2.9530258263281035 -0.09223601191828631 0.12239916576522793 -0.3494322028924627
Ni 8.414819169677399 1.4689706693152742 0.28112168214734984 -0.04778215248028546 0.6346976412990294 -0.9467079518996082
Ni 5.085153554270909 1.272108147340361 9.442791112873216 0.28479569785899983 0.41269702438937955 0.46901729624766325
Ni 7.647404541949569 8.064305138996898 4.834569507396082 -2.4246150728922626 1.7649083111434059 1.3174047205978023
Ni 5.218695500316754 5.804929545076095 6.957727129175969 1.5730325386435942 1.5484718185850943 1.4102593399366938
Ni 4.456292053334627 1.98098180961007 11.933235863474675 0.3220939200888259 0.5335288456674876 -1.1011700596376517
Ni 8.882220612243348 7.804464765099553 2.838468937687792 2.8017779089307746 2.3039902254186386 2.393586228610916
P 3.1647412657258167 8.567516608850996 1.5931710704774922 0.050602138427583813 -0.28808002503722646 -0.021781871761781844
P 2.3442877822680495 1.999099867906919 7.430733498672093 -0.9873383238264609 -0.23177260869474922 1.7625444388969194
P 0.876938104876062 4.192941074071993 3.2048890674006802 1.290155655073862 0.5823929183580422 -0.3913121309557003
P 9.260560127138437 3.3743772040562283 12.73477005548494 -0.5533877893749437 0.24166030012210638 0.7077205706239746
P 5.664153343646897 8.400971267247037 3.760051012693365 0.14740083001588808 1.5974580186758103 0.3154607310430244
P 2.504525149587676 6.043131992500311 13.0928934853939 0.5147361384410168 0.5363740284257665 0.20238027157556113
P 7.805835661126104 4.019893239152907 9.38269214260654 0.2817150020511471 0.2794226064725446 -1.5119415848695443
P 3.857266066597807 1.0300060564892668 5.522901960013902 -0.26843782532626675 -0.4455207557876198 -1.110198231278191
Ni 2.466028907112367 2.9127835439811407 5.572371854669313 2.0754134979533676 0.9128118133727958 -0.44134091337831727
Ni 7.208124993549894 0.6268690702922891 10.824851605510656 0.9255246329537737 1.4150225656532922 -0.10233761912866246
Ni 3.5204795218047957 0.25167798485277226 7.817461415199916 0.5218290407320562 -0.5595489238803331 0.5927704049376242
Ni 3.279757589791243 3.944642162668449 12.65803692924205 -0.49184483566514003 0.9072515456761988 0.43896675671918595
Ni 6.766103653097118 6.7798311389846075 3.1912643987151816 -0.6282457150260986 -2.139725015547244 -0.22472675759156138
Ni 3.395931765230445 3.9028854107245867 8.207268290100885 -1.8763386366019557 -3.7714787221811306 -2.1351811049303033
Ni 0.8527158541366655 4.953019555495578 0.4850498763455943 0.040651197862459014 -0.5411259412884553 0.1657327955558565
Ni 5.72631606820219 7.694691192054586 1.2374291092741172 -1.3594898226933103 0.893651695504577 0.6627735735996392
Ni 8.576381118968625 2.8057702886112548 3.534556215666617 -0.6307042038689202 -1.3013288980818623 -0.020521002771487242
Ni 3.645703463581432 8.336131590315572 4.42084883336169 -0.02682406217137961 -0.7558266821025821 1.2280239187401238
Ni 4.635295875720416 2.965451887271469 4.186054174100772 -0.859270646921546 0.9659014941089236 0.8544313165513736
Ni 6.591768287450393 8.911342889996565 8.588953532325636 0.1536000168480645 -0.20954439342416814 -0.6594275399455418
Ni 8.450406889501783 8.349386672842561 7.034636248827676 0.3957935637658216 0.16389214280269193 0.5768082251814131
Ni 8.721807251514909 6.14676432185877 8.70196538409278 1.182802327898163 -0.4348334512771027 0.0809439839442348
Ni 3.564172201245612 6.370831719711927 2.0915158594373335 -1.4040776366060141 1.885359094933011 1.1370490329224483
Ni 6.997266364168775 2.894137505457849 5.617286298879737 -0.8433364921897928 1.019435975691954 0.23864208212107288
Ni 5.709115028193373 8.284435842179215 10.79177225490242 -1.5245986115119228 -0.6712409876407021 1.0125629027212046
Ni 5.977430874146758 1.1069985414398846 1.1584015847489506 0.3351337839919196 0.2616629684962784 1.269765264342968
Ni 0.7126075013798623 9.093792478070712 12.68783539219755 0.39856984095937814 0.3640916046768504 -0.4833643089979547
Ni 4.003831524895885 8.073429007822254 13.048575566211243 -0.8281204465709867 1.0214550630045118 -0.48192320567605385
Ni 8.44366356310091 4.905038194566295 11.277766011687918 0.08951218522922004 0.19274763358180355 0.00044942883259277433
Ni 4.571864146059466 5.333767401248121 9.135627963907993 1.0972270158295039 0.13891490403206397 1.7010639629939348
Ni 0.6753663697937267 3.329563724485597 8.018540368737572 1.681103460711608 -0.5018716237735228 1.2958275086476585
Ni 3.122965988159974 6.731423688749776 6.386961978770278 1.1522051718375963 0.8051445545011037 -0.24455690494361104
P 1.2885125856040214 7.018218842628629 7.339114108886837 -1.25922811225707 1.5082032008730348 -0.4556632435382604
P 8.163074492585498 0.8414698753134526 2.360528268777183 -0.22253309237435223 0.7999990057444222 0.9754122618128362
P 2.9977976232492787 0.5497478322689076 12.008586052036728 -1.9014279754704155 -1.9507713017902342 0.12952729216957692
P 6.596279276402625 4.2645518658373 3.920241139676941 1.5239046707686914 -0.017580174975608435 -0.397256007243961
P 7.375133475703363 6.562432965044401 6.966675004592511 -1.0320714050677773 -1.3222587062559938 -0.618400961021535
P 4.701367506513578 3.919067541524482 6.341518628052312 -0.6120577924123266 -1.3724121871819333 -0.7925199237585577
P 4.857668179162365 7.571995997678277 8.913780861849188 -3.2329177134063745 2.0877869319170563 -1.4426087028016767
P 1.7650008457513653 7.833216530413163 3.6473781798084617 -1.7230042147104518 -1.0142279491284532 0.09368714254251607
