# total energy = -381173.8305241462 ev
CRYSTAL
PRIMVEC
9.15811826181423 0.00000000000000 0.00000000000000

0.00000000000000 9.15811826181423 0.00000000000000

0.00000000000000 0.00000000000000 13.40383179295313

PRIMCOORD
 96 1
Ni 4.965952875873467 3.911093365426671 2.616132726833908 1.2025041772024645 -2.273458889599001 -0.07604191865692711
Ni 8.442521014555139 0.16052990372510492 11.992461247554955 -0.43970363488521047 0.806978779496365 -0.1443162775532934
Ni 2.685031996300274 4.124321827801611 2.419110470146323 -0.5682083993275441 2.5850166860431933 -1.1817152654815712
Ni 0.7475744283437561 6.407880245370938 6.213948853522572 0.864187624607189 0.7605397713075354 1.2505359837997108
Ni 4.060187527152566 5.609301510215141 3.777293260831134 -1.4065019297767907 -0.1660014758362109 0.355657100756252
Ni 7.493584297383632 3.166584159191616 9.14661361424666 -0.06862042938187536 -0.8070314871111713 0.20994497129669648
Ni 3.460852808121375 7.756678712497976 9.84689735264446 -1.1719946957596976 1.188560570538179 -0.04615695817203664
Ni 4.619354740450969 3.2253151701958034 9.403471350974312 -0.6699037568865173 1.106668620858378 -0.39569200519095077
Ni 6.610640978823722 2.237016861679216 12.997078406610814 0.23256219447558013 -0.4981355537698582 0.10152283653685097
Ni 8.084511864052148 7.835017254230367 7.932856176709866 0.07012838138596955 0.5619518768948708 0.5374862876533388
Ni 3.8375903100205258 5.406806362185578 9.910592063627483 -1.1307688563406912 0.24359556947160627 -1.3632377197715169
Ni 8.181065902570335 5.732056924451867 2.424712490952695 -0.36091372116950104 -0.47584743179561917 -1.166996214103842
Ni 1.9775582194275974 2.8399232467468387 6.477870246696121 0.21147503478797772 -1.0049514089225338 1.305013546022301
Ni 5.667125867533158 1.3590097687440152 8.82159749980225 0.4237782219042056 -0.43492986764565095 -1.195201215783148
Ni 5.27626654761304 4.453363850937342 5.424369800966777 0.5714227924997836 -0.3875495785894745 -0.11055460772181605
Ni 2.8140057726876075 1.8979375411693091 8.865937444115032 -0.1153718266048013 0.5436204255755348 -0.774979086661317
Ni 7.107020134825275 7.1750374775241825 0.344054926042197 -0.2701674064228637 -0.6958700990432919 -0.09396585012519947
Ni 3.7980730306687294 -0.03575146121287172 7.809541201460767 0.059587629755645764 0.4875150979415345 -0.3739659263677688
Ni 5.917591237867403 1.9635829312953053 5.358516521561224 -1.5481226627757918 0.42322646316579365 0.027539600181165476
Ni 7.173544704283315 2.6497915580741527 1.9178738483352242 -1.6769218185300925 0.23357443779017836 1.1103144451410811
Ni 8.448986645892884 1.0490349473720009 3.337285984626116 -0.23717192533344958 -1.6194239814239402 -1.1470290269532957
Ni 6.377924041255127 3.8151620789353466 10.973167288524774 0.13568431290990826 0.11892560539433066 1.6139408468221816
Ni 1.914898375783336 9.169016202601322 5.808523546856446 1.2109592499483532 -1.5097947137298706 -2.259628925694444
Ni 1.2608896920406216 1.6129826982883972 4.420891911795358 -0.5088231153906915 1.1773492752033916 -0.2898340316138557
P 3.6909230495757948 9.2148983739924 11.65031578912454 0.8145792175514424 -0.7998141434271258 0.5841541240235231
Ni 2.615137239402728 7.333472919653052 1.813592189813085 0.11037051673546798 -1.6027256948326527 -1.5202171946147753
P 0.9648535263287311 7.3511022968841555 8.548829364600001 0.5519531138109462 0.13359786269452475 -0.18865495156966866
Ni 0.9249790803732918 0.3650929548085808 1.542459694493162 -0.045946384823127316 -0.22643371298033907 0.4915571292213922
P 3.0203198559407385 5.196719134299088 0.3969696162778268 1.9142318121033033 0.9870881554888677 -0.11607553754004525
P 8.92170122487357 0.5626546246488474 5.76053775575109 -0.920730296888924 -0.5809489868226639 -0.7480532088047505
P 9.059091311741621 7.635406913384076 1.4239426572863336 0.8822966755030741 -0.9800345910761962 -0.6477393049743361
Ni 2.9099645335330577 6.98302837465286 7.41599122645987 -0.9383719212300871 0.21447139841214027 1.2223986021335465
Ni 2.737599593862107 7.201357908777268 4.999025587559015 -0.32453981052615716 0.2859660640180172 -1.3208222309197832
Ni 2.0957528908793424 4.777570387746828 7.970039051772724 0.4055174759218048 -0.06496020692146877 0.1090998775531605
Ni 5.923269271053524 9.092353596470641 6.737033997546783 1.2656389008794204 -0.3905582835088113 0.6966434868742067
Ni 4.723180324694611 1.2598273503477344 3.424343970546419 -0.8167947371455223 1.605537453249835 -1.6906021442306625
Ni 6.215101860584077 6.74826917676087 4.2655143652807554 -1.3053231068429196 0.017268043051828327 0.5216097256323984
Ni -0.009441103889633038 6.446985409410838 12.278968391444007 -0.5432604711329547 0.12978594514760228 0.6606321017766041
Ni 2.317635774804097 2.036151858661153 2.4441753234158323 0.6211047331059432 -1.0001858692130903 -0.7219783660945696
Ni 8.384138012036553 4.146173097450136 13.133677232080027 -0.4678430734339039 0.008406993116772617 0.42370211725063156
Ni 1.3201335576551683 1.8173277861624704 13.024073791163604 0.5965239584427855 -0.09922735563445491 -1.1621931362882434
Ni 2.628004395251923 9.001807283388091 3.214090980723367 0.12134244236593941 1.64666044854239 1.494904941102232
Ni 5.477049127568724 8.80722474934693 1.747685793322888 0.20218795305909695 -0.9190418534429076 -0.04235892458218511
Ni 4.837711748929504 6.885915690934102 6.158095323207223 0.47784852138604805 -0.35023515840973235 0.3673077976213029
Ni 5.701496284545275 4.526683743982645 0.368011647028608 1.0354086969711265 -0.31640406879290023 -0.14351512180823672
Ni 5.82132110100852 8.91964064831409 12.562553179865816 0.02562412832600748 0.843270671948864 -0.3477861826486075
Ni 3.3096705954818733 3.1771709436483198 4.488286502467401 0.572717342941491 -1.0218970356379369 -0.07007027445452449
Ni 8.484877310499995 4.7416980393758 10.666849303686982 1.6086942537112618 0.37154908939616016 -0.16028359951582719
Ni 7.83082283616707 7.579487444618823 5.576128059231129 1.4939310072247367 2.916822434103145 -0.16034684865359483
Ni 7.659355392064249 7.929071126523055 3.010996891773849 -0.4527452985605171 0.4865745884051362 -1.3476097834262726
Ni 8.836997791101897 4.130164707112491 6.5529457509701 -1.0176210339704024 -1.2519074102259407 0.33588248923248604
Ni 4.523789778681331 7.195597452528768 13.386794793399273 -1.289591555040276 -1.309024724064223 0.2817363422073858
Ni 5.271934757779111 7.014843676731225 10.991075072544357 0.48320747170511624 -0.9458186073161196 1.1619396255165408
Ni 7.538074434832305 6.834099059051723 10.210113809066208 0.6800994664725963 -1.3795770803614884 0.17149386640934983
Ni 0.17876096931157545 3.5864014483609514 2.413158609230742 0.6167500556816733 -0.3738844223975561 0.19776257029789168
Ni 2.811899405537917 5.075813659906872 5.782734286449804 0.07523896313965751 -0.3883175671037506 -0.10237361457292048
P 7.347457365903387 1.597258209610058 10.625740343419464 -1.0494772592490507 -0.036881703517697775 0.8258000259679262
Ni 8.885801402148415 5.417219142399481 8.267375670246597 -0.18572569373801562 1.3330601677468719 2.6261576790578776
P 4.285523021579204 7.5868139390525275 3.2201637287971043 0.7386990212833601 1.3459195402080433 0.10900500384650905
Ni 3.1014333074398945 0.6116386506207944 0.5316324155929322 2.5829312642690745 -0.4746549541494148 0.7797785649324894
P 8.769658149138106 2.1424409766581274 0.6700463800580945 -0.29116637727203404 0.47706819157659774 0.4217647910186027
P 3.922238795083944 1.8032609168497569 6.422271312062343 0.28288793931332573 -0.6978925287899593 0.009521052116557797
P 0.8921866070998328 3.826316666710662 4.94392302292312 1.3146652101794518 0.3642582121617017 -2.663721496244264
Ni 0.5900804407496176 7.8490749654250385 3.900273964771697 0.4268051816559875 0.9473365866225427 0.4124455705002058
Ni 1.943590759609333 0.7726282918716143 10.699956816221091 -0.38046027584286085 -1.5948982283684339 0.33262001643113037
Ni 2.8079522566617583 2.796806827004485 11.115489021958513 0.722933016698355 0.6701217864345943 0.5209780055856705
Ni 6.573285015329869 8.773596139896224 10.105014330602907 0.02433549142157099 1.567472013836681 0.24530663862544205
Ni 7.796177675613689 0.20724821129342874 0.8006173322319757 -0.9787161293750888 0.6025958756684784 1.063606242451265
Ni 8.04374908064662 2.794233395834646 4.5801561636070405 -0.48752024014785716 1.6712214257112057 0.7200230421404116
Ni 3.4039076301354037 2.9234452832910747 0.30149074081778393 0.9350667681162541 0.8651129646349358 -0.052811744484392915
Ni 1.5508723417266634 4.239530952771621 12.613487884980737 -0.4148888898343758 -0.2536889491518663 -1.4774391802173006
Ni 1.0266891393492008 5.654130498031373 1.0218664743882144 -1.0437462703025444 0.5679821422493508 0.2731969372778069
Ni 8.50114212814282 5.465912856029492 4.751416634242109 -1.5159352794099699 0.0036846479404388155 -0.9157094466355647
Ni 1.8043690491328548 8.3229800997512 12.907380135258965 -1.499287900661276 -0.2167745926240202 -0.7814770356808347
Ni 4.199125335969738 9.051361860114062 5.185848448183079 -0.043281179286138366 0.0003861796948251414 0.3830028397590565
Ni 5.077077480196687 1.8312847580586782 11.200979138070004 -0.5442012377796692 -0.9633316764992185 0.36346888349118694
Ni 5.656529924958411 7.243677572249957 8.507961262836993 -0.8637659636887381 0.3466340713220353 -0.2674759756336297
Ni 6.621301028224763 3.1463080858463375 7.076793766227221 -0.22881661139021886 1.0644230819256055 0.23333558230649493
Ni 2.4098946559605268 6.439759654275597 11.797503230674064 0.7529141364414775 -0.9067553227660706 -0.34717040344147954
Ni 6.083527178672778 4.948103703809354 8.872773063421679 0.9757537043126551 1.239209503043298 0.14248770898498686
Ni 9.068002160596615 0.7866502864059214 9.475597025426923 -0.6963113003457686 -1.3689360557078747 0.5689511910308396
Ni 7.911954603902311 1.1959036864136587 7.603551315586326 -0.6074143801030442 -0.08614172609509035 -1.7042125359252458
Ni 6.474175861877926 0.09590930700802305 4.3229366812167225 0.4183791623758214 -0.49898324648213416 0.14711235224119182
Ni 4.429571060263886 4.506444303109534 11.907414384356702 -1.6440818891819362 0.2849417365185609 0.38904904595313644
Ni 0.3434504902514164 2.891629981212711 8.347852632541825 2.449068835059253 -0.1193331252453945 0.540283905003134
Ni 1.2536181463151697 5.724492318949067 3.493185543869119 1.3239425217163197 -1.2524964499601912 0.5371049930545201
Ni 1.2899209262341775 0.5925210792078457 7.635935336795107 -1.4629826384723386 0.3115806792623279 2.9475455742186143
Ni 0.5207782140893983 8.027786480899186 10.633259158332052 1.3279328738226357 -1.6559837828258446 -1.304947725781372
P 1.700799892194393 4.1476200801007925 9.896129563615348 -0.7002106354001747 -0.21898394157051318 1.1316934250374897
Ni 7.07219181191105 5.916235836397167 6.781655096083459 -0.9606129920164747 -1.3098418206488796 0.23318697254377257
P 4.56211650268765 4.938789897760506 7.416768750681649 -0.8356938880428705 0.7962701348296093 0.4187951668673175
Ni 5.594456200868846 6.134876746535007 2.022504431154769 0.36414842605671477 0.9282145210811112 -0.17773959020874552
P 6.7122869309733355 4.764794813078056 3.7218683304401563 -0.27117296486924264 -1.9439923311951877 -0.8749119530032288
P 5.024372510864222 1.6990781660024725 1.2429333699954148 0.4781675952883636 1.1319291951973796 -0.17997722129001262
P 6.888635651992614 5.689416726847704 12.164700721008728 0.001504866680300634 -0.06361294886495496 -0.552592547167158
Ni 0.22000180647890064 2.511311655159087 10.917340316751746 0.3437374665005306 1.1332301733969903 0.8011799134264009
