# total energy = -340891.8840505163 ev
CRYSTAL
PRIMVEC
9.06267378828070 0.00000000000000 0.00000000000000
0.00000000000000 9.06267378828070 0.00000000000000
0.00000000000000 0.00000000000000 13.26413915825588
PRIMCOORD
 96 1
Ni 6.4840982143253605 1.9580993669692164 11.31717578510556 -0.9226480827369272 -1.147665889206346 1.159672426748919
Ni 4.546371737438374 0.5059953446050465 6.027290530272495 0.011384587687857812 0.03754324836109663 0.34087377179949035
Ni 2.8464951271920147 1.9214952286052804 4.687997761669266 -0.5972430959969972 -1.476957869705508 0.46909391512186954
Ni 3.3572130309704824 4.225589345378491 4.812561490456289 -0.8601579346225058 1.2206024294650721 0.29048117827955133
Ni 5.092452193307973 4.785979762742681 2.900322876588548 -0.5553168880768564 -1.1111937624222412 -0.9738392608987614
Ni 7.1980193838617295 5.893184712531923 2.5728984511028345 0.7732752165963328 1.364227851598928 -1.205652493023459
Ni 5.105420879120993 4.448367985948501 11.551738620058988 0.4809045346035524 0.6146396942068898 0.0822724729476712
Ni 5.982297981294631 7.622995333428462 12.25615667013796 -1.2272695570726024 -0.46798191300461334 0.7801359482719081
Ni 1.7219623456246491 6.401673198623455 0.5144761944889215 0.6801688862579512 0.5561599528034422 -0.4152038499716333
Ni 2.6197107849243433 1.3707928092383794 0.28680280394853325 1.4804368293930439 -0.9687212229459059 -0.390935721452888
Ni 0.31952449297473434 -0.038471049109905134 4.960257693413637 1.5461010043600727 0.794152317155658 0.12295092450363984
Ni 8.642074845869125 2.361007706504708 1.40866481562834 0.1305487914555558 -0.5205041512730455 0.06965838372808648
Ni 6.966993710384768 0.8000555375116981 4.849461978244463 -0.7681983162940577 -0.43221838225175885 0.067036115613891
Ni 0.6475579301212684 7.493852235709699 2.556928207818624 1.2978177996048101 0.3317705239466415 -0.2138697602723994
Ni 7.542917550169306 4.0105774160186565 3.712565897455487 0.9123603276576739 -1.3437109625924988 1.5600073300285198
Ni 7.450976727267071 3.7367849861813554 12.77352476374843 1.2317859568857172 -0.40216244340664287 0.10899266255133487
Ni 7.819093463143451 8.76849914153065 7.1035165431542255 0.5533037143015697 0.7837956565116824 -0.29998860354935436
Ni 6.691860004865896 0.5453182850262193 0.2433309715880167 0.2258583000928433 0.17132983002765978 0.272497340107621
Ni 1.8561442898228244 6.7075565554096785 9.267480883095379 -0.33044486315668253 0.2588499245275155 -0.80762464061048
Ni 9.208310687656375 4.7636583978527645 1.3886227131297406 -0.48655736201395566 -0.7100119377613127 -0.42266724822821405
Ni 6.366700341493862 2.180424873863019 7.055195274190949 0.5332128570889656 -0.6543359843552473 -0.4968124640830604
Ni 3.522543384071071 4.469719644771336 0.5345536414142651 -0.8407733594483069 0.12706391823074892 0.06535847080115197
Ni 5.94708949465341 5.791021193894476 4.96996653556003 -0.22721352856915708 -0.23151472704767226 -0.1634591690303314
Ni 4.8641815725823445 3.0613258030813677 9.608077904548406 1.4049209584429159 -0.08651016517810263 -0.823124536018292
P 0.42599912540760654 5.255308436536476 12.427490138180929 -1.1056201249892057 0.6771835783773822 0.8615432450058066
P 4.074460201690205 6.148217408174288 12.51434317616672 -0.12973529441532494 0.17264700617718653 1.00707154058933
P 2.5202932563647065 8.458755085823151 1.3119769643341692 -0.510429797756179 -0.5017068160608844 -0.07267428773627484
P 6.201107170861074 7.898926554217456 5.715093208842015 1.1258570208613707 0.07895780675214145 0.737337365049143
P 4.776300827418917 0.8735601636638082 12.460650460605699 -0.517313669360206 0.725498720543002 1.3723144852618043
P 4.228978785276515 6.15646444108124 8.028278999694628 -0.3468909245278477 -0.30769162862056687 1.0517172043231628
P 4.776255514051296 1.100054500378708 3.9208134472969163 0.9072109222462506 -0.4043023725677811 -0.20428288791491273
P 0.2630694745235581 5.5815193700373085 3.4044531229823294 -0.2178832523071667 -0.26521083374853677 1.8125919903726138
Ni 1.569736618439943 0.9809890956187706 2.3900118868513136 -0.7061208302370227 0.3301440440868121 1.9505861823626214
Ni 1.9241324666008006 6.636033935957295 4.729315396533098 -0.09530899441665522 0.45364878421139293 -0.5096083302961482
Ni 6.324812664465362 5.700557586776673 9.256949150192995 -1.707714378430917 0.2571951625329119 0.5676409568598482
Ni 8.65061188432885 2.2908716761015144 10.206422798631625 0.4064664700986355 0.6291144907842972 -0.3249275328828791
Ni 2.4905586245320563 5.37197223281252 6.932250138895335 -0.33471520839726226 -0.42530340029948044 0.27258064385004666
Ni 0.607626884306627 0.0904681384545649 9.29484562580147 -0.9933624185333537 0.22764110302487892 -0.5063674547613474
Ni 1.310109147320847 1.040648675428077 11.506693507574683 0.23945995003667794 0.06165325403542286 -0.6031579188195354
Ni 3.883119975575381 6.779115425556159 1.6123221213298005 1.2229560172989131 0.08359659107573345 -0.20893092820988535
Ni 5.59194144459005 7.85882422387321 7.927790263124439 0.33783138542874075 0.47671903576729513 0.37362499808858235
Ni 5.339555049616729 3.0649146217969205 4.658710825908708 0.5671601605686877 -0.2596320541091787 0.7056839998099201
Ni 0.9439861996197736 7.334068238805875 6.806267195434434 -1.0130886933176877 0.6557984278333867 0.5628581907592243
Ni 5.18560741446244 4.364846386750177 7.244646839143346 0.9330021722777416 1.5765960876251364 0.20188739109954265
Ni 8.06943169390032 7.35996935973782 9.27310517828445 1.1864047005374405 -0.15334804873825847 -0.5820918421778556
Ni 4.7107867605130265 0.33678526096878036 10.392691552642349 -0.8902478120293505 -0.8909589791637624 -0.1425175337816578
Ni 8.089414889021013 7.264938165163859 4.503891361561397 -0.2640265836324485 -1.0737075925513249 0.28860350164086424
Ni 7.3079133630152535 6.2351465726176825 6.933431005255528 0.29982893804303845 -0.3385222408481783 0.43012267606499466
Ni 2.305118198881437 5.181357020579626 2.6981509430776915 0.5808844521333157 -0.43980493634976514 -0.28982708963532017
Ni 2.350195936990428 5.088346802201545 11.431060965679107 0.6471155553474081 0.43487870269274137 2.3109347750572713
Ni 0.9291234150402107 3.284820394859782 3.605219435829594 0.17635299427386403 -0.008508037471011155 -0.013777256289750467
Ni 3.9660887516887335 2.4351494386055643 2.4112348557101067 -0.38835536232022144 0.6740308916810134 1.9456566062714877
Ni 1.088925537291084 3.6594894436941043 8.098167619110612 -0.522614769858145 -0.2636182924504363 1.444758145044512
Ni 3.5883202685091606 2.909444457490578 7.173087062729513 -0.9346685042365709 -1.2695145817847426 -0.33488772941938455
Ni 3.9938024073255036 7.089765748616072 6.025526934004701 0.41839844564953105 0.6353648425693832 -0.19569437491495328
Ni 0.6678256931906187 7.300481970725473 11.542705853357493 0.8772038343611988 -0.7169731995704942 -0.50476540038155
P 0.14539247134751665 5.798461648857781 8.095966295711603 -0.32693325045899824 -0.5147009143277071 -0.7016198570428755
P 8.455836904948383 1.9610719238851289 7.958934140690089 -0.5358466951673868 -1.918848484939708 0.6836645581160354
P 1.7091839759556346 3.1158468470024956 10.397864526689919 0.8060377557393343 -0.3718043999400758 -0.022456272120987133
P 4.012181509232427 6.2655427796175935 3.990635909196175 -0.9337061403233017 -0.07600000967539815 -1.0411368577041553
P 7.004368175998255 3.8090416821891937 10.552245357638661 -0.5056382899048066 2.2865949127603264 -1.5549558836475414
P 6.221389434208063 7.799418398922579 10.170901649753821 0.5704956526998239 -0.4540398490022245 -0.28301957979518355
P 2.3375353820772276 8.768227261324927 5.91743733314983 0.7275666588156244 -0.27718497539127745 -1.1175557000845269
P 6.89018755226782 3.7526084141544755 1.6415166178204124 -0.607358072943812 0.30185239623097043 -0.21955215536915737
Ni 5.0596543778241685 2.760345352671695 0.5595303696467501 1.9797098392014554 -0.6799009773085452 -1.6809599931552082
Ni 1.302469313540011 1.0861342338456539 7.206698706295783 0.12130747536294592 0.882978274951131 -0.4524424226081175
Ni 6.878587330156941 0.7066447489638502 9.266738650133751 0.062281374537725 0.08382567636740401 -1.0128968890218555
Ni 2.9814836493338377 1.6396460820050334 9.191649868649625 -2.0642425689382127 -0.34118384684074143 0.9964467138856323
Ni 6.427411191431967 1.8802056880293732 2.6940528021100825 0.840725794039823 -0.10551421708443118 -0.5877616388691231
Ni 4.072973923232249 6.698493881885555 10.431846833603325 0.7084600198931604 1.374365454253562 -0.44317410993231415
Ni 8.309012531184054 7.036105658679736 0.37363046644845765 -0.7056024958397075 -0.5943840292816474 -0.18680735683796862
Ni 7.520650561320533 3.9621374260322155 8.319281446554239 1.0550498682408216 -0.2710210126724107 -0.24182819315853837
Ni 2.8136882490346875 8.127958439519112 12.267391666505816 1.4759795649526386 0.17685795893474057 0.5658216442629223
Ni 0.43146029247324347 5.043794699156952 10.12805876693588 -1.380041678702733 -1.2107687312041018 -0.3859938040665804
Ni 8.698299672412789 2.4623737098720313 5.7952081490626215 -0.16322031354664793 0.468375034677974 -0.44096141855171156
Ni 3.6148104632201745 2.697423210393704 11.754984480382452 -0.8875476394893682 -0.46618522611550683 -0.6277258379668866
Ni 1.1752746906289346 3.1768567651668964 12.720547999395812 -0.42021184470918593 0.3170926102194926 0.36217047639473754
Ni 3.23881826405133 8.45596378237772 7.9821599603977145 -0.5459485594880791 0.28731846428085356 0.6006819464752171
Ni 5.907938745029195 7.7239716418342494 3.4513950530352333 -0.9167345454659696 0.6388633426409449 0.32155450264558816
Ni 3.537315541915393 8.434458058104974 3.4504135654925707 -1.6668590349774517 -0.40153252313212784 1.557394574996021
Ni 3.1533391273717952 4.74411021106123 9.421199232609506 0.8388761424255939 -1.5284532093713223 -2.2909611601488225
Ni 7.608495055789865 5.856888705067807 11.477790829171548 -0.7104775645438216 0.02697164349283742 -0.0691045681071455
Ni 0.37330874153835125 9.08931778428463 0.4290006828787963 0.4840993873917663 -0.002017030430028784 -0.3303744149300633
Ni 4.76784535302091 0.2887476536868102 1.7073868477958007 -0.007077475672071681 -0.7342723529705741 -1.2511047118189873
Ni 5.885726132221569 5.34028006349866 0.4861571522607397 -0.06325376575332332 1.3967888162540847 -0.13527525039694765
Ni 8.074434289685637 8.77252296857536 11.349805034861816 -1.1014814202304837 0.9094976613978982 0.09033262424798637
Ni 0.15184146982728305 5.113903541539573 5.74797440092224 -0.12262413729184042 -0.8762018754592458 -0.2215136499709024
Ni 7.829588039084387 8.761928703225662 2.323664960248556 0.06744954900222577 0.8989841634610839 0.42753460362284434
P 8.66766783590125 1.4618998661763951 3.5494042421292216 -0.5009408844291373 0.3273518260536556 -0.08545832687482056
P 2.159997607739644 2.9929298059948057 1.6181186073158298 -2.2438999449949613 1.6911505605349648 -0.09342463290974878
P 4.861924966874838 1.2056980856494177 8.27382488869194 0.06009079464430942 -0.19541643866321828 -0.5863403330415644
P 8.359863192327913 1.610237706419252 12.515351851729955 0.8492348599520988 -0.026426055402012556 -0.05002184044408159
P 6.345439309406268 7.505633711291061 1.2860377801734222 -0.7430480422806751 0.20768471450761009 -0.49389631887753005
P 1.6934421120442316 3.2699032342390746 6.141362401920641 0.8467331765761674 0.2788741901682423 -2.2919248096136724
P 6.905186276950245 4.083024428170502 5.921840886215202 0.9517108044308383 -0.09506679649886209 0.22005429181655653
P 2.3738676402354395 8.521885669592198 10.17076933472037 1.012591699076611 1.046982774961971 0.4947342413977932
