# total energy = -340865.36849602254 ev
CRYSTAL
PRIMVEC
9.28750185523278 0.00000000000000 0.00000000000000

0.00000000000000 9.28750185523278 0.00000000000000

0.00000000000000 0.00000000000000 13.59319776020581

PRIMCOORD
 96 1
Ni 2.5324417097803797 4.490256391388368 5.589767516469899 -2.8214782155731792 -0.6693478843830473 -0.46889259774434083
Ni 0.27429429396542654 0.31905540922583664 10.26499843884363 -0.33221841011733755 0.7246980790185776 -0.929415740478064
Ni 4.830095372297937 9.114522147252815 1.7751898885956285 -2.8554931390660436 0.3848044117441695 3.374374152913369
Ni 2.9563511576133283 2.8759864039359075 7.3000368382470215 -0.024016417519255415 -0.6676769244385274 1.4226075770894016
Ni 1.9868288374485377 0.4325579695738959 8.444203201067648 0.9938912944536302 0.4961781729331713 -0.457071950960329
Ni 1.3038909624731803 3.368177565513962 11.011496261613603 0.4768095385985724 -1.134769235749336 0.31426773917618783
Ni 7.819751511615556 3.2842185486130164 11.085484216507373 -0.6106603978441677 1.499262446739979 -0.4675520245560464
Ni 8.713227766472277 8.73759817137804 5.050090286582901 -0.16029028438404652 -0.08350917356824973 -0.17864538985246653
Ni 3.7929879010282597 2.2775833709774096 5.342902001775885 1.802013186415503 -0.5360750091281091 -1.0326766427519443
Ni 3.535621936720505 9.202911302545548 4.247262836223779 0.5545298733991869 -0.4230907089188778 0.24438027015643077
Ni 4.615934866687439 8.409062080243743 7.13555889513762 -0.5775566733116635 2.1327329005001268 1.0448629004054908
Ni 2.0951396842515053 5.747366206944507 10.678150173261054 1.8553108693973788 0.0020517403227061437 1.688099175303151
Ni 5.810911294736129 1.1996108914816077 8.394302382272615 0.8200217287232524 -0.5000661951336679 0.30945746227173804
Ni 8.80164478427062 6.285929865357342 8.56497880412977 1.3322394716177894 3.9291066292416654 -0.5813444224888697
Ni 4.452781321344639 5.114998779648978 4.995921860678801 1.6497753400222879 0.5382234229296795 -0.9634910848952181
Ni 7.409996216631838 0.2209505982273435 11.92774547105452 -0.45760236954250216 -1.3114194495486446 1.7302410987785235
Ni 2.2129330704633077 3.5679981682378386 1.28209040933473 -0.21847486314457853 -2.2545908490499045 -1.5879428800965232
Ni 7.745832284235621 1.5090333037683226 4.279002873863047 0.027009952929940583 1.4871384097829357 0.36612509016711137
Ni 6.641223249377881 5.502956307744808 7.949111552655726 0.3826559979425991 -1.3006583543773986 -3.058312297951236
Ni 1.116264849704054 8.171376332397614 6.600435327417275 1.5805144488429361 -0.2587799905215285 -0.3033066121789938
Ni 2.2525164034314304 1.1340689907880266 2.586173623096611 -0.020093942536397652 0.5756761684594988 -0.684577299738292
Ni 6.623344808278952 7.756373598857587 8.961886697777308 -0.25607981798154605 0.8785685759192096 -0.18807799602027608
Ni 5.970934951948883 3.635248969275421 4.699481518505376 -0.05392708903575874 -3.523561642516035 -1.0404380318649178
Ni 5.0341882258818185 6.016202236061185 13.445317704041727 -0.26271814923367015 -0.15438188931941155 -0.1505889979358826
P 3.333702358574105 6.806633657674987 12.233687856390704 1.669318552261538 0.5020991664032965 -1.7216176187755705
P 8.316800036671399 3.4951098535654244 5.165251594764866 1.2823410441254495 -0.6866508944378691 -0.8264443444201445
P 0.43689430419679987 3.8979831096637896 13.01533701623664 -0.3867774763101403 0.5848452365532767 0.8692257012517287
P 6.999423621483596 6.9979654836900735 13.10387012780835 -0.20454385488578322 -0.6446591233871155 -0.06766989254314797
P 2.4458729048540837 0.5807456344040648 6.108389050868386 0.11972598980843896 -0.5465013466677555 1.0952174415986429
P 4.32010006963591 9.084412066191659 9.358997987715789 -0.15817889446799854 -0.347545270282395 -0.5619194809950387
P 3.394229008258116 7.512418787249496 2.7766825764460528 1.3038771184250126 0.7126635164515467 1.007265401767691
P 7.970088304378345 6.958670063279908 3.6238513469810805 -0.09790580860955397 1.2292302803433992 0.6645052115787652
Ni 3.641833808100949 3.4491088568054264 3.2506367993530123 -0.9847461376192524 0.41477781817780823 0.8907260372173498
Ni 0.5233145090931824 5.9317974190705 1.384209278641253 -0.6353476161782026 -1.2500718996790987 -1.9737631346997169
Ni 6.167904291598801 7.312226684450836 1.616367105374611 0.7480786627260472 -2.083774211213237 0.3663778296078658
Ni 6.7127091512679895 0.7947454662322193 1.1991808801450463 -0.9131910510890853 2.469420916353044 -0.9678735302336298
Ni 2.5071982796988785 5.039649276981127 13.071980561388981 -0.6686994521657709 -0.6335555572747863 0.019462222489669705
Ni 5.957077999159479 1.4130005344369312 5.937210175160087 -0.03164822303290033 -0.4255790225583703 0.4166819771790566
Ni 3.6170361781091875 5.367851018048119 7.517201850712326 0.5613533240789236 -0.36128370291441003 0.29042949910600946
Ni 0.5961554575060614 9.067350925257252 12.505469881100412 0.030067251699025636 -0.23420127274089986 -0.21640075422436922
Ni 0.24006334832473905 6.434353432734998 5.249475305469095 0.3798236707001265 -0.5896295453157974 0.48956401005076333
Ni 3.134903381055881 0.536653219278264 0.17628328673581609 -0.2432209597410069 1.2728099647065627 -0.07776892865036285
Ni 8.963507366853548 8.738406184040693 8.175043966885909 -0.5935389076725326 -0.16334012695396383 0.7027639979496477
Ni 7.232549205911764 5.299253529239449 5.300789682048677 0.9877733544813504 1.6100715936747625 1.2898905743379334
Ni 1.6290556904288225 2.0173661435956958 4.814397636637984 -1.7295294174234794 0.6940245611941209 -0.9180275532457803
Ni 0.6449417760767446 3.5387796873561594 6.846105540620675 0.013547399667131508 2.0509443091674098 -0.06654477779976926
Ni 1.1172493249022288 6.958057088156516 12.773541548813224 0.37673191914868026 -2.832434714584683 -1.1852703298226812
Ni 3.180857940306532 7.575332324913988 0.5896189136902555 -0.6723411626834163 0.2402065983947153 0.5275829124966979
Ni 3.243511427918675 6.917052767402349 5.579844749472446 -1.7420100663889933 1.7012197718455089 -0.5203586268341167
Ni 7.838893052968748 2.64352023214048 0.04203523346169022 -0.44316099730619163 0.6635898988533474 1.5577254759728787
Ni 5.345681751085448 8.537805431159772 13.293603574751682 0.221826810335947 1.0640374164514126 -1.575263999077274
Ni 6.996442333383464 8.85479715747019 3.1572648993072536 -0.07606351592348191 0.10120247708295474 0.5963241837271537
Ni 9.004771737660064 1.747889276850017 12.038231450795342 1.5689010329737239 0.8043205159379115 -1.4929704430836803
Ni 1.8652461504739495 4.331282221886877 8.946933819767294 0.9034691958156312 -0.4854723564798929 -0.9049648065245511
Ni 7.463027852307103 4.95725984789614 0.9722054794549105 0.9566110699459331 1.8735567029814444 0.18397940047087025
Ni 7.980100231393746 7.3868703369766 11.09509399469182 -0.508662421443111 -0.5495519605686213 -0.14913015400216897
P 1.4268017622151177 5.818796383823398 7.348305842963569 -0.2710485234762364 0.2860182574121913 -1.3428920662356294
P 0.7694658148934269 7.534030804099993 10.61114920602376 0.6480542651115936 0.07308206469765478 -0.7872177948193539
P 5.195920783438573 3.1646233870385165 7.477373327694847 -1.2656124185168591 -0.31520799160227003 -0.7893800925779954
P 7.177316432293409 5.431108193281785 9.964752078404056 0.09079979369239202 0.4024516925122876 2.2238152584299447
P 5.294294003241097 4.645812760201858 2.4437581406783817 -0.4756913658337292 1.0774459765478348 -0.2373285055159719
P 0.9888960490647213 8.17556499574079 0.8108332769706948 0.7409099128917499 0.6118639312339657 1.9532498452377134
P 0.7666869943340505 2.3313672943041106 8.788954341716034 0.7055675288367139 -0.1879764374454053 -0.36001846304874124
P 5.542511778207322 1.677963675273997 13.020068069688998 0.019692850443237053 0.04691774759746113 0.8432986969733218
Ni 5.4797932780820915 7.4152529426900164 11.194555709713459 -0.5655776465729163 0.5659468569868769 0.3392164387017255
Ni 8.105518656640468 8.583434927844987 0.5693916633685111 1.221684092565025 -1.5010509060989696 -0.41413941326286097
Ni 7.316526797816449 7.409894054111272 6.545560122620899 0.03772296847207052 -1.0284726319729254 0.30767491645001854
Ni 5.785909339703237 3.783783986675512 0.2447219592625172 -1.1983230492415815 -0.24954767328998315 -1.2594949927652115
Ni 5.882703684187933 3.4164540002320054 9.5396111078232 0.247454023985748 -0.4231986952516517 -0.9969465363401864
Ni 5.902959725765474 6.998931383884509 4.524183635717922 -0.9039178533172755 1.3568349015689662 -1.4942084292558395
Ni 0.26070667873024034 8.66220223120084 2.7361472745362985 -0.514604755069475 0.7442186655500086 0.058307991712273764
Ni 3.165886487292779 5.501665344984937 1.7662868893034556 1.670440067460491 0.37282127124036435 0.9300410327668885
Ni 8.739409234242606 4.2521991434674575 8.990337102254372 -0.2951469591863369 -4.234562426553178 0.24203876650744768
Ni -0.07205151075396522 5.302383417369495 11.227831900161954 -1.0903873671998512 -0.07716086275271873 0.3454176824164309
Ni 2.296241962233383 7.1729698814184495 8.921433125884006 -0.17832091663351224 1.1817430333957133 -1.1193529011942658
Ni 8.953532589845627 1.5985090967797948 6.493470239635208 0.27243949028649206 -2.081214678016177 -0.12641471468252424
Ni 6.692926772285798 3.05760350299542 2.4085380760885844 0.8361610574872761 -0.8596036047809325 0.548023953959869
Ni 5.533809388955531 1.033596795562979 10.942755745276141 -1.5724895216559305 0.2649184993190986 -0.3773386994947437
Ni 3.279063985075403 9.081059278016742 11.259517141540192 -0.5966054624129984 -0.5589277453565665 0.40590442694757833
Ni 1.5385025472004796 6.644882525114493 3.1295621387306896 0.19493409971016104 0.16534738719197975 2.6607356741430626
Ni 3.760268031941752 3.179566977546661 12.333176505167764 0.22172679442297297 -1.001168544841334 -0.50160217216222
Ni 3.6517900101051315 2.107148424168864 9.679893251061989 -0.6750541907392051 0.15498481301073308 0.19055448258522667
Ni 7.298694794226868 3.212398296655604 6.96735666377852 -0.7203457155871529 0.61268051359799 1.4963362742321198
Ni 8.600087418697132 4.989896129465821 3.3618016954804992 -0.25433223916282005 -1.0341288018174384 -0.4710075872048146
Ni 5.8126201950801315 4.539610176323284 11.552790445576091 -0.4698256510815715 0.9956674125174465 0.3767596870628221
Ni 5.036937326435211 5.890598060777071 9.407566978742725 -1.78455616728132 0.34356700236093735 1.2488197724395524
Ni 4.470213962353829 2.37558509070515 1.385514172653928 -0.6620346385510857 -1.7159894739555155 -0.06874872742962354
Ni 0.8836389328764694 1.6994735296039298 0.4181010441637176 -0.48320798592574843 -0.007915912412967014 2.8576027292098787
P 1.938478102715537 1.4477822289384845 12.205168724399805 1.5387625617171306 0.9861934115887403 -1.8481040672362945
P 7.503939298042575 1.348721733997612 10.12583172457938 0.4846773713824234 0.2857380071676111 -1.0152653892540322
P 3.887163169985736 4.291290238836494 10.256122373306878 -0.9242089994661438 -0.7730391893261267 0.6120112554451073
P 7.40949469153088 0.11950321530599077 6.955802082702584 -0.9649746114192802 1.4663248154716941 -0.04679896263140972
P 1.053964287162954 3.975245837716772 2.884490040647689 1.3464934104336423 -0.031006218573527245 0.9352647430596731
P 8.458945252785222 1.5155066925714151 2.2766843407964346 1.197978778528285 -0.4179983819976349 -1.1869202067212785
P 5.206127747993235 6.58178323741261 6.51704099063 0.8616707717226063 -2.014921611215898 0.1861401555676149
P 5.412765377089378 1.1898868770241642 3.76430995275539 -0.3289464242342851 0.5330421358390561 -0.4618485464133659
