# total energy = -340896.6458250017 ev
CRYSTAL
PRIMVEC
9.04241033660481 0.00000000000000 0.00000000000000
0.00000000000000 9.04241033660481 0.00000000000000
0.00000000000000 0.00000000000000 13.23448154847153
PRIMCOORD
 96 1
Ni 6.415698595815632 1.969002921213518 11.276930005651646 0.5426025258339816 -0.015598368658889264 1.0139831801074988
Ni 4.827507740732327 0.47893306845704386 6.081641216229867 -0.3895182722800711 -0.656204919243186 -0.7255012916461634
Ni 2.8073247773879975 1.5249572800619682 4.934106002687716 -0.018640497919322735 -0.8412119896476222 -0.013261492995596516
Ni 3.515273162282964 4.3993496144259785 4.95443424521674 -0.8280829084648319 0.778506383088285 -0.4204879811887081
Ni 5.1758485115813135 4.525418898416751 2.7186142114296357 -0.43498771746677983 -0.43891276355279896 -0.8879752139450902
Ni 7.250719972241393 6.1021711045079225 2.7489207536921145 0.18931083998611267 -0.40953148217720436 -0.9170317649914143
Ni 4.968225729361248 4.655376418823823 11.32014006737007 0.45682795327032294 0.5551821622712052 -0.34979318577630725
Ni 5.660539786898586 7.945981855526902 12.282988572343184 -1.1552951236168296 -0.2685478685415698 0.730648897285374
Ni 1.8236100064747685 6.405571096312715 0.42975772868319345 0.3797851041527072 0.406309632805797 -0.9706027562393349
Ni 2.855249551821443 1.5680081953596352 0.4351723239531458 -0.38383227763888733 -0.0729941329695388 0.20378872188731356
Ni 0.6864283526922953 6.0584148812091604e-05 4.506235425027968 -0.021937680613355767 0.4282588833833786 0.09483308322150119
Ni 8.55478925421653 2.136721546910037 1.187577718942836 -0.43634474571530657 1.0667000508852404 0.01949436127918578
Ni 7.177530703512279 0.5737056662607232 4.889730374285426 -0.9226413978687078 0.4887381717153583 -0.844238949399404
Ni 0.7730257073704505 7.252510369474944 2.3917753879627797 -0.5690334663320006 0.6278299676449188 0.6064990673776264
Ni 7.7718431185383565 3.865051676364953 3.8048997547637895 0.08939520003538153 -0.04971356517504342 -0.3395738220411442
Ni 7.7436398409047875 3.924876262714326 12.45241621358082 -0.21578780323071872 -0.9864986015339848 0.4780143575399509
Ni 7.672457987255714 8.709902759996025 7.066498043560256 0.24057709436025662 0.34618412826881023 0.19621939418048787
Ni 6.670233402518852 0.7170757938219703 0.4445212719317758 0.0972378360082519 -0.41791250715204803 -0.5822075418201135
Ni 1.8754953566066763 6.35156982217752 9.195410564960723 -0.031926416394951466 0.7405106205708021 -0.34100052718534174
Ni 0.14713629143889434 4.7199482705651885 1.3472965242730774 -0.892217791271528 -0.016188179724088248 0.44999164707477984
Ni 6.405381205697036 2.1344247747013396 7.124002347434228 0.1291886778832356 -0.40542723020084365 -0.6795646770150491
Ni 3.418899153620386 4.444588793009097 0.44256811131335616 0.3073941519848061 -0.4358240973251462 0.598194404166673
Ni 5.899648241680398 5.524686614995175 4.692100359655248 0.2046137888917702 0.5279703777431035 1.3808783156714155
Ni 5.2592557039160495 3.0949367208605643 9.226775973465871 0.5467216902086777 -0.846212013965375 0.0776149195710018
P 0.1901537498185605 5.472656586298939 12.39321826626319 1.44193507377342 0.43140565654247637 0.21639252669425313
P 3.969030352064989 6.316223040430286 12.544713903693474 -0.06100147938403687 -0.4819664002091635 -0.214260825063231
P 2.279663968465491 8.480560108306312 1.348329167525964 0.7418334531472837 0.391355582599126 -0.11654707785982509
P 6.190388859106545 7.756859844720202 5.76148563819391 0.4036531690195564 -0.8606968378451112 -0.4041465637162072
P 4.693607729447335 1.145935611165307 12.583689404682243 0.5974012188414163 -1.0196984853247213 -0.0021211601080608627
P 3.8974235051332053 6.079212424831222 8.25028337563566 0.8849911916161017 1.105046768984239 0.29683925928709526
P 4.686916345847193 1.027398654929828 3.7869677509564377 0.3861871510243091 -1.162489841593056 0.040131835023879264
P 0.1389031768876392 5.741116704818668 3.769378454498336 0.8100263080734372 -1.222723589573133 0.07686261478600956
Ni 1.433294367150301 1.2612534693445017 2.4033822257859447 0.20117031042785996 -1.095013810228269 0.47129555075887863
Ni 1.967691771724301 6.5663361085112495 5.022445829824989 -0.8457119344005047 -0.7307075184374513 -1.072029947738586
Ni 6.236685999691307 5.722181897712322 9.205667370930506 -1.357825804727326 -0.4792173767091166 0.2685725511319181
Ni 8.730510413002406 2.4368029741455697 10.16622543338211 -0.7784994411097496 -1.2738479190527738 0.5946876765649952
Ni 2.4065470693806055 5.017045702411469 7.1173986752137095 -1.1595775530422674 0.749432091430148 -1.430314458815356
Ni 0.444230106321067 9.25183249232532 9.241400263596288 0.1906894655011942 -0.7791213909644646 0.23255448116609626
Ni 1.4266391531912412 1.0106611535192038 11.515613467150745 0.7901249411638199 0.7374381522930654 -0.9019833552987241
Ni 4.1636772755469424 6.62395434675463 1.6081619224066463 0.20410445335551944 1.006527495160402 -0.36304773679336827
Ni 5.627625413514107 7.748106791578396 7.922703074526627 -1.3130685551162935 0.22025586630440133 0.7388746276292759
Ni 5.136966147418328 2.8455470456012377 4.8367798282236585 1.4931169959638737 -0.39016156229102483 0.577650004356418
Ni 0.6293029258086553 7.565513400986967 7.0459979952360925 0.4871410024315675 -0.35180918776507153 0.11138635959449204
Ni 5.0500143302575715 4.623673728415586 7.130500223454582 0.8615280754971549 -0.03171687148730667 -0.45530457464726104
Ni 8.150394582100954 7.185252921883253 9.190209370573152 1.1124867702020518 0.19991098409946215 -0.781737488431073
Ni 4.729451843759444 0.5059572157913449 10.331219580864138 -1.300411014253283 -0.6670585741282383 0.7153320644226455
Ni 8.16954640705379 7.348387045572647 4.807557470952608 -0.38282131987586976 -0.5828734575388864 0.3886091302022404
Ni 7.1631984832335975 6.081093246167478 6.903687638158543 0.47329432635646235 -0.3976606988815474 0.07559454670686336
Ni 2.228339247770352 5.281599499694359 2.6568753468260065 0.16183166072923744 -0.2785471458461267 0.5607712263232084
Ni 2.409937973232029 5.087549375290258 11.456415519833115 -0.6228006327511274 0.881552855358514 -0.11817432905060292
Ni 1.2525185010232358 3.1769694668341906 3.8797672948391018 -0.6325957644646784 0.7345724007094961 0.03148932885753286
Ni 3.6136003315639615 2.62512925284847 2.85189843457521 -0.015214245846593153 0.7877428140848884 -0.7211106187776356
Ni 1.0792478354206538 3.328655899121181 8.347661996079285 -0.6628306520898197 -0.08543055896067867 -1.2755201645488743
Ni 3.7310431561567143 2.6962116399845675 7.126212312504328 -0.4397637986991845 -0.2946566498134796 -0.7305414251732322
Ni 4.126241697027232 6.8538124158297595 6.016938249539581 0.26699440801152086 0.5021228205523803 0.307727881175141
Ni 0.8905707111992597 7.29375280271852 11.24891209742862 -0.21700702034980046 0.1199509613350515 0.42380084761202497
P 0.21759475226632982 5.5923509710490364 7.937340928272449 -0.19489193361831597 -0.2396828646807614 0.6979429224119206
P 8.417932374773097 1.5312507976102094 7.9156364309002605 0.3825271856742186 1.428837102938881 -0.10964058054797891
P 1.718564326362818 3.230871274456411 10.552222417561405 0.9865672499883912 -0.8325928805200437 -0.7331356682629696
P 3.940203148122758 6.28590383879343 3.7527955783033367 -0.39776997076590204 -0.7269956168035028 0.7553679972986088
P 6.885252876340154 3.92868311743819 10.423305678576464 0.3627556594742462 0.7880001815113332 -0.44657156564963735
P 6.287224030692917 7.798635780169733 10.167668602061275 -0.6920085592053566 -0.3177328149066528 -0.441432187540543
P 2.28924892335218 8.484267496517202 5.910849979523445 0.589648571479191 0.840562014768449 -0.17055927041022237
P 6.957791091529795 3.9127413481313664 1.593259126039899 0.5769434652076967 0.30281810257834946 -0.34306255192069307
Ni 5.424912660070902 2.9879288377199233 0.3053034191667246 -0.18256477951153074 0.07101155532187126 0.34601572101174605
Ni 1.4345964742292472 1.2129579560899673 7.0722689097948646 -0.1311195763573613 -0.30157728819271284 -0.29385035186210035
Ni 6.770441393136105 0.7379917930185746 9.180257293829483 0.615645766873901 -0.24299984486913634 -0.10449220357782005
Ni 2.7519219296608806 1.735808202748588 9.213766657809758 0.11810593770651272 -1.3000166070283417 0.6982931066624878
Ni 6.413962453043704 1.9745730459401223 2.6838072615755486 -0.11569244316901364 -0.05542655639942068 -0.2227657772104486
Ni 3.988489618967022 7.077114737458804 10.274775047473865 0.7062804957433385 -0.2952189500748528 0.239538111572781
Ni 8.21108723983629 7.009812077815759 0.43616337211878836 -0.21960794830775723 -0.2618185202375362 -0.22173913571814716
Ni 7.665196931808533 3.839986115095234 8.310473275359959 0.11636298687347701 0.24615124601392446 -0.8360818675099084
Ni 2.9805773581700388 8.373552225165671 12.425921047247341 0.8674896923972287 -0.22216002530564966 -0.1635797537685957
Ni 0.1428420508014522 4.724849256931779 10.099629890222216 -0.5614176016579557 1.8050476023664528 0.7692660954369396
Ni 8.684222314827915 2.364906770085131 5.670644680375827 0.04234838305922384 -0.08058917170797734 0.502261917233406
Ni 3.583923141056307 2.8403476596957224 11.730051513991658 -0.15406590074088952 -0.6302822858401532 -0.9675171753354757
Ni 1.236314501818569 3.196284055171896 12.791907177498105 -0.6785814871661733 0.3934296915193353 -0.2646205084627056
Ni 3.1126417601701277 8.512172374611845 7.9431371132558155 0.17440975450456414 -0.5403528105678566 0.7017743803428689
Ni 5.585008533909423 7.907045236902295 3.554529882231145 -0.33783138542874075 0.40555167159384997 0.2191747174250806
Ni 2.9086992389301405 8.423131760678611 3.5087391166215287 0.6886069897229753 -0.2408144071820433 0.12157949807740998
Ni 3.246442304942146 4.112352554851803 9.077861944167804 0.05439657247300954 0.9180632915797221 1.6820627393010839
Ni 7.492884761694621 6.215526759658427 11.31069074863744 -0.8681581792191629 -1.0459342790927988 0.6055760413427248
Ni 0.42242975940001154 -0.04452934937688733 0.2608355581796764 0.31936392275217257 -0.31213192378010757 0.5000104021950679
Ni 4.4927125004684925 0.3077964116782908 1.672904675702123 0.29527371457218826 -0.6899048825987925 -0.1595210103181898
Ni 5.948070348678719 5.492034471508538 0.2111411840563015 0.28171268805830196 0.8058690913719541 0.5808944794356448
Ni 7.819035457739894 8.594666283509264 11.43047646173127 1.1495944736876267 1.4664371726798424 0.21179822245535135
Ni 0.04614432385119174 4.882277619740512 5.886604564865257 0.21435647010083084 -0.35285305564855357 -0.553598105613537
Ni 7.891410909544668 8.761968958333343 2.4822591705751793 0.08383544655941691 -0.009992849546653759 -0.007886601836928353
P 8.543522411019534 1.6063570573166621 3.3996469579135464 -0.2981271248605833 0.4621059138398106 1.1977368377208082
P 1.8708113880865773 3.291364999165798 1.707724284930589 0.07229273602714001 0.20959890081118743 -1.0139757239083311
P 4.7308172477102834 1.0782170006498213 8.17229258705293 0.1784993511929055 0.13286329852134537 0.7030735587702664
P 8.550448897286708 1.5071889438805117 12.269820110266313 -1.66867423380932 0.5943904570395505 0.3599834960457478
P 6.332607887840362 7.584402996041962 1.3696493624616581 -0.7418213689624257 0.6708039001032835 -0.40040046641021365
P 1.8548696187797538 3.2052541261601935 6.003570854436758 -0.43279482358051913 0.00796939135872176 0.2970891705143722
P 6.905037670011923 3.824170939532197 5.897986246672688 0.04543139285992175 1.4492966563448137 -0.005827919535686737
P 2.357410611970918 8.598798665002866 10.129288091668302 0.14988914365538059 -0.08706012414430168 -0.04983620679583675
