# total energy = -340875.65467001306 ev
CRYSTAL
PRIMVEC
9.23264919504552 0.00000000000000 0.00000000000000
0.00000000000000 9.23264919504552 0.00000000000000
0.00000000000000 0.00000000000000 13.51291534743183
PRIMCOORD
 96 1
Ni 3.037643062927554 5.6909217175139375 11.495139116794736 -0.0378774917720638 0.7736680811593772 -0.8740904855431979
Ni 2.270973126960546 1.630347314427366 6.694149661553694 -0.39256451530556263 1.6644146872020174 1.1325904829304625
Ni 7.97045351004899 8.470041377257298 4.7299663799460605 0.38771412919179676 -0.3181259365800134 0.5153120655491448
Ni 1.9781504329356951 8.62477134097159 9.031478759766165 1.0448366751532459 -0.2144595713375984 0.8760992884431106
Ni 8.644547675017536 3.8321494354718393 12.010481576167377 -0.9518123630057091 -0.5357983584279546 1.6729870022520608
Ni 5.803541569377827 1.5742959026659562 9.450256943794944 1.608524303792301 0.18357727993644515 -0.7517144597064215
Ni 3.138445124138404 6.5512107138104945 2.5617923361637494 -0.7034047168574402 -0.8841000472604 -0.5569698502992473
Ni 5.2005849645512106 5.168390717670626 10.409390679725442 -0.6463681356584223 -0.04119678595328389 -1.654664292683473
Ni 6.8317909153307115 8.491174910698554 0.16820870791302056 -1.1585881925458046 0.9786449098175212 -0.794905907492231
Ni 6.0133258187671785 0.41053527504828546 3.6783639717448953 0.19717584455648623 0.2208899003439744 0.6102757608112392
Ni 8.756742825029832 6.199649907180456 11.157208469806168 0.13656183041885514 -0.5091270197843554 -1.0933073690601236
Ni 6.401928012975338 6.288329500322993 0.9712903647999175 -0.27343090766548395 -0.8965503572086108 1.1020192950118246
Ni 5.516009183200001 5.318984454656353 7.656876744454632 -1.7186366817703753 0.7869072055574705 -0.08995390075232895
Ni 9.149758225434987 6.267962276744395 4.559406116346064 -0.7685952946221603 0.39516724303573236 -1.2750267698522235
Ni 0.41883911951183544 0.3351423870063655 6.159010556307421 -0.9136211966479685 -1.0984452045073212 0.09187245793128047
Ni 8.94522735329687 7.0470962887907795 0.41563262053230365 0.3969503030780841 -0.09057585060704401 0.1640718629136658
Ni 7.644725655174581 1.472939882518245 5.587428339134837 -1.446475899066567 0.3464278688485002 0.7040546917366133
Ni 4.401259149256234 3.2050586862959682 8.147490476885789 -1.0849659390739637 0.7261733780125235 -0.10369259049466013
Ni 5.3982098152764575 3.560894209388785 5.605940723539844 0.17961700973711647 0.0512845092065891 0.12320057862060073
Ni 4.0292018619623295 0.7534127753430234 8.051454309061734 0.3147847880219224 -0.5643103498247185 0.518815707827029
Ni 2.086384776549434 1.6494496651001311 0.25125915499215234 0.9804158856750147 -0.9166239880300343 -0.6296330822919285
Ni 2.3428031357735537 1.9974189712895187 9.145811268009851 -0.641994689181075 -0.6567055130286884 1.8285870802492894
Ni 1.0170039795346018 5.729781936934753 2.3035597614214085 0.7824622824122395 0.7697682318843387 -1.2048297400118475
Ni 1.8999591289977311 3.9718209487524527 7.869232286575914 0.4781580822066668 0.262004153885781 1.5101983769261924
P 4.403419589109991 5.670212885924275 4.082156643266685 0.5807669527188449 -0.547367808433109 -0.052776520371083296
P 9.260716200488293 5.246951327566497 8.404789630819518 -1.249874438956312 -0.5712423010578613 -1.421658582912571
P 4.323234032999327 7.71343502864327 0.29879344809932057 0.829842828578732 0.3736802768065499 0.9676390456253207
P 7.624275337755453 5.609582080284812 12.853349487164543 1.0641238055176319 -0.6245898634410663 0.24812765301400494
P 0.8965945417535479 2.2740660643580215 11.532840638772615 0.3705946959026908 -0.023150984195166584 1.061019455560695
P 7.355475996292484 7.412367579108134 6.618869411828936 0.17077755706861555 0.022614652075722344 -0.007994331059386232
P 1.5134065828559584 5.293945510710225 0.17190546055167458 0.16785112745043998 0.0985840656235012 0.1566251768276335
P 4.035886299800455 0.58739128196571 10.344001366818341 -0.6061154587859626 1.4102387711114035 -0.5066621031836306
Ni 2.648311489452527 3.7763750031788597 1.4907856696692297 -1.1691837086734638 0.33644787481765287 0.910187231265755
Ni 0.9904693464589484 4.209617055049088 10.378080920614044 1.8533640300836531 0.06770743064930275 -0.14744016789425576
Ni 9.793255391790899 7.22598809480117 7.003419396413956 -1.2244020057168203 -0.9509664700656459 0.6851488559710458
Ni 3.795163443787404 7.675156466106158 4.729777110642633 -0.5679996257508476 1.3350753984046877 -0.6658085037712211
Ni 2.625525311849635 8.497970140324052 6.734161192298287 0.6418661340230107 -0.5756052060122474 0.23148335958910457
Ni 4.395036343865492 0.8543376307848779 13.010653513405451 -2.0804688009890877 -1.359571326663523 -0.6040318367840565
Ni 4.247424752489867 8.20706783728032 11.675401971173857 -1.514577994051127 -1.6058069048611376 -0.3784828404015159
Ni 7.121428345468611 6.216157883498921 9.07004445768555 0.7575266955128245 -0.754180661858727 -0.27882045411217143
Ni 8.171291322608033 3.828142465828543 9.577346203089652 -2.25338705854979 0.25643154489401 0.13005796786206633
Ni 4.836449290054423 4.329936936135349 2.170890289102721 0.45873391204378416 0.1706968244293512 -0.10122793100425148
Ni 6.578603983238282 5.121054926515833 3.4986966232229 0.24282989495017532 -0.07699811192260933 0.8745679394002487
Ni 1.8008374098953601 0.8920142246106003 4.313889668999374 1.1846306393561534 -0.8729286040246127 -1.2955853107298654
Ni 2.4756794194286695 3.620924892846648 12.389099583803507 0.30223471927105366 -0.3782028472672519 0.40977676541879104
Ni 5.048809448500179 7.744502892352238 2.485606363577223 0.3583256487273506 0.8266528608865247 -0.4236720353436445
Ni 2.054162831722005 0.47835185136373315 11.561204259604807 0.17674894416070205 -0.41404299689431273 -0.722515212434646
Ni 1.624530745590323 6.251417369830139 9.16689125208721 2.2000302401952045 0.4080687815887488 0.13046445927186562
Ni 8.878502999351934 2.5983351606986957 7.71852314147834 1.7702186676127254 -0.5074102942035648 -0.6932120925951545
Ni 2.096836135158216 7.7513442852224745 13.088947299746733 0.08162764027482071 -1.0964302309598213 0.07999061889202998
Ni 4.679494257943738 2.592721710138502 11.17877501448307 -0.74946782976409 0.7668567146644986 0.5673817896611906
Ni 6.705312857396343 2.812874224296106 3.3205148079165876 -0.2455637489415706 -1.1435539239205015 1.431040024127471
Ni 6.049739386216857 6.823361506841473 12.16816414101514 -0.6603279402726241 0.3722458583528686 -1.6636824370216832
Ni 6.123877557266787 7.069513160435766 4.705007760045778 0.13138979929961242 0.2161924948683051 0.3656939161669638
Ni 8.356886031754442 0.93349466980277 13.177767229153275 1.3812868639637437 1.3556923033240909 0.1428641184877991
Ni 8.841240028199067 8.41346370450587 11.676293845062203 0.4017089008089921 0.6742064980269292 -0.14133302655525337
P 0.5798315890073437 0.7128186644498319 8.249918407576327 -0.32559910502860695 0.2347404330738215 -0.3256387000172908
P 3.1305235113412886 4.032664105317712 10.000570830851638 1.4394205348816822 -0.1399698276591396 -0.34255990125266167
P 0.7840273159886598 9.157190507837875 0.7158995994036751 -0.6821887449014574 -0.48180082116557665 0.39403852874792783
P 1.4533389688023046 7.710554442171591 5.100355327575117 0.038162884222966535 0.2677821940201388 -1.2925863760025416
P 3.8491098115887405 0.3739961435729181 3.4674274877668725 -0.07782137915485306 0.3534672921937848 -0.310953072980658
P 7.050456973007738 1.1303532106653589 1.7473009717073003 0.25665008866271927 0.17458330396795094 0.33464064640558494
P 1.8594647307131746 7.41821184589202 10.983189655910367 -1.3599616201234062 0.9707410815894121 -0.5384291111825824
P 7.93675434138993 3.6227252593914474 5.2387001092019485 0.09364549067130325 -2.156142023452687 -2.2436634035041227
Ni 0.6847874189797584 4.8277429020967535 6.085324785055929 -0.400801044282742 0.47965060759179323 0.9444124709972123
Ni 0.6035548804784261 2.6027945301404287 5.426259526044427 -0.07919100580887008 0.7495328786740705 -1.6593259598252004
Ni 7.2511562958325655 3.6503308797450327 1.3163236886239404 -0.31645523374580986 0.7833601116361605 -1.742762885394618
Ni 3.769164304350716 5.605538180045724 0.25300504890816 0.2990090132449044 0.2887667666916059 0.15719750439133573
Ni 8.773749364391474 1.404258206996399 10.057432869190654 -0.6142242039360261 -0.4212559697029842 0.2105268119420955
Ni 3.9154279289799785 2.810039801069166 3.8745042125193545 -0.4485806256598661 -1.2445100893206051 -0.29740978707858456
Ni 5.298257157768795 8.241801062621521 6.824454652476879 0.015175422188857732 0.04099444013449069 -0.5214847700187599
Ni 5.165547061794737 8.193911312529865 9.336748911102289 0.9276514494887894 -0.9563274772672434 0.24121909881962972
Ni 8.931433775769024 4.049209012231968 2.9127631765260302 -1.014683034388001 -1.5946771134965634 2.584422246992304
Ni 4.16461712407806 0.9917434520137293 5.6516146378840535 0.873137120490993 -0.24299316000091697 -1.6356332441939507
Ni 0.4604746732063262 8.215229498950075 2.9010875686667847 1.688419020536415 -0.4287160255254552 -0.2534138411136087
Ni 6.247825869389489 1.8845036746593025 13.42549951224741 1.3155617538517923 2.182404042473009 -1.098857095233759
Ni 5.920528464193974 4.396015004653947 12.416936943645679 -0.26848024852842794 -1.246465927495395 1.4773803019549072
Ni 2.3846178028576293 4.580871101884543 4.0889814173688155 -0.7698553922815065 0.5921070603220124 -0.4369461267447313
Ni 8.688273500433784 1.101741231576476 3.481075189441344 -0.083367762894379 1.0464713825431913 -1.1885595420969144
Ni 6.3586361220596315 0.24035816637961793 11.439020306696008 0.764104091620026 -0.06344634138010363 -0.2831967288029961
Ni 7.291235224914476 9.337531839733051 7.965025635732644 0.9526137758610819 -0.3432888089988862 0.07725727912126695
Ni 3.0771495677747076 5.93072130863222 6.163483774722575 -0.14662692796434101 -0.6339592204711082 0.007312217390697083
Ni 2.7364740542539936 8.807180786231049 1.6101582809734583 1.1309838005649748 0.540125782158715 1.061203032326411
Ni 0.3947566779966878 2.9681489142983115 0.9025182093183842 -1.0127945591160363 0.7392309825274301 0.19449984038621987
Ni 7.376323317616362 5.185914285373336 6.2453718312991935 -0.3108404586621937 2.7499516682881024 1.4581983297098176
Ni 7.478270227296726 8.223926654258797 2.2969251798876007 0.019478934660218068 -0.40771139824933006 1.4522516252080795
Ni 4.697165548029612 1.5592374522322783 1.6626292714729547 0.06882637474509437 -0.28528420745964417 2.4277119666500315
Ni 6.710778585573374 3.166503144290426 7.679781099964055 0.33671321266389753 1.6805607008342605 0.29069612250383486
P 1.4580106891698346 2.7114720409036566 3.0222577767211276 -0.016122873703791587 -0.4184637516698277 0.139228835728057
P 7.023986968474719 2.636927633300029 11.140331187529796 -1.4154514256605946 -0.6978912432383786 0.27137196825392623
P 2.878333705335209 3.7045080637700614 6.0127469316781585 0.718528459872756 -1.0824868814058517 -0.2789667498820486
P 7.426604323785468 8.063103142239031 9.97080200084961 0.03740723700386461 1.2221535760022757 0.9974090777989016
P 4.285924898601723 3.143227636293306 0.2851032762396898 0.5564157775679901 -0.08337007688722417 -1.7885755728533586
P 3.899261560672578 6.944595420173556 7.9136228627163945 -0.3200889738436552 0.06846487764061757 0.7484026217243691
P 8.136659656405257 6.013639728831399 2.378218653871987 0.02267558722064482 1.3025820537626727 -0.21259526443535
P 5.807557771670071 1.5158532348270954 6.927084778179371 -0.4654216084766049 -1.1611631523618324 -0.12628358842129864
