# total energy = -381161.8799591948 ev
CRYSTAL
PRIMVEC
9.38603788504082 0.00000000000000 0.00000000000000

0.00000000000000 9.38603788504082 0.00000000000000

0.00000000000000 0.00000000000000 13.73741520001508

PRIMCOORD
 96 1
Ni 6.813963119233346 2.877346216334188 13.537933846252578 -0.757448019756089 -0.2265481270710163 -1.957077960734552
Ni 1.3980127922406085 3.5341905304734738 5.37839021936508 -0.9359260307927558 -0.5519412867364042 -1.9523440455939924
Ni 5.2055529027526415 4.137966186660693 6.086884022534898 0.52965882118912 -0.7097869662347002 -1.4236051651159805
Ni 0.7206083622109798 1.3735903217787628 8.773056358730797 -1.56828165422217 1.151718976229797 0.5929984617880303
Ni 4.8967898019406215 5.802795876602642 10.582329662212882 1.1923580899073982 -1.7241457845140629 -0.7508487692720166
Ni 4.362893197478399 7.031062174491798 8.567284373938662 -3.051243821140229 -0.6365773748202457 0.5160972804546015
Ni 6.6264113110978355 2.117095923302453 6.9416808133411205 -1.8267651965492024 -0.3224916697478769 -0.6690285533704154
Ni 8.78015971216874 5.178821466981951 4.613546399414041 0.0238922332365653 -0.09553370883295159 0.16110815229965156
Ni 8.576632867628131 5.037721160120719 0.2991292715721892 0.05472593078797027 -0.1748789808314988 -0.03832152128801787
Ni 1.380920817332453 6.093537784760263 1.2154599878591246 -0.820295036989297 0.7478176957551766 0.37946783002260454
Ni 3.761360804335138 7.65628492714532 2.0517925650248623 -1.2292709037733474 0.4150017612631562 0.2189402328167713
Ni 7.248837024474789 9.363980651906349 12.988602841164889 -0.7894798513806534 2.064775044402915 0.12785453245284434
Ni 7.760620123784011 6.42730529038026 2.1038578555317433 0.4899417051051561 -0.19123891024676098 0.583398476804421
Ni 2.8639992705245247 7.747554759109573 6.518238163586028 -0.2985421009108149 0.22368520370092443 -0.2303749570162742
Ni 4.822058168651915 3.4075353358492824 8.273344642688668 1.2077641400498231 0.030293765887534928 0.965274402047886
Ni 2.8925328255606546 2.1742099635639174 9.126781396611756 0.12410483560242498 -1.9489741006804948 -0.5114050171852548
Ni 4.7996443102880075 4.7399772677338365 12.944285724895616 -3.0618498787908495 -2.1413121575287057 -0.026348408086541722
Ni 1.4852466279333039 4.549694122586644 13.180156855835731 -0.155254521732352 -0.8605680255767307 -0.7424453756996697
Ni 5.072627834850775 6.735730493830009 5.813715593026666 -0.6307232300323138 -0.18154148045333895 0.7800806695539404
Ni 5.8942440432858705 8.379516686932812 7.609799636134813 0.12398913596016713 0.30461941745314636 1.8708699001779003
Ni 0.46074464134212845 6.919865784191457 12.710557426394562 1.1675454017390925 -1.3423693609629397 0.2037961780864813
Ni 0.15750428519565465 0.6614875870591453 12.389664748880834 0.5644085659654796 -0.8481832787591327 -0.6800714414481385
Ni 2.241639259412457 5.268551988740308 10.754500570138621 -0.2975655959301585 0.15039693652973452 0.7975420595634974
Ni 8.842248352485845 4.678320385157409 11.53841212596331 0.4828937971194393 0.3578798194391837 -0.015527406211637772
P 8.477403675574852 8.605072562285853 1.079889934493711 1.8850593043044053 1.857816409428052 2.012415814074908
Ni 5.9597304293013575 5.812397793313814 7.921323170675821 1.644333085960794 -1.1887503179514818 -0.6838553339706029
P 1.1687682040161202 7.610180709271152 2.723264080535301 0.3421996896997655 0.44072179173707965 0.09279419841460147
Ni 3.2103440668512366 6.22566503944566 13.506063554764031 0.12358033055752266 2.0566300466982774 -0.38888783778492375
P 1.4024336160636404 2.5668091543702514 3.32479835088613 1.1621640828225213 -0.34298387616395765 0.24689249505532318
P 4.002337939860666 8.587689620204632 0.21255621294348837 0.36524680132721615 -0.7260677056725947 -1.4815647723499
P 7.758846162632094 0.20416134069864797 4.97107559843189 0.6435381224087949 -0.8385514120963234 -0.35855062025396317
Ni 0.27535443772136103 3.2345600444805838 1.5404308988146933 1.8793062038707118 0.8888679009626885 0.2953220513116204
Ni 8.241532544634737 0.49038011722077235 7.177579163790974 -0.5203275164858652 0.16150204530396056 0.16349413603332488
Ni 7.679918970428535 2.9705871162450164 4.7160269149753855 -1.5659172677550517 2.0088373526950303 0.5207604902582257
Ni 3.043572946495328 3.1472980506743657 6.7324322401327406 1.0920372440984485 -0.33254931109419505 0.5735048718397929
Ni 7.676061308875953 7.329688354435719 6.194667649476311 -2.3746274281202266 0.767333140080285 -1.138862174871787
Ni 8.865253531233725 7.490574429065425 4.097431643641275 -0.543666962542754 0.14876120069852444 -0.19010891040737582
Ni 5.27668968354831 3.4604538171958947 3.351860175188818 0.765563963995004 0.2509846628468258 -1.1144806607036288
Ni 7.880967900979162 7.888786470500577 8.79826444055992 -0.4702707090387901 -0.9512528909578134 -0.14428799541851925
Ni 0.20128170428908063 6.40542643617328 9.808047242609103 -1.3973110073061419 1.1952950610485351 2.7318079074995403
Ni 0.16140042950338415 8.069833754412391 7.146684081634091 3.6795514997525145 -0.20558900832084595 -0.07274242197004892
Ni 1.7173915018506094 2.7982125312981307 11.323710264769408 -0.3406472576109811 -0.23511272881157574 -0.07908353369672833
Ni 4.860371975118193 0.5300652238155954 3.2833937221588663 -0.45636978268698175 -0.5054629406692069 -0.0427391907397393
Ni 7.020136826445069 1.3854824317230974 3.254929623802758 0.04244557075872045 -1.7522517987216595 -0.46201386834663655
Ni 6.670591391214634 5.3727933250005915 12.617348439012392 3.653263769700579 1.113569204632953 -1.1256544179322614
Ni 1.3484545124410139 0.5418700436080102 2.283295433953855 -1.1687095972505226 -0.38102977519308573 1.407670496163595
Ni 7.796596806827922 2.708866837091248 8.970655920374918 -0.2726755175566981 -0.6520716138011028 0.3666251697319815
Ni 1.2599441756019651 8.709454689113748 4.7260558964083135 0.3707425343344647 0.5370841671189137 -0.13288823822200985
Ni -0.006207925427926487 1.6085791651618404 4.7027569346760165 1.3055125971459063 -1.3362097691194472 -0.08905247198398211
Ni 3.7297955590764187 2.5046266536747375 13.261852929202336 1.7332220357837183 0.47531984142692335 -0.8970774333566743
Ni 6.4199654087887295 7.570524699393634 4.28427386731602 1.2124708014968733 -0.060806075543779155 -2.733390935715944
Ni 1.7579204132473234 1.8496970912549815 13.798134525879917 -2.231590017279357 0.7272195598888509 0.9931965823794507
Ni 3.3825215450034642 7.3359112975241905 11.04448314783492 -1.2686344931726345 1.667319519553638 -0.36419290614140504
Ni 7.948641233811564 7.613691087423622 11.586740834805756 -0.23107018331108595 -0.329975893940064 -4.861386578641402
Ni 5.828006774243117 9.322616383141801 5.710190411453638 -0.5262382255433453 1.1847908190831016 -2.2607638106298356
Ni 3.0227641006022026 4.306332933449543 1.30569360124575 0.5845703856253351 -0.17137071056792422 0.04209487228752105
P 1.266448699825662 8.03520866081756 11.109350993956696 -0.5176990777240826 0.5584942573635736 -0.18342558484992927
Ni 1.5363817620901583 4.6912918894534394 3.0915778370322653 -0.33110229423502335 0.1098498683453076 0.6093388508192666
P 8.483194860922646 6.105289104136985 7.536950842036978 1.492456222451423 -1.9130102809913765 1.499010478630173
Ni 7.497445008764915 4.158174326132006 6.789182102125981 0.28642526304262284 2.6866552222223024 0.4781575679860345
P 7.057765452148966 4.79020195622013 3.252538999964698 -0.2338022375302683 0.2387539251085888 1.0728074493345587
P 3.919740806861342 1.2185329766482131 10.828531066400618 0.5714287060370546 0.9391604785696536 0.47685067624915295
P 3.6343301681973132 5.413397324700032 6.640528850614231 -2.066440862141112 0.13266172403350054 1.4332102923059125
Ni 8.700228213916212 0.0759077038301631 10.198066211612993 0.2324884038148512 0.6009945926196294 0.44835693968483425
Ni 7.715829951207559 7.346892961797964 -0.16523931898028457 -2.0361059586029966 -4.456817068455163 2.1532487610652917
Ni 2.619098771181528 4.290911673277056 8.678282718840562 -0.04482358407259377 2.3859443957949424 -0.25540233229854725
Ni 3.988268269137259 3.458285642454663 10.718494790377404 0.6586973466477366 0.29955768665952276 0.8344474172302789
Ni -0.1821623452073052 2.772588647992659 6.995655223944826 1.0372704327702136 -0.6166299851640412 -0.36183751853535107
Ni 1.7473329625628644 6.762255436768202 8.49393999704283 2.679123432621631 0.41379514254956473 -1.1431222356997215
Ni 7.7216211365553535 5.1617013339602735 9.401516355835623 -2.061308426010553 0.43844713677029 -0.05325500266939861
Ni 2.105175655244596 6.526243515260473 4.438202072094317 1.0228205758934708 0.13999116781537826 -0.4682495648437033
Ni 5.368588380047899 7.338989917935983 12.306306408212619 0.11939020373557502 0.9920511559210978 1.629029108613872
Ni 4.036230922503912 9.246373597760721 9.134941617910576 -0.6278703339645509 0.4585274524599329 0.5104210560054306
Ni 1.2307629839548175 8.904027253554203 0.2948501769205538 0.48508411990253886 -1.979873875583145 0.5463900179008719
Ni 4.606883251150834 5.86547583730372 3.198619966984253 0.6354052088890153 -0.6348827607266421 1.0181015731512464
Ni 0.3011472697079682 4.1880219264658525 9.204067909400736 1.5759345427817375 -1.5946717141799247 -0.14690357866449538
Ni 6.274556910558554 0.8375537006888298 11.128487247906586 -0.5739686988500889 1.5004834636312738 -1.14666213053218
Ni 3.751937222342942 2.3877610965185343 4.544295273620596 -1.0186085946946521 -0.7538374195866953 0.6555274335601872
Ni 6.572723174648275 8.421753857216556 2.0023243911885396 -0.9366973617411417 0.8741172250160751 -0.37406028585378803
Ni 4.012793986015354 0.5793588173480785 6.906485048645567 0.3179667852943298 1.2926727650687608 0.30482227749257185
Ni 6.50308815990714 3.7980038960657474 10.859783756599237 -0.70763520999902 -0.4496422341551611 0.11528055244257567
Ni 3.173569570590856 1.8677276699472203 2.1498231600458673 1.2228909683889326 1.108242393103401 -0.3859596083945353
Ni 1.2035153161028815 5.568107386430471 6.358870749878967 -0.16751354160536314 0.6641532275559852 1.499961786799849
Ni 8.564571809002661 1.3411427889630054 0.859059929193529 -0.41206916099739355 -0.742535878530947 0.02008365812375251
Ni 5.564794115072656 6.180696532150232 0.9991165086468605 -0.03722263179688428 0.21200931002489296 -0.19481300075126448
Ni 5.90945881062586 8.162342543371635 10.13001086704047 0.09999200171462135 -0.7434882151418873 0.00755544374975473
Ni 2.884714256039241 0.325571617377382 12.489426129279689 -0.0952593721256424 -0.7894281722071114 -0.9969912735351926
Ni 5.340646145395741 0.7910421287723695 0.6559432545065657 0.13519400353705105 0.645085926511889 0.4997612622987393
P 9.153357962758072 2.9759653159278128 13.120247653505267 0.8979966027368341 0.4960565597536425 0.37987072188797805
Ni 2.0811567844099064 1.107223953893783 5.822095447610961 -0.8104127448785785 0.61381616986433 0.7406697718564857
P 6.4569745559951315 0.8783595002018484 8.760253803115901 0.38652473686938593 -0.7102201971173768 0.39607021446597596
Ni 8.407609098190424 2.3034463185943377 11.326484777555159 -0.9141559861055158 -0.025919290968923103 -1.3837175848924235
P 2.0716299560014613 9.518568695144856 7.93059563745878 1.015067157200297 -1.3558249722472135 -1.151534885243449
P 4.249847757723415 8.001174887606702 4.176105412823131 -0.41312022796972725 -0.31024833360414955 0.5440279454265985
P 5.010961566236506 3.4749740177356627 1.0703743693306753 0.4521958538149503 -0.6260872739221992 0.1100828102917201
Ni 7.469333825431622 3.173597728704378 1.905874404939931 -0.9739243644134 0.9394828949060788 1.237825735321894
