# total energy = -381174.8274753722 ev
CRYSTAL
PRIMVEC
9.22007289796598 0.00000000000000 0.00000000000000
0.00000000000000 9.22007289796598 0.00000000000000
0.00000000000000 0.00000000000000 13.49450866542378
PRIMCOORD
 96 1
Ni 4.15873238994886 1.0773286557557988 2.4427762962999386 0.5270059569473053 -0.20840693738561528 -1.3061785128646795
Ni 9.127918421182748 2.616592191456322 6.545281914759869 -0.3604648065575405 0.5944853307462019 -0.07628025991997832
Ni 5.001124364283699 4.692371778013784 11.17237373155562 -1.0676536730477613 -0.348560856031103 -0.24185056175604155
Ni 2.559870302044535 3.8612190727285176 12.155596789705706 -0.008885732525404052 0.31294593504097074 0.43380886666733026
Ni 5.890806093298813 0.1473570515209791 12.12913425804108 -1.9992319683947826 -1.9270456760385197 1.4411547439639696
Ni 2.282899307582557 1.512838806335409 13.098215568145035 -0.44061843338999596 0.6383964303068554 0.06968692297317676
Ni 2.987764672283746 2.951723406726094 3.727628512280481 -0.07248993963961063 0.48193528986091194 -1.1190600525441954
Ni 5.4123211822269495 6.024598573346673 4.9402045756116415 -1.2108255525839664 2.9277457658838677 0.18535005556615175
Ni 8.08882540837082 7.968687856511979 12.239114977426576 0.40738923902322094 0.10462204428746497 -1.3727250904366617
Ni 5.4838228487400205 3.92594398554886 4.799106109677905 0.206280892181548 -3.049900162628141 -0.8550771776654887
Ni 5.934933362922481 2.0149824248569868 0.6163711035545153 -0.7257738285812597 -1.699990527424098 0.25030589161224637
Ni 9.005060947773766 8.862656919495961 3.5226201879841406 1.6079172663359211 -0.5359420830946705 -2.320925567721396
Ni 6.766261249595724 3.8086001158245733 8.782833215046761 -0.48871426045595834 0.25134076063466393 0.8481043458920814
Ni 8.757843129048434 3.899067472604231 2.6595918461458132 -0.48557828593013785 1.7284084164451587 0.5842014323216906
Ni 0.11715670224134507 5.112355325574954 8.36270952237521 -0.07854000248843247 -1.200243920413378 -0.9149275741642179
Ni 3.9279908417662557 8.072561199508272 4.4458196485627575 0.6144949410989095 -0.3693762501145574 0.740808354316879
Ni 6.581850568496056 2.4342283665740503 6.427704777187382 1.158828847801701 -0.3629299802685814 0.6949979808509837
Ni 5.590443773505609 2.2915661762508086 10.499146125522769 0.9752986190531076 -1.1588375895524492 1.3101575521170856
Ni 3.6953960589003336 5.6827735850416365 0.8751186236305373 0.16919298619031506 0.3791096753522374 -0.4077602492093946
Ni 5.423145547989212 6.013018161594203 8.761620592977563 -0.08439311883509983 -0.8745851657914293 0.19924738237353426
Ni 0.473924662940675 6.960518968714212 9.971308929429046 0.042998615048713044 0.34778952508271715 0.4118663009579681
Ni 7.022689921299335 7.056435388667206 6.899890534350576 -2.5295639043915275 0.34528681326552146 -0.9612902205891575
Ni 6.547551896745106 4.797535931237263 6.7554184436873586 0.79022521418711 0.0667257834623238 -0.801975926965135
Ni 1.1869645444091732 4.395042862254469 4.496492248045566 -0.003802404465225709 0.5148022157922618 0.025717459370762162
P 7.905880718886313 5.715375763351141 9.81250515721484 -1.3597829284536969 -1.254777018464252 1.1542409713207027
Ni 1.6287443446636884 2.0190484770726242 10.411229962956414 0.08268950588043178 -0.22341832319278299 0.2889593423183862
P 0.22904505474115974 2.75216414560309 11.918013025311708 -0.42451895672497214 0.15558979358458364 0.7392901179001397
Ni 1.293594689247814 8.813855072835267 11.68225022534535 -0.1882895978104499 -0.1554560962201968 0.7645131541329866
P 4.236171783506988 2.515401889717966 12.190480936095415 0.138315065664536 -0.19482791314959996 1.4042038777712333
P 1.9434438780517114 4.506688726833033 2.2437324372605043 1.7582126442907848 -0.17372995482872014 1.7052972843489922
P 4.006462883506132 4.535326273730466 7.99820868640773 0.01317870347380311 0.11886544158035657 -0.22005660580940165
Ni 1.3510265242845534 6.81334816266887 3.4673329419391403 2.5980367524519448 0.7388232055660503 -1.155057553684727
Ni 1.277431901188831 1.252676005046008 7.987939369043158 -2.2491992457206877 -2.2715812129603132 -0.4571331432155676
Ni 2.3888471670153995 0.5442332520009032 3.929344348490191 -0.7477099665327187 -0.06601358788664759 0.8079635120071376
Ni 8.979770287393967 6.832682655857511 4.831479630175738 -1.2466795861680982 1.0312936463614883 2.6161447749065654
Ni 4.606486797540637 1.517153800523432 4.719501842967325 0.4285280778843652 -0.13514052459129627 1.3148652420054
Ni 3.247171427582938 0.13436135855512835 6.590340411761722 -0.28131442417861874 -0.9767062980339115 -0.8773267330923085
Ni 7.820373761408272 8.591356269960553 0.9353192466045914 -0.5255568832056046 -0.5036698533245261 0.3931234731328262
Ni 0.445948195281022 2.1463592457653995 4.158737921992691 0.9538432773928088 -1.0962793072042538 0.18976258281155062
Ni 8.722465708750477 5.495172758666208 12.416486132751551 -0.9486545341030178 0.3697979110330083 -0.5158090597902214
Ni 3.43611838462386 0.569700015775984 11.162765493428829 1.2844298083336783 0.5664286817193018 0.535695000080871
Ni 3.8068483019448203 3.304225239624573 9.879883607059355 -2.177377278682379 -0.27075284661268856 -1.2112338437659784
Ni 5.525442258493728 4.286872965216255 0.02190689356996198 0.015176964850754508 0.133650313199015 -0.9596431719040376
Ni 0.9965147154608842 4.398721671401949 10.536282735758919 -1.7816019697490024 -0.03764917781134161 0.06787815189921215
Ni 2.1818380868669203 3.2021129305810843 8.07504693120291 0.11845483640549923 2.356561828867767 0.7323468538130871
Ni 7.348674824102188 5.47904685089943 4.093977972894754 0.7780171021566923 -1.4708946942305636 -0.37520262698834733
Ni 5.793230060196579 6.652310366754326 2.4703590668403 -0.08723470204895298 1.4294994191132284 -0.394596715244243
Ni 7.1378025333452015 3.9687343445800867 11.37055459175745 1.621515830955962 -0.13635974171037804 -0.5844238327451419
Ni 6.1830086484415885 6.629785728289925 11.117383371862873 0.413983604411287 0.8979693490433244 -0.05687871546491494
Ni 3.1407994447897347 8.423624701010743 13.41452677030243 -0.3052310828952163 -0.744807191063627 -1.6365336445210332
Ni 7.140245852703804 7.642315710640971 9.195738512526423 0.6261176129395024 1.8551877135559534 0.003842256564225641
Ni 2.2302803506786124 7.298176484000049 8.208763806651751 -0.32196922158550356 0.5438461684330957 -0.7545215901379134
Ni 8.934342987470059 0.42968214240386415 10.063003477931836 -1.0952179558192752 -0.356122984649077 -0.6640917781904305
Ni 8.718298235731275 2.66861184361193 9.224643441542346 0.5785622317580422 0.04637061684473949 -0.10585437403266931
Ni 5.351293518700191 4.539871769744773 2.53475482305271 0.09161817582862931 -2.722465547052692 -0.6199901598855259
Ni 7.528752070867729 1.4113995626246676 11.822836055217431 2.2356477322884984 2.042836592458611 -0.2944406771479316
P 6.382595569783747 7.960657172884269 5.03161698987906 -0.10832186173655539 0.5955929619880839 -0.9390136685791441
Ni 3.5562098361174437 4.110105724676141 5.8063769623604715 0.028044564842042024 0.10652260374428751 0.4136169651004877
P 8.867783280112501 5.011026722740827 5.986933652924683 -0.7361469442854678 -0.7476878550455317 1.0858550265471365
Ni 8.962104627427616 1.2473191426031844 0.3552420386093347 1.4879999864522824 -0.0564979350867285 -2.0355719404763972
P 2.0286557931921108 7.379322346924812 5.659326939272102 0.21210109840775085 0.8467537454014579 0.04562036894227627
P 0.6166716779359888 8.241426837443395 0.2113508125483508 -0.14907256129135618 0.1098436976977205 -0.32447861827091856
P 5.035653537860933 8.711733543718728 0.8724992008766542 1.3096320186309187 0.46767518039747197 0.6502260759519317
Ni 7.974136919685316 1.8297050568904947 2.2810709670964786 -0.5516620649330887 -1.5536037404950211 0.6722920546130358
Ni 0.5580937878189688 0.15201779844842683 5.772437873458523 1.1228290326683243 -0.45998449662143365 0.15325574613476833
Ni 3.3752935627042304 7.522823563895725 10.359680534526422 0.8344024229249565 1.4116317948041883 0.8892311978393782
Ni 3.6830227208654476 3.272932311688356 0.9914012629466161 -1.0205559482290103 -0.9602011012900367 0.6763919357140222
Ni 7.584035628883509 0.6527885480926617 4.757705215655514 -1.511968838563054 0.370475139605691 1.3863989883793284
Ni 6.503802650116541 8.844179893101094 2.7401540784464267 -0.9461438518660221 1.2676533602062878 1.146254610681116
Ni 1.9151013734919207 5.345613953700571 6.714367912440919 -1.4559966940728086 0.7626254501919705 0.07833585689742638
Ni 1.743534254152757 6.290496260074003 12.119674463090416 0.8781952517401908 0.37646966662622905 -0.09759727623019965
Ni 4.607086102288974 8.150332515696247 8.209060693004004 0.8262088313705708 0.8113617390554092 0.93783378933843
Ni 4.63040366703579 2.3693374924387838 7.43563670910773 -0.7883814761101519 0.8207177263490123 -0.050016698237759026
Ni 6.633934761163024 1.3304381011609319 8.76232224053677 -0.31315188040418973 -0.8292812996483071 0.00907162328396502
Ni 0.5490571942213593 4.522150789340115 0.7754689960990592 -0.1473056991989205 -0.5046525289527696 -2.4551479513737973
Ni 1.51665591657866 6.505932486991399 1.0915100501160506 0.1282401979270372 1.584925433426438 0.24696320039225855
Ni 2.3135376103321295 2.1747017503251906 5.967987324811503 -0.6858481960309156 -0.3998065415799566 -0.8527040494476218
Ni 7.566333088624954 3.003180634425571 4.486668260209373 0.5935571625049778 1.0255351466111564 -0.05975680834365837
Ni 3.4667382472273296 5.678117448150714 3.5561535936718305 -0.03157443237217143 -0.8286459800571535 -0.1763033719828512
Ni 8.445817416845296 6.5210534067955805 2.25464900375328 -0.27617504606952437 0.2267936674229191 -0.4053133303307987
Ni 5.816787346842729 0.21591198268684414 6.554094460582331 -0.5068065991812949 -0.49893233863954073 0.04761760187796315
Ni 1.7951113428019017 0.18021554786131183 1.729726272751084 -0.9085013589228998 -0.7541217835963335 -0.7112820627229879
Ni 7.799748457992444 3.3360252715786127 0.22948208620379282 0.6013383491122934 0.13798904978368495 -0.7634230063926013
Ni 8.043213706985885 0.19165673651070822 7.468657478733765 0.762128455950894 0.4720493982057677 -0.6590454740157746
Ni 4.023178875948195 6.479277255800001 6.742706728971489 -0.1459245025806777 -0.15361647190829675 -0.4173612626342683
Ni 1.1888638794577473 2.3653175405884035 1.8291269583101761 1.1081413487491625 0.5891495203555853 0.443383654839959
Ni 9.059219656877284 7.312190995038072 7.416838824170676 2.6268289940932887 0.1540820986908056 0.17375206631590723
Ni 6.1130098538358855 6.735954869475999 13.441070438609907 -0.6237252014479259 1.4026465605864424 0.08808779407786764
P 6.069546429471912 2.1723045313318448 3.179306157881312 -1.30021329642018 -0.07870249620822574 -0.3521753128552387
Ni 3.403239604122814 1.016964837488736 8.794533487748899 0.7788272567628135 -0.5546692271905286 0.9112781503370887
P 1.658552840838641 8.933052177242873 9.53087433783272 0.6059719912295628 -0.04152665848887687 -0.18089921888364974
Ni 3.4676325943133084 7.798503748130514 2.1352905480672772 0.6383159547779071 -0.2563472127103198 1.1188870173014407
P 4.06284363021502 6.310937162028804 12.158714096404362 -0.4896223740925245 0.2607509982049703 0.6382984712764105
P 7.117868735408225 5.219824497061265 1.0443078861297626 1.2166881820123303 0.08774815135026179 1.602782259102201
P 5.367815889608177 9.086962856688737 10.087361066918842 -0.16730296825645383 -0.27545282319151915 -0.7955173158239848
Ni 2.8284141497375956 5.508182281741637 9.763844377671832 0.16586443603771436 -1.3891071313391108 -0.7925152957728674
