# total energy = -340858.8607919366 ev
CRYSTAL
PRIMVEC
9.37366874755841 0.00000000000000 0.00000000000000
0.00000000000000 9.37366874755841 0.00000000000000
0.00000000000000 0.00000000000000 13.71931171701184
PRIMCOORD
 96 1
Ni 2.187120658740071 0.5100653785225108 1.7302930324668349 -0.46886688671272797 -0.385093146629182 1.9192570332320367
Ni 4.406467990995946 7.574252511443359 13.160991018164951 0.43073125618327107 -1.4284349824044562 -1.0399407805135252
Ni 7.0579227100265465 5.183563886227808 1.1035198525260976 -0.598832037750672 0.7729569140249656 0.9678012822347977
Ni 6.801215414824745 6.70130147852313 5.4407361154047065 -0.8378507864848731 0.8411451409654288 -2.891166424097937
Ni 9.180149459298931 6.489128484040812 9.03166960730426 -0.49666642542349954 -0.8144743165424618 -0.13831223745105858
Ni 5.762059859476153 4.02655319239341 8.912175014136107 0.2267787550245836 -1.317698854799453 -0.8776825737698304
Ni 3.0638774012145222 1.5769791794447934 4.905038439404312 0.22631518512460377 0.43508207695279905 -1.3950913739470039
Ni 1.9644116604672455 8.558731456373778 5.754386574153281 0.8038219790349382 -0.6775934122212911 -1.2422115230944153
Ni 8.61740124972323 3.877830562375453 0.22305676138726335 0.8519779699148747 -1.3963162474930404 -0.7441878123120732
Ni 1.0160775826330861 2.015357550682019 0.2875963461723158 -0.5598410011994552 0.17607120136738708 -0.5761533652062335
Ni 9.27817928816114 5.205676371051479 3.810292340924401 -0.17703562216318544 -0.27793728017626973 -0.9615743274884795
Ni 3.2371121752824585 0.6361271640889108 7.057639625227193 0.3494052063092692 -0.21453824709433372 1.9109824519280703
Ni 2.7726937519722537 3.568021433122742 0.8025650908717076 -0.17488180904497624 -0.9745650833211926 0.0328584412909176
Ni 7.117164297176016 8.024610431474418 7.966022189043986 -1.4030635935192028 1.1467935139037218 0.7912004336161857
Ni 6.232439936176716 2.3814555613955797 1.457773295277305 -1.2297193041646757 1.2365093305033157 -1.5572950733036792
Ni -0.04478832714539286 6.267431842004085 13.74729900703519 -0.6449969663425086 -0.14259543820744475 -2.298835420690576
Ni 7.69361681061446 2.572781516349351 11.485451460200883 1.1586054189369854 -1.2525329596250816 -1.2154663937900874
Ni 1.6341210647712443 5.5087083377236405 10.398538936781227 -0.042550985988333165 4.589955475014766 2.190558039038711
Ni 0.8917658610414974 8.302492844614614 7.713889244242333 0.6191144421487917 0.030506910339605526 0.6782138194141093
Ni 4.42028477888492 9.32029518231661 0.8703639003168661 -0.5420181140854214 1.8838442009503813 1.0576914196287268
Ni 1.0278134160367471 3.2161995200719415 4.99564057306759 0.15190565986477708 0.011863069986173118 0.04444846012136216
Ni 0.8915108972487021 2.030158573800534 8.025083801751483 -0.5595275837240945 -0.548791685363829 -1.0612002041129336
Ni 7.066180912285832 0.782197045821536 10.07352852874999 -1.263156757887515 0.2531757569608737 -2.7809293476165395
Ni 1.0466451167619504 5.9492332791281495 5.953577974641406 0.8181998450231651 -0.08145409081143391 0.3791112180141342
P 9.331346737894018 6.860260154928307 11.325868497450111 -0.4685892075713091 0.6758180654884232 -0.11433438647922245
P 6.415451446858086 0.7212457014733219 7.628801639965136 -1.5343312654186543 0.04309708829979029 0.49845719877533506
P 1.214461910232989 1.2235075006759064 6.094790421174529 0.6349053864344614 0.2625332869163737 0.7270516668524188
P 3.78009131724768 2.8850934151857497 9.066448730848672 -0.07749202083989236 -0.11982189195635493 0.7226363113935426
P 5.302440754618564 6.455064571429866 1.3340014970116354 0.40581366700598503 0.5186354734954228 -1.8524610586534096
P 0.4909674656018889 3.126268541098521 11.866093655506392 0.08435892316305471 -2.5639907186108295 0.4957228305633075
P 3.4529315269485026 6.056955481584117 5.684555553300842 -0.8603530813524473 1.7607096996810259 -1.3766120841958938
P 8.806833723568742 8.564936825154307 0.4608714270163187 -0.9248327490930718 0.06024814615778012 -0.9403059050280064
Ni 7.56974377672518 9.020693978444559 5.781633954774495 -0.6550576930126203 -1.0079493152085932 -1.1583943313674439
Ni 9.251061264170092 0.7999760835345741 4.532586018575462 -0.2783995645246689 1.0657934799105708 -0.8806177451387545
Ni 2.217097651731211 6.5272043269207405 3.6595028169244093 0.4832684068500387 -1.3286152446016408 0.909929349618678
Ni 2.457016706017712 1.618945094898619 10.762676913337675 0.0875774301003524 0.031155085446565697 -0.005517844494435659
Ni 2.9085744556619244 5.854334255662764 1.1617097140302874 -0.43628741011480987 1.2941493496142873 -0.34961320855501726
Ni 3.9552289460927277 7.620511567231751 2.5824954493814705 0.6654133252153315 1.0943535509364508 -0.6301763563899083
Ni 6.261160857541586 4.891967795556018 11.841494336336083 -1.8317767908311806 -1.3682202605877727 -0.7376039884469684
Ni 5.5008813242315835 1.299031150622628 5.021212879064816 0.006778199264098003 -0.36502697200692613 -0.05014911005056524
Ni 5.8001169550183755 8.338600217035461 4.119511866406274 0.6623596259906721 0.6268552624364752 -2.1339960834832667
Ni 4.7130057098190425 8.162712694682194 8.808223838659607 -0.09008939788892872 -0.8126976842580131 -1.030365221009948
Ni 7.529193285268122 2.003181154842278 6.281482971614379 0.040062158128208424 0.6959420899318078 -0.11247367912139984
Ni 7.477356896512336 1.0033106456556213 13.70240944426619 2.2574545437509443 0.43577524636508175 0.34627437398977134
Ni 5.5585762560203476 0.7707808545257545 12.445679786442316 -0.7534311852872121 -0.31171694772987607 -0.13624121385464277
Ni 0.08045419976327556 2.0240469417085314 10.004698615731026 -1.200005836260643 -3.551049820633975 3.0457866546803998
Ni 1.7903238825337078 4.510300120878015 12.73731055968886 -0.7705441908184149 0.981768028827535 -0.07613344992946887
Ni 8.228056540254814 2.67722293470685 2.4590357942885976 -1.1431075804117024 2.465845797407276 0.8154230536089763
Ni 4.77519062898828 4.5694198503324 0.1081018360445037 1.6233222880370815 0.4598397435134532 0.5541768609351424
Ni 6.584496190948836 4.179025289952474 3.255990744351926 0.8600741166594477 -0.15783333820312173 -0.7820390788318918
Ni 6.564445913272773 4.139196570997079 5.487601647567872 -1.7521242720048598 0.48823886348143664 2.095915217451145
Ni 4.450514860935085 4.73100315401635 6.919033058635138 -0.004993339449533335 -0.464382111468497 -1.0700460845393378
Ni 0.28560537890798865 7.733961081356757 4.208796999595739 -0.8465904803507162 -0.42488893846988113 0.433488250103118
Ni 4.634763695905019 8.256618109249187 6.009127273629772 -0.5577887466561168 -0.6931082200274385 0.9064156800384647
Ni 3.700621352713945 3.110370798724233 12.442688648711398 0.22021858530856267 -1.498244032777794 -0.7842515131021783
Ni 8.821794099057753 4.102283063054893 6.8051898504183175 0.6325433139601879 0.27333089175250996 0.6345724285750749
P 5.967727527774653 0.961335356532943 2.92561578563625 -0.27506792904827465 -1.7816179105886027 -0.17460490123450573
P 0.24795885006151683 1.3821099776646775 2.3605447809188327 2.824358365334452 -3.3244759825313452 -0.4372122359219244
P 7.599964485106492 4.842371713656041 9.253346564636397 2.453414256512142 -0.6657380555446019 0.6872083096032358
P 2.4467431649550826 9.089309234446793 9.189126621959224 0.2665562920328377 0.03453660032428891 -0.7473636389368935
P 5.817411374051726 8.110416996152622 11.2885238007407 -0.5789964910819834 0.8978850168596343 1.2400746792570707
P 3.117729128773653 1.1060929246261813 13.383353190690224 -0.5240851837560845 1.0555432629374726 -0.7593791753405309
P 1.49314108522567 4.729868940085165 8.047020998967607 -0.7834850672497989 1.2461278274296863 -0.7189719751680779
P 5.1022098142546675 6.057264812656258 8.329597745469266 -0.2886112149503481 2.2852489402553933 0.8222938125868805
Ni 2.466174780486863 4.093996739789049 2.997929891367785 -0.3000868196901154 0.2099287733467804 1.292253161032839
Ni 7.132921434517513 5.940712614140987 7.279055057198337 -0.3422953347373653 -4.658276370878352 3.896904333477509
Ni 4.967472698165034 2.47681389463475 7.037293139615382 0.5714438755457062 -1.2051393008324665 0.4992832942210562
Ni 3.831234054508362 2.1814964574284126 2.1478684204191207 1.4070593449421576 -0.5802241928414975 1.5504564531152911
Ni 2.471011593614889 6.823196668284477 8.688577392056038 0.7426469501875146 -0.2288819174105155 -0.3460162352323783
Ni 2.6019898684945644 3.0926264435859507 7.135262976996934 1.1799265490122648 0.6863359343006116 -0.8676136195696025
Ni 4.73938321397072 5.4309350072522555 3.1215554603993514 -1.6939530629807666 -0.09849227724064327 1.083670874411624
Ni 8.465847771711736 4.697407924848043 11.593943240869661 1.6120670268382364 2.9890277526228006 -0.9208069157631303
Ni 5.313661036235323 2.530140696738126 10.793791869727542 -0.3085434350979009 0.051553446597259606 -0.6848079276918593
Ni 6.892327476073613 6.74622947333443 12.927432935561937 0.052601685356115854 1.5356906076600263 0.13457231079265208
Ni 0.7121710526569607 0.5658687039367869 12.045542234656825 -0.06047903122166359 0.7889309208557188 0.5751565485106029
Ni 6.48366363509965 8.555085099190054 1.1522394963883398 0.28536879675365046 -1.2835350644335506 -0.43198518319503015
Ni 0.11121764357116252 8.823068918021729 10.061620219839439 0.8748142510830997 -0.5872769859232209 -0.9252078730443033
Ni 4.126326523662233 5.089049183185385 10.029434790466585 -1.5204182548819878 0.13429668853376225 1.1826426623918471
Ni 2.650732946528938 8.247788113189882 11.204150470030084 -0.9309735718834871 -0.6328387337134198 -0.3464324968341905
Ni 2.044069098378036 8.554832010131028 13.532619493501644 -0.17518854165211764 -0.9571432883003194 -0.256209658691191
Ni 1.498315350432396 3.5805540283788875 9.889963971606308 2.186414192073667 -2.080502482440501 -1.5573295260860405
Ni 8.022913797412068 8.779284510810468 2.8460577086152985 0.2464199262942788 0.7403080176416927 -0.13107766737583232
Ni 8.527648370458012 0.365662135111907 7.761590907667165 1.6213479379195304 1.8377432928272608 1.4269637971755682
Ni 0.7584338579128934 7.4994225129917425 1.674208496986976 1.3547919029970086 0.6439217310004588 2.3373173788158588
Ni 6.664153628859626 6.7842209531946835 9.907936106897711 0.041197300173916145 -0.9703947539935869 0.244468716105179
Ni 4.267737691975035 0.24705147891656928 10.453100251072513 1.8538450834851299 1.2600498368274171 0.6490479964834306
Ni 7.903268288175385 9.083281965374466 11.700844309934126 -0.2432664682669617 -2.047287686251429 2.3999391674121378
Ni 7.932364156294365 2.6182625576229626 8.632959665285048 -2.022446201727717 1.2973092353995075 -0.7476821986185768
P 0.9104757040716148 4.815994209504363 1.4065040134871112 0.03553624523339686 -0.10808609157666547 0.858121106698135
P 7.522069296940021 6.701273357516572 3.4508871297717145 0.5047101216635824 -0.08120546513573758 -0.5293474605962883
P 8.743552085143731 7.151706266898453 6.719718863085042 0.47099730279216945 0.7903224018866066 -1.170125760871759
P 2.5955126633173036 8.74925127580621 3.706711425367586 -0.6349359825620807 0.7493619003138449 -0.33807435467748226
P 4.605714696130303 3.3414504832825775 4.19231996448635 -0.24613401962274384 -0.026145033826484004 -0.03979270651690566
P 2.5817052490971824 6.4073807179758555 12.247531675297502 0.921298253577252 0.530616557116699 0.8012048531270654
P 8.251631317419516 3.2579685884798586 4.69536633977191 1.1088136922258387 0.20581732228156813 -1.2587478301865418
P 6.373119958319001 2.884137300962768 12.906661822751097 -2.8028659997886307 0.9142829986016835 2.550617382627717
