# total energy = -340897.2433171942 ev
CRYSTAL
PRIMVEC
9.00551310457801 0.00000000000000 0.00000000000000

0.00000000000000 9.00551310457801 0.00000000000000

0.00000000000000 0.00000000000000 13.18047871976908

PRIMCOORD
 96 1
Ni 6.309802640790126 2.095312677236661 11.340589212615855 0.46886817226430866 -0.033419970221342445 0.29541769634922027
Ni 4.445589434577865 0.459960171551697 6.105566614628394 0.020913610224215597 -0.9169173509007369 -0.6551741639858265
Ni 2.6613631935919604 1.6498459780825427 4.728562460780926 0.16672524137611286 -0.33126401662386823 0.9424874860603575
Ni 3.2355817101116715 4.139582107580394 4.789165960126487 0.43098785227876746 -0.0427301918786748 0.11616064105468381
Ni 4.937425519450347 4.430748349383874 2.4914795967876313 1.2106193501104312 0.7411356557493107 -0.032179155835705874
Ni 7.217873530071763 6.061943910332462 2.656499316096041 0.39597791186248577 -1.0734702797295383 -0.7562277741957428
Ni 5.1356098409698685 4.666917924148698 11.51590223312374 -0.09208945903809301 -1.220168427251447 -1.1438238897524364
Ni 5.734881694267302 7.94881498690157 12.430956897628644 -1.7335912461976788 -0.9233366241635195 -0.6860633973655152
Ni 1.9760886924774044 6.544747465805931 0.2999736333809824 -0.41325778198885604 -0.5837957122428398 0.7712923818383491
Ni 2.664443078990228 1.5189148266047252 0.29932883866017546 0.4558766451006472 0.21180207911009327 0.8592775889000814
Ni 0.7363249524177714 0.15757486182669098 4.753829228213438 -1.2175371602761869 -0.6277137537820286 -0.13277562390354553
Ni 8.650092284369112 2.231196860787716 1.29526561636976 0.16192164933988246 0.7734919605928292 0.1730049037372375
Ni 6.80835683825649 0.7316294780123423 4.694451379168182 -0.6182454092802772 -0.836898706984249 0.6890998701989939
Ni 0.8018427601312706 7.329983159671279 2.718276233767317 0.14076635541850596 0.2799409408698598 -0.9720847401015001
Ni 7.575392390630906 3.6784998491262875 3.9195846328103343 0.3502189604598162 -0.05126985391856977 -0.31271376442550664
Ni 7.5821915528405315 3.932356251148999 12.528835115254816 0.5386749086448013 -0.500304793507035 0.16409011774611096
Ni 8.042391271034315 8.698127689966656 6.831824304219489 -0.22382969969858868 0.39982659618461464 0.04433121781720752
Ni 6.917899896690782 0.5330597205423938 0.32330421554850297 0.2432520700892585 0.9439622708336709 0.34538785761976
Ni 1.8933730568543385 6.508959557698574 9.252629536629739 -0.38922413807842 0.2877061866375755 -0.9363348361954004
Ni 0.2646603158013713 4.928582105821404 1.4514734413442374 -0.3322209812204988 -0.9127063981431831 0.1633514398078735
Ni 6.230977386722768 1.975854549143033 6.947799099938702 0.8967493605932944 -0.010881422799194162 0.26010410864959077
Ni 3.415421801934494 4.252322123080139 0.371588173300994 0.4556899830111378 0.6227073017063728 -0.5021575304450577
Ni 5.87250394180042 5.539290960451583 4.5943064739550366 0.39861586370596513 -0.3125127041582941 1.3130189328252806
Ni 5.142012760613635 3.1099187836572066 9.16314805919463 0.8738639713546886 -0.6583327642194662 0.1513482446994103
P 0.20826689371806145 5.473802870930524 12.483402302873937 0.8475510444917725 0.7047216358966508 -0.4378503837265556
P 4.0479330031997796 6.176016741735552 12.508722202832327 -0.6913465001413255 0.6106483136593096 1.5413922860304938
P 2.359993705717611 8.429024954671233 1.4123940182863939 0.12010651307630929 0.2110073511229398 -0.12228835121897648
P 6.307695350780786 7.6533621209765235 5.8633750534138 0.12232537510449902 0.7586885770314095 -1.7483974579725758
P 4.762349343930693 1.0532757786432396 12.55482772702388 -0.15838818226532722 0.16079782014808433 1.1484888993282736
P 4.017350281525754 6.062583301745554 8.217830368722245 -0.08328780158606301 0.5987415349193946 -0.15085613555434021
P 4.573773904633251 0.8254417065820321 3.7934867400847105 1.5722594079229955 0.8799842253198136 0.13017341039400807
P 0.16706577183030002 5.490940361903926 3.6358740551040056 0.29343460448092046 -0.43514506898025057 0.3467731680030609
Ni 1.5096031263070386 1.0890006481605727 2.544794934575245 -0.26280890917526356 0.24553983768217066 -0.31441892004207145
Ni 1.937473053331873 6.3564962249714645 4.815158571895551 -0.31983237774815887 0.01650391119229416 -0.3256893507495681
Ni 5.967169892989279 5.713232441350823 9.343865287970058 -0.1629997128954096 -0.14457467342100264 -0.6486273640062442
Ni 8.637790753801763 2.3461792489897086 10.247294735923429 -1.0239341206726236 0.31831362711078726 -0.6964694231901876
Ni 2.3473769822001462 5.049805314435675 7.027449258984077 -0.18200016525731239 0.4588768653795517 0.013234496412403013
Ni 0.6060953303917814 9.058915551694133 8.982601034612262 0.0426304330760169 -0.8835038084372977 1.2644279112904546
Ni 1.3873983167909794 1.1880252675738805 11.348523969997181 1.1025283734377593 -0.412241939129832 -0.3944948995590561
Ni 4.0001857740137705 6.925761709417939 1.649563204978725 0.6907237789556621 -0.6757350188563137 -0.2973480806027137
Ni 5.7155738746945355 7.756727397588559 7.9158791247171125 -1.0359116047494739 0.7826594860247101 0.8700417693951209
Ni 5.294485098853606 2.814276801962092 4.786227461280128 -0.22771489368560782 -0.22437245957593618 -0.29956205753489695
Ni 0.9150501617484725 7.1393004303644965 6.8577106509367995 -0.49250020986095183 0.7976135362313812 0.40399538285032355
Ni 4.90433025968826 4.430487189510922 6.912910842566102 0.7522963003518206 1.1879483908754769 0.20363394147700412
Ni 7.956982987065981 7.263666562967059 8.974890514501162 0.6009992206053199 0.0847517877260992 -0.03147904444488772
Ni 4.479765355883204 0.5140670939197431 10.483871359869545 -0.29196624746551003 -1.1285916461837144 -0.3074908254636704
Ni 8.206327627145615 7.243611285826878 4.624463234870764 -0.700381099539768 -0.010258187392898462 0.8701687818912884
Ni 6.961765749833945 5.93049043910874 6.9828458543376435 0.9644087116134811 -0.386139071395193 -1.1055743593529346e-05
Ni 2.5696780671599044 5.118661465766537 2.5454406298473384 -1.2752268016781716 0.2884726324899548 0.0841527206895196
Ni 2.329546066736491 5.329840742343661 11.346401370615979 -0.5053706380657168 -1.058831703880757 0.4644065369485292
Ni 1.1316507570675776 3.313065142762827 3.630338366348698 -0.9506324837649952 0.5791522999335574 0.26998820053252215
Ni 3.7018151219219453 2.5233807255444245 2.7240091432542677 -0.16402121218138851 -0.09317780700626532 -0.6413447143019019
Ni 1.0279342654539847 3.309625036850141 8.252811382877306 -0.4586146128571004 0.0879803219657259 -0.3177423279883495
Ni 3.53922959273971 2.701590819539509 6.99987527915672 -0.7301737574211683 -1.08177108628575 -0.138279070220278
Ni 4.099795751763007 6.7995224301404065 6.0479943709116535 0.4698282221847328 0.4192451099205425 0.15706689235074242
Ni 0.8946004431450041 7.3868889954363475 11.359621463495092 -0.27797121873799874 0.0883310204369253 -0.2407385596387854
P 0.05636010168572621 5.5879837684879385 8.075204658243871 0.31237129348442333 -0.45471579202332657 -0.14902139633844658
P 8.262026724187386 1.5336928732086936 8.050965419828733 0.15446545017215332 0.4120673612251806 0.002870122458943444
P 1.701267456515608 3.2657952057584203 10.442220862890046 0.9875558391539058 -0.5700475094188119 0.1241565147759668
P 3.9118146763143535 6.068743072542089 3.9361781908069657 0.4362771257021648 0.30911267733780956 -1.1935706221582605
P 6.8915227495225775 4.008272724562438 10.355612144057417 0.33704925584707757 -0.041498119243786595 -0.14342076232221754
P 6.309640541558639 7.815254225668506 10.329843769558577 -0.7637461940599749 -0.502451921757025 -0.7062555560426739
P 2.399356802430558 8.415948949997887 5.8309912291676875 0.6088567689765255 0.2245714629606197 0.635226517219306
P 7.00066055987815 3.8701371627962757 1.7114319788811774 -0.5940700975856542 0.519109584918364 -0.8248008952794506
Ni 5.4462369960647425 2.972476646381297 0.316254700081357 -0.06832089586358556 -0.29084447515624107 0.6628311663104519
Ni 1.389640689493227 1.0539241755691908 7.117959165987846 0.6241167804593896 0.6301650435359986 -1.6213003725110466
Ni 6.591089834985713 0.7392823628411372 9.393226305060656 0.18476770070012052 0.58273641774039 -2.1610417747471495
Ni 2.8118182969511936 1.7636756606384 9.152629620173645 -0.41305877860417245 -0.7211679543781322 0.5259713450352038
Ni 6.460122661456453 1.7574168292004 2.4397591353275994 -0.7594161992260535 1.2697015009845682 0.48814938909142386
Ni 4.076795671917464 6.8206313522852575 10.458366846897516 0.39815820734325624 1.2199506548136863 -0.6150996645624439
Ni 8.232371570337984 7.155348254281787 0.4179395479936363 -0.6782963518255867 -0.5731001802022065 0.37804369598156823
Ni 7.538424760338833 3.7703740913284123 8.185379903680966 0.29151656152260114 -0.12391585952007045 0.17283006872227008
Ni 3.0306792759982675 8.425485788117083 12.362629369902686 0.9159375034859708 -0.36061058810678537 -0.46823696643821294
Ni 0.16037017301856904 4.785718649803513 10.10613152073359 -0.7574773303321277 0.504873386714324 0.6720364869588039
Ni 8.523591845218627 2.1513900058185693 5.859618853999714 0.24763400120703802 1.0383407830162568 -0.24052670073829543
Ni 3.6848217191543102 2.696934969390666 11.56091358750275 -0.5420507670955697 0.5156817901837377 -0.8811106256147729
Ni 1.0806795542775336 3.3038074755423024 12.613467124014583 -0.3084845568355074 0.6677458300032499 -0.08940471311707827
Ni 3.1646092632586087 8.30337103372963 8.00359462108029 0.17929073674594928 0.15913843016779045 0.21186095737248675
Ni 5.60073557469831 7.723857275647984 3.4991406516902117 -0.8089598144821358 0.807068510996694 0.963172782323851
Ni 2.9099873926427606 8.369678624920988 3.5846687089795903 1.0388735155912752 -0.5371931818929523 0.4643941956533551
Ni 3.214238644632448 4.329661467525527 9.26964635373081 0.12136635362533936 0.16667381931288716 0.017948356948304576
Ni 7.521170197698246 6.256327905424882 11.313239470058724 -0.3748578420544189 -0.43458174027761287 0.1501863631808252
Ni 0.6338179011813347 8.916025079137663 0.17282930006097638 -0.003464818620148871 0.5160052349614275 0.3223188916154385
Ni 4.587444273155387 0.3149948288321826 1.5725759760861797 -0.11632570587763837 -0.1084092792440391 -0.47493469017336265
Ni 6.047021775522727 5.64140447077602 0.24566318642229043 -0.034533000779863106 0.4047988525882254 1.6618659526382344
Ni 8.089913362398814 8.936179416919309 10.992427079918702 0.3594898442387809 -0.5113443391506484 1.0042590108411993
Ni 0.034522633550465205 4.960164439422937 5.831966526210473 -0.1606849487193039 -0.9897348490830954 0.11050909919586129
Ni 7.789030172218928 8.774638527228884 2.5391007487935946 0.6620765475326147 -1.2157566713369965 -0.28355256948051816
P 8.527842447288752 1.5423291600418476 3.4780119174170667 -0.10647195301201018 0.8793445348532856 0.8430300166929676
P 1.939012996031007 3.233555469718074 1.5357362240767254 -0.7438682241891253 -0.7398395626457065 0.25935360363681137
P 4.704750083675371 1.120375854966317 8.206125903657542 -0.23212253583500025 -0.24074318762447575 0.4314426804279989
P 8.46254347353776 1.5518840091867658 12.36983918349875 -0.19899515715341212 0.9301474764377657 0.15980100345245382
P 6.204888415966097 7.601283240104647 1.4074247762900076 0.6176926221006007 -0.01743825008110545 -0.2775140765959221
P 1.6169938671676873 3.2050710325405287 6.029014352007008 -0.09616722865189245 -0.5828947976951252 -0.42556590993224774
P 6.845090325214191 3.943333971325865 6.02637843839276 -0.022675330110328688 -0.18206649971887354 -0.6939723677999468
P 2.4518949644583174 8.602291022105941 10.145817915358226 -0.4671848710246147 -0.5293644298771528 0.1733787421368885
