# total energy = -381179.0284972511 ev
CRYSTAL
PRIMVEC
9.10465519506037 0.00000000000000 0.00000000000000

0.00000000000000 9.10465519506037 0.00000000000000

0.00000000000000 0.00000000000000 13.32558319063290

PRIMCOORD
 96 1
Ni 5.897740752762474 7.129764494422058 5.011485414710541 0.006975145766252504 0.4041925864627942 -0.40121627744328964
Ni 7.483225421266295 7.882346194283419 6.690002361216194 -1.331300504743288 -0.22297557922840955 0.06911562385073904
Ni 8.073744257343527 5.017193123098534 1.3101817443488244 1.7519162697591117 1.3397002987712088 -0.48811467919874646
Ni 1.608656016162844 5.10783907095442 7.307736832822837 1.113632967991353 0.8618114110655287 -1.6034764569557483
Ni 1.6522764195555268 8.264996645919336 10.157052356167696 -0.9645010142169711 0.9960721041550328 -0.7147736208160141
Ni 2.9517656567567063 2.9357050448625936 5.782050629658779 0.3908984404570494 1.6880053300377638 0.6208738480420597
Ni 3.078730074479721 0.2493218798800312 12.084771911569357 0.8698165407581924 -1.8019131705025289 -0.6632302015210836
Ni 4.276584044915607 1.5706258711051864 4.3572522010624475 -0.24900105675789377 -0.2350836753458532 -0.4932710265887053
Ni 0.7185239158974681 1.3945600475176885 1.9637111681446422 -1.0239022389934238 0.6579818086379507 1.088169533612926
Ni 1.7564518851408073 8.693580083386204 0.9606449239254283 0.21936677883122865 0.9543616117901241 -1.4509868995630428
Ni 0.1814284655408042 6.808834500853141 5.458625050080692 2.608758252634507 -0.5981810344302343 1.4421322773858904
Ni 4.10843927141194 4.497772540015135 7.464752075725959 -0.49882718052024416 0.012331782092475535 0.5550160690069861
Ni 8.84342449979964 8.16902447473122 1.859971815546736 -1.6949331675058488 0.2595994010990303 0.21891092224073266
Ni 4.520561492152869 8.6058840438374 0.9359075755601768 -1.5470263443878196 -0.13072516913242005 0.06139974326372006
Ni 4.456628602855559 2.679317952493996 9.002097700427205 -0.15201698863166077 -0.7539394923821983 0.2345607129628476
Ni 5.347218667280953 5.649975768933403 9.657969752023678 -0.34589590760443006 0.31380185528336274 -1.6280927128425315
Ni 8.782723763122743 1.3331218337640203 4.549380457475111 -0.8363410347085661 0.4724224652744703 -0.5566906284959315
Ni 6.204239867730389 7.892406838355412 9.955343271015703 6.144936555473289e-05 -0.6898768575743345 -3.142234133576872
Ni 2.9967244444738985 7.110107543696782 13.196205404659596 0.31072630168183263 -0.7635212225333625 -1.6003877907280952
Ni 3.5777653344163403 5.093672227356212 1.2799579307186115 0.2554087600564504 -0.292839908319715 -1.0112634671834906
Ni 7.0470669106158095 8.900064560226667 11.703686550174142 1.033236371910156 0.6027066902147298 1.350271646529152
Ni 7.605382581007398 5.350041110414272 4.460006429960273 -0.5083256069289825 1.0910540542495726 -0.17813296899242226
Ni 1.7737143115303973 6.1656998619776795 11.096333206504951 1.9112711868130827 0.9099992836246651 2.2118064068945262
Ni 3.1917279510204404 4.359026698374331 10.032511597677228 -0.4576244810296893 1.2631696134033215 -0.6410837473310314
P 3.2710386030667067 0.5086461340383346 2.48520761262932 -0.5101503188425472 0.5393217982001809 0.6220910082786125
Ni 7.41450348329761 2.899158958613746 1.244743855535585 -0.3954297526684996 -1.8200193931849362 0.6683670085270166
P 7.086462753963782 6.661630434467648 2.465992237684579 0.32235565839064484 0.28949670287909496 0.21029232733378622
Ni 5.814542412916443 8.954510398733918 2.9146514400190875 -0.7367897200757891 -0.542301449653795 0.6418514787349914
P 5.055687605574898 3.733864648999423 5.396461195302103 0.16709728000355092 0.22846282759522588 -0.5643162633619894
P 4.491226292876888 3.15172209576946 -0.11390834206759679 -0.8509747254613409 1.1872030280690198 0.3732331619668024
P 2.283975611413412 6.745202065179699 4.450904506088082 -2.503335823932934 -0.6415144071105469 -0.6177355595233942
Ni 1.2555501708740895 6.1039429852896046 0.7748480447866676 -1.2900672091251137 -0.6739365321949942 -1.873229915769645
Ni 8.002655109004962 8.023723281296899 4.2658924482334895 -1.3984458922415335 0.9011724293616545 -2.318079356521853
Ni 2.36519824106612 4.446440493609804 12.62064642765448 -0.4319594721634174 -1.5702644889801536 0.23944143809391666
Ni 8.359193409330043 7.145588385279183 10.513032541124801 2.635672560526848 0.9396150496085689 -0.531806206549426
Ni 5.746093614605821 0.2963565289985034 8.062204106790361 1.4494447518869038 -1.461711742179715 1.1450749885507183
Ni 6.635864260057026 0.07230644074800044 0.7307778714237073 1.904118120708069 0.38958383541068387 -0.2030343602197923
Ni 7.897805898929793 2.9185609789914975 11.32322758906142 0.35259465978084437 -1.0447400016743813 0.47636242375882476
Ni 5.510210205902495 6.230006042141011 0.4203737698110169 0.3077317378298829 1.2295035886094439 0.9685823833751964
Ni 0.6236515870658184 2.9029282858950176 6.263877180671893 -0.9414137933802046 -0.17284858066503134 -0.7158185171407608
Ni 7.760070674023822 4.768362894603015 9.816597429374898 -1.052515274744426 0.05247004487425802 -0.5927475221194888
Ni 1.429958947202671 3.858880670494921 2.165447567262441 1.354122644844126 0.26958376600525186 -1.6783966033034063
Ni 2.3652164503766575 0.6595594369803252 5.83720481034594 -0.559762839663352 0.577318074938296 -0.0065162038519629715
Ni 2.331866098127149 1.8673192723486345 0.12353378361774174 -0.2440007753298249 1.628243893708415 0.8508325434565218
Ni 8.539902607104615 0.2922403143514919 9.498955126823535 -1.691092967824152 0.8641423731915505 1.035357789128533
Ni 6.391131126432455 0.5190554864071206 5.048290983634549 -0.09137443524893941 0.6985183352994163 1.3182051050119103
Ni 5.552419387728519 3.6831426144970987 10.856579408846873 0.7550340109979577 -0.32090247088388607 -0.08647442684416075
Ni 6.645496985331386 6.402703143279064 11.575787994820551 -3.2330249284082 -2.2484649386578246 -0.6898802000084442
Ni 3.763136115688523 8.29527872934327 4.432715225792131 0.2640147565579066 -0.10901580247978644 -0.802723860874753
Ni 1.2775925412797846 8.667395094833218 3.9189604696824887 0.3785427471051738 -0.12046003976098608 -0.6892171125031484
Ni 2.705038603628275 7.087555312596035 2.2682536926952976 0.20475391401406026 0.12637254859067915 1.5946179781238539
Ni 3.626393298206848 2.372573011833825 11.283503978123768 -0.45721001920008997 0.6513468198199364 0.8907126674809112
Ni 6.739038213562742 4.345661064439774 12.792333822523226 -0.9738474884288778 0.19116974757172236 0.4894642512481054
Ni 6.61619820467648 3.5063211045222924 7.8170139194712975 0.6627933710939811 -0.30971174437438914 1.643409031484628
Ni 8.66026614975777 3.734237939865443 3.2813714763312354 -1.005031627341166 -1.7496776102365803 0.6792252913977592
Ni 0.19579379062387145 7.591680074827898 8.250654992939968 0.5983057329335567 -0.336900131863723 -0.8409538508902291
P 4.521408225092865 0.026473606125006093 6.259559753143442 0.3077749323629925 -0.24930213293808035 -0.2736785048999158
Ni 0.8459198942802226 3.6128000478905724 10.551663593430197 1.8308347386328856 -0.7714384204979101 0.34674257187544155
P 7.378840548609833 6.492502358194954 8.352769164572399 -0.632149163845563 -0.8207215830037544 0.9473363295122265
Ni 4.884602028419419 6.7134450276022255 2.9129588846046226 0.5677417441037705 -0.6412079316137215 -0.44682353375944334
P 0.17718751711661057 9.004303758398828 6.128662124344319 0.6773864384168076 -0.37372501400155633 0.01389115615979543
P 6.87448816999625 1.9336922092579765 9.729714435541595 0.49972089597910707 0.5578345122923877 -1.2670591782657146
P 3.0116196604936083 6.297635421477444 8.506319175680225 0.70387625717722 -0.590398562271338 1.2181033171923021
Ni 3.848055235380352 5.782293723954455 5.3424396337303754 0.8484738134163581 -1.2973837973911848 0.04430859210938821
Ni 7.387936099223335 3.130408097785266 5.5099552755549706 -0.6142514576295357 0.24694417422886503 0.17152240565444007
Ni 7.704951091026681 1.1620817798848841 7.122257706152956 0.7673917612323623 0.9803410665730213 -0.285893816019185
Ni 3.412779876290937 0.4967071995843948 8.093666153537127 -0.5408161233575202 -0.06567831603441592 1.1670630627860352
Ni 4.303570243132245 5.5200341289375 11.913710916983103 0.044581643265116766 -0.03163022531077133 -0.7947395571176957
Ni 4.961281435093009 1.933118615976044 1.7018102965452768 -0.9325997946330002 -0.10877566144452235 -0.8893692660791392
Ni 2.39313132343071 7.602378044768704 6.9515299419495395 -0.8515781633732946 0.04628114245472675 -0.8275584034199296
Ni 8.642238932325604 1.3259928886885723 13.267257223911558 -0.2845493861761486 -0.4474375131943584 -0.38644297578885706
Ni 5.2442632255016886 0.8070157023167632 10.39475487499372 -1.1149401168385509 -0.08179501909062042 0.5885787354537799
Ni 6.137329756160189 5.454362250483853 6.6963455745419465 1.2852597604341414 -1.0448999242910133 -1.267595253274843
Ni 5.102330754516814 2.0687779794807355 6.9029183665385165 -0.5696839554318059 0.9123490148037642 -2.554114340037382
Ni 3.892030720328517 7.760425755579304 10.081976279286934 -0.17730661643638496 -0.6341389405820821 -0.23663816431716667
Ni 4.798007652158136 7.089103103991726 7.156464806463257 -0.8572181352678914 1.8849513179716308 1.7911924416509153
Ni 7.75134841427634 6.966008164757939 13.238674069160778 2.325055016508738 1.5256607342278499 2.1935592877588803
Ni 0.8859821983938698 1.0855025244192493 11.409977654927799 0.31624774572069403 0.2669105900484629 -0.7277255529909918
Ni 8.473393100366241 5.087380910565491 6.843633403755913 -0.4639776769412267 -0.6056112654560345 0.7276368499319276
Ni 8.863746090359538 2.7451264007766745 8.680551321696592 -1.5068633990156886 0.240091927193722 0.20366530893557183
Ni 1.9042022308424267 2.1165956289523216 3.858049415468882 0.26712013495610776 0.18417377586986344 -0.37192292779581104
Ni 0.5340754362040125 6.138577093932011 2.8225988229241756 -0.6825474137924568 -0.06688802007180092 2.683499707312456
Ni 1.0184740523305555 0.8402759184791114 7.924284967847961 0.49133344324636036 -0.33677620469134906 -0.3055974650956995
Ni 1.201805390822533 4.751646747529552 4.733713308046653 0.7702683114492089 -0.49401998893958793 0.0287215363044086
Ni 0.7369763207306869 5.58597914704921 9.373295406200533 -0.31164444262072777 -0.374298112896207 -1.9901256352181405
Ni 8.926031037053201 5.217231504008707 11.950902523290507 -0.14541542415474312 -0.7664607647776606 1.155291524072404
Ni 6.009673384636748 4.70305520236012 2.239230783095036 -0.5546309177534254 -0.24542259537801606 -0.022700012700677032
Ni 6.129344973489476 2.770856156566222 3.4868517096955522 1.0815882808509825 -0.00911044694170044 0.8257982261957133
P 0.5118646296758451 3.3545282918813393 13.2647789367474 -0.41063705653655735 0.09605487144374426 0.2735265527030838
Ni 6.069117678886555 1.8666819464798206 12.498850722727546 -0.02562901342201393 0.05363218350315925 0.6771139014817112
P 0.48110273091924777 8.08388684331294 12.333493794667177 0.17518494210769184 0.03721697536992945 0.034339910932450535
Ni 3.8850474497373693 4.007013411717828 3.1948881768642314 0.026077413813342182 -0.8797237725695752 1.9054417246154989
P 2.354254445433057 1.6478515570949042 9.713550941042946 -0.742134015106838 -0.1924532422698363 0.10878543163653523
P 4.755734737745231 7.836167382760212 12.168163270107087 1.2913249927916146 -0.021656659037827215 -0.6210322279967949
P 7.529449756065846 1.0206318556292544 2.591892321206674 1.3361205518397505 0.8102659348880691 -0.09089106785461766
Ni 1.964211013718898 3.0581353442617605 8.070079633597848 1.9526821456597012 -0.6709638227199154 1.3382959622245145
