# total energy = -381174.9266812749 ev
CRYSTAL
PRIMVEC
9.17154957404930 0.00000000000000 0.00000000000000
0.00000000000000 9.17154957404930 0.00000000000000
0.00000000000000 0.00000000000000 13.42348987606144
PRIMCOORD
 96 1
Ni 3.5150605919587092 0.20531064112945327 2.2455080963366036 -0.18981760441920212 0.7102150549110543 0.28414289476634935
Ni 0.6621381903640132 3.7978469813315394 2.7780715508519997 -0.15639557731533066 -1.16225047188874 0.03758310046009656
Ni 7.215037967316212 5.540267149315183 8.43372413160174 1.5145324855251723 -0.571321748145545 -0.7898012392758139
Ni 5.48963102387402 8.442099590712928 0.39451512397467775 -0.5632040041344172 0.08698196260819857 0.6437723499067881
Ni 2.206500578656145 5.492694321446443 5.735589055755636 0.36000740730514774 0.44540248504220065 0.3509995473795826
Ni 5.819229002497294 4.185023948456829 9.931019961564047 1.3078319893077026 -0.3259050663048 0.3400417628164982
Ni 3.7830807864465053 7.123643475372507 6.3979033398723155 0.3848573764692921 0.6180353501520001 2.169019650746303
Ni 5.319535464657968 4.5138698600114235 2.806006256678607 0.4135557728452491 -0.3344624689565079 0.7202004482585402
Ni 0.33794775739553184 4.584206474032124 4.820012517641539 0.048829362797877196 1.193512001006183 0.4087123287100187
Ni 8.593641105051697 6.097805650595447 1.958245990750173 0.12759279415102542 -1.367694984211922 0.9688754891355832
Ni 3.2312745036775126 8.015494131779713 9.028277172830464 -0.5039030523812547 -0.24540716875904836 -1.7078210792121105
Ni 5.177779993761641 8.39522380061516 11.216480509998632 -0.5444817451345655 1.0338390384911613 0.3549425911877306
Ni 7.993243952406364 0.5437463249646645 9.677946641488761 -0.0938439798353545 -0.7847071125823583 1.0002465472476967
Ni 1.9071778853219998 3.319266350712927 10.188523140104843 0.24366833169107066 0.7875852054611017 -1.775747824961071
Ni 4.7102877666312315 5.451954298043138 5.1310619543173015 0.8878813686797031 0.5318398880008389 -0.08927590084869787
Ni 0.20446869287451777 7.3297098521904855 9.247938537647254 -0.3105275554074652 -0.16073585656189737 -0.5624686686302894
Ni 7.897713091584926 3.03408618688979 10.423742204538707 0.5353461013818845 -1.0085843776894308 0.6991112316884088
Ni 1.6397446700097578 0.7747758255330075 0.8483710911329947 -0.9731712882974596 -0.44804120821662835 -0.2610361335455569
Ni 6.039492938123988 6.87731399573136 2.1929551170252712 -0.3021812403252989 -0.376243666658352 0.20374655579546844
Ni 4.563598002040402 0.9384237853675813 4.939951623461449 0.4867378534558779 -1.0348258278844629 1.6899475413657992
Ni 5.811937620550958 8.69871037747589 6.68113913517643 0.16317917589606737 -0.5524403378600099 -0.3632706514374518
Ni 5.185080547257595 6.47334392125545 12.535364936706218 -0.22237136998550733 -1.17380295261303 0.2048055931876021
Ni 7.642771526852445 3.9656313100438463 1.7071592283221522 0.16792774632464627 -1.4778238172502292 -0.12512633488840386
Ni 9.403864969858406 1.0718698323099705 11.995042351213963 -1.6944911948724235 0.7313816616863404 0.37756084280787877
P 1.538784251814444 5.061769062643134 1.3228795537212 0.19519995177703803 0.26321180104063696 -0.9815880516062451
Ni 7.2130569125987165 4.699969773310944 4.2455415014564615 -0.11012651904546195 0.4658252716729268 0.3928884743038846
P 3.7741843833170123 4.376837737168383 6.812045580029585 -0.22110895833331595 0.31719185480151824 -1.951868905729787
Ni 1.4468211237944206 8.091241960075052 7.1645192377101585 0.9316603135378665 -0.4819090646086669 0.654689253929608
P 8.469742641261682 4.206586261608826 6.810286476812847 -0.48889809433199033 0.8222300492284808 1.06662368912135
P 8.594081339433364 8.970766053795622 0.21531955322761334 1.4081248100921941 -0.21521059057101002 0.9712761281572757
P 4.026356140064847 6.452368587279008 3.3836460432567144 -0.49731151520666617 0.23110900696882136 -0.8972617814533387
Ni 6.76084448713195 2.7765765882642603 8.431495445044558 -0.4611571767732961 -0.6599229915247216 -0.005508331412738901
Ni 6.722296464087356 6.3944685945403625 6.25181614609139 0.382219938846445 2.149161478369795 -1.03044878186269
Ni 2.4456303918471356 1.8871472209562146 3.4859730223451155 -1.0648074618482177 0.06078036451216629 0.5116261320571254
Ni 2.2497536066547914 1.5794417312711868 7.955955183124324 -0.9285878452601298 1.1513183983572686 -0.46183363401503047
Ni 7.3427976534954205 5.008995966140968 11.730573380738269 0.47658868083701794 -0.3971642188611031 0.8910811065639235
Ni 4.632788172358847 1.4719786843966869 7.533732807753568 -0.2027605377331153 0.9494155806387586 -0.24698608321039403
Ni 5.0290449736059895 3.2256890299601304 5.055380161179211 -0.5570091881776149 -1.0260146573507363 -0.5597373857420553
Ni 5.424320419044002 7.834530286266292 4.402877600843905 -0.021168406547499026 -0.7749898852945943 0.5432748693106579
Ni 7.046171395748976 2.210646119083496 3.410238034219241 -1.4831573136480005 1.3085794089966882 0.7398177082688356
Ni 8.595851448509645 7.214478502789511 11.491782914883148 -0.3268185792580049 1.386171702859871 -1.4872767351330127
Ni 7.2737083702227725 2.5275781876842656 12.83873595204176 1.0171631204973774 1.278920705589991 -1.430999914918155
Ni 6.273449997330408 4.265531811003927 6.668172398326454 -0.09859177893298504 -1.2470004598426265 0.26263741659440576
Ni 0.12737356394028904 6.259903618544573 6.884881441321199 -0.5807348139293289 -1.3303427688157088 0.1489640607379499
Ni 0.43886598646260283 2.686163452129685 0.5954591903309852 -0.862583770455179 0.3569359674686756 0.5224070247227132
Ni 6.580238332053633 6.6228401800293994 10.267573643417638 -0.7563285614396652 1.189872604481383 0.4785488898871822
Ni 7.395900925783835 7.040310775543053 13.516514385969408 0.041004724547135836 -0.45314407666083256 -0.08666006049240559
Ni 0.7547378239275278 0.8063195361343106 5.915181754601162 1.6532383588702237 -0.4844984226023979 -0.9739801573519999
Ni 8.799239732839158 1.7716957543644074 7.926060517144344 0.7968581461225954 0.4920674931989074 -1.092368659295938
Ni 9.180537736659288 4.679076983281063 9.538423525769462 0.13391693659684034 0.9923599454107683 0.12887063242218452
Ni 5.296166356231218 1.2544295274569297 12.79298826254701 -1.1730498764970894 1.2834121657024413 -0.48827408759474616
Ni 4.000143851256507 5.050524742811424 10.764954116443295 -1.0108803728124591 0.6519687696746513 0.7547352488106164
Ni 0.5043095787620817 3.6213038227340104 11.980101896886188 -2.5865927722810613 0.26475086339298276 -1.003624205470678
Ni 2.148031949841181 2.8745562528337136 5.714366089939507 0.9491070482594042 0.3436351365947114 -0.3059851874524214
Ni 0.33527058206202776 5.839874160687487 12.817057160209616 0.7062632693521579 -1.29704209778105 2.401057597287297
Ni 3.745679207104164 3.8783181576801664 8.745094572514134 0.12771543577181876 -1.6534335056001652 0.713879391136519
P 4.174192348357931 2.739908732891362 10.952547158020632 0.1758076632933553 0.18712540229901967 -0.33843456623037843
Ni 8.084152352220313 8.334930033426206 2.3503728432043145 -0.20130220802003398 0.3622995457734341 -1.7568905830452517
P -0.18257987255611877 1.6555105638031575 3.4179430530533508 2.167946215176466 -0.4894922762725635 0.11973884532424539
Ni 5.419120150410578 2.822067474369707 1.109661202511078 -0.29800499746042225 -0.4547304473113459 1.8076264188372224
P 3.0591887181943482 0.1996655523395536 6.660360072361812 1.3491303338358573 -0.14481610000784736 -0.319528730464811
P 3.5548009164536483 7.106300075044804 10.821319708930844 -0.6909662339837712 -0.043737550097266605 1.0841730108590233
P 4.56528556717012 2.0032040098228117 3.194562624866448 0.26420039020615144 2.163049292095481 -1.9782391681931992
Ni 1.1112799810186609 7.5554675460383836 1.2083048872728768 -1.3098341073393958 0.984643550603117 -2.6134137491286475
Ni 2.4920109182655312 4.262762003019281 12.729226732447477 0.8708166998879324 0.29621088167447696 0.2728074151488721
Ni 1.728433554816143 5.782460260078597 10.916103088458414 -1.546643507127104 0.34160113688381816 -1.2496270988321962
Ni 3.8528120781924144 5.229580906004295 1.0551216655524793 0.2149460240557137 -1.2260182011640046 -0.24038426162316023
Ni 2.320612999003719 2.016007493089587 11.912273701686019 1.232826996555722 -1.7349595873001151 2.647696067350285
Ni 4.907274309327358 6.051847015459481 8.242855012500844 -0.3937353956852122 -0.24672203091572995 0.1998122537380688
Ni 8.616881811783795 2.5420967507296126 5.545069372695186 0.19474563784843882 0.12518469893016504 -1.5861222819480167
Ni 7.61555953913574 -0.07053747095733472 4.3981258209868015 -0.2068305940374309 0.9626539337059034 1.5123282787850019
Ni 3.407340741694904 7.346310356999126 1.374766678530263 1.0247036518487964 1.1774608610805914 0.9310658744869771
Ni 1.6851896983671142 6.5876672872442406 3.081415968693652 1.5262335760121843 -1.7599231992239883 1.359873174174658
Ni 2.5973920233767376 6.626517971426231 12.818855701089712 0.6851485988607298 1.0455501562805025 -0.2782607249539595
Ni 1.2572727078385202 3.7718456381644136 7.715647742962378 -0.3417152938641792 0.4244958167965205 -0.14967111410730352
Ni 3.2928064300649003 0.9521169089473056 9.914347918668385 0.9287305414855812 0.6905610281255525 0.7196777429858509
Ni 5.457558114859757 9.04731180690773 8.992315526778155 0.5449023776117519 -0.507110760685275 0.16525996968449602
Ni 7.221476395148072 1.2627664660597222 1.2457908448717039 1.5044463049337637 -0.4417376345961037 -0.6379613996519659
Ni 8.30581036338895 8.50156791843626 6.615820275951757 -1.0207906899476356 -0.07508598250156101 1.468662462465935
Ni 2.2183135345641722 5.788972060307401 8.573368311775997 0.19815312086809098 0.5244178845051549 -0.7490376842052068
Ni 0.5718057638660765 7.644018857600498 4.838161180025704 -1.2619833064047041 -1.0993052385147715 1.2891992046978635
Ni 2.9256509557557786 8.413612757599315 4.82830818427105 -1.236922506781334 -0.299639961960684 -2.5498190550961377
Ni 6.751416134124612 1.7409435484951405 6.39889753585091 -1.0512433500105378 -0.7761813344995342 -0.6161566450720485
Ni 5.821567747649893 9.470908997566232 2.667744229031788 -0.3988017544645261 -1.05664189531829 0.663125300512103
Ni 2.7872614435692693 2.984724906845533 1.30165658790507 0.356279050610967 -0.5034294551789459 0.2693593086992716
Ni 5.13445359336605 3.922901060373428 12.576104960109522 -0.06905340315423592 0.27090222770635924 -0.7595465541563307
Ni 1.0824721436684173 8.965143893879768 3.10796760483786 0.47898777719681374 1.981381827587239 -0.2835417708472407
Ni 5.991589934468999 1.5359685860817074 10.597993392886687 -0.36092709090593966 0.84554224159186 -0.45789444686162434
P 6.176910266050987 5.103041035924285 0.802343669374893 -0.48187204072314427 0.7081103498632256 -1.212432749170086
Ni 1.4492790990920537 8.663528313141114 10.954480520680113 1.0026464149384409 -0.6706164666828258 -0.887269189017001
P 3.4654516800747652 0.34090649930230943 -0.06273248223238811 0.43385720340676254 -0.6907453762222169 0.28887526724501217
Ni 7.199116157179305 9.174759660399927 12.102188979626641 0.05858644218464104 -0.05760736610082337 -0.3868600087216176
P 7.759690441383137 6.87572731764744 4.052578517577767 -0.30700154453207773 -0.33456891262738514 0.23470315207798287
P 0.9520802227488334 1.4298262423522046 9.639180335563255 -0.4828403181736846 -0.8716142560885634 1.5135318121747998
P 7.251467362399041 7.928162636316798 8.531983528434543 0.3517958180286328 -0.6396922663001435 -0.7570322723749092
Ni 2.9969138962878996 4.393419898877788 3.5249411023622166 -0.3793696138818434 -0.019606718487333974 0.30347090567099994
