# total energy = -340866.4061477235 ev
CRYSTAL
PRIMVEC
9.27987327951337 0.00000000000000 0.00000000000000

0.00000000000000 9.27987327951337 0.00000000000000

0.00000000000000 0.00000000000000 13.58203256853627

PRIMCOORD
 96 1
Ni 5.727639849084693 9.041723863699177 3.143629446766605 -0.23512429877580152 0.3994460729167443 -0.33800082112706953
Ni 2.0202562463489553 8.22941015867832 7.698486338296355 -0.49904392451674046 0.22613212257952023 -0.46580855950237837
Ni 3.275702458848605 0.6028484060006853 9.925572399662217 0.17495997058107934 -3.6323352470780277 1.426761194246459
Ni 7.829800256746428 4.611725810786148 8.247567158681104 0.0900621441954191 0.14822692546160923 0.41924228170706507
Ni 7.40490270020573 2.2807794079957886 7.061284769508022 0.277265965140858 -0.48223276649667274 0.09824673688874047
Ni 4.932744466155847 2.9030691484571887 2.0186563962004933 -0.7245857218104295 0.971646367012501 0.1690747154448959
Ni 8.987288127209174 4.211744713924219 12.586550998710909 -0.4395439693788946 -1.0154592504323932 0.5602125256062611
Ni 3.310418464680364 8.370659109430846 2.7794547408434194 -0.16729576916760222 0.2506419347954264 -0.2724500318094533
Ni 1.5556408322942425 8.343302043087082 11.346308002558272 0.6016067722823317 -0.6376096727395019 0.6403813219473681
Ni 1.7267338554217864 1.6984395218796764 11.649811825154151 1.3006251871466181 1.0374668650517358 -0.549073478270306
Ni 5.536873494665161 3.8804161193727285 6.671480909640396 2.249600080703532 1.1095125180650762 -0.14410287599090665
Ni 9.068505577901384 6.697525801906479 2.1425380641638903 -1.0634455485036847 -0.6130857194562086 -0.21656813304016898
Ni 4.178448528699853 7.65015119048152 11.161755451267569 -0.28025795788964636 -0.34061563304209724 0.018864183894354607
Ni 5.651192253243466 0.338982634008864 10.521538851660006 0.7900362381047555 0.36150816022039034 0.02109153056297658
Ni 5.533829696238854 2.534518982296186 8.883885283535948 1.1749038989866927 -0.6488556779669664 0.4992817515591595
Ni 1.5042767338503007 5.482112962611375 8.780118668831285 -0.3688584299378744 0.3891724589048781 -1.5530622661692544
Ni 3.961011818557125 4.118120072695505 8.430381589711908 -1.1271248318302007 1.8287961109363018 -2.881303158150612
Ni 4.920884788141148 7.498879976617979 1.341535596648601 0.18200633590489942 -1.4193124512778974 0.7834966372140248
Ni 0.3244605603584711 1.8689943123586659 13.707122605394101 1.7460983775257541 0.6727494538654285 -0.30894864095611957
Ni 6.590770140027688 4.505879576485949 13.25287188177336 -0.38448713761406683 -0.39516081527782915 -0.48046744706613376
Ni 8.306757902224888 4.069688414198859 3.018008730555982 0.3701336971058722 -1.6802526826755386 -0.8293854293263394
Ni 5.948064678414224 4.740762448340441 3.4621685200036523 -0.8384470253079753 -2.1989647750451677 1.9822955976507601
Ni 7.889952395159008 1.2105409058383603 1.730785448083146 -0.40065372007160027 0.011101252119484107 2.021930695543879
Ni 4.2253954074763485 2.637757572212872 4.174505510555529 0.6735431534113174 1.177909518582236 0.46602298950602966
P 6.15122894349701 6.453428015913805 11.845977209831078 -0.9860450589363341 -1.0698036295112285 -0.01600563139963695
P 7.268145208106657 0.6825634452135677 12.405733596403708 0.046158757944249534 1.1084632508649555 -2.116311007498678
P 5.761502106577366 5.631286925120205 8.341214999592946 -0.5211497552768445 -0.15174548013782901 -0.03172407057615827
P 7.661983028876464 8.391436745639698 1.793738252242859 -0.11244128322156764 -0.5907546600591762 -1.445516620477091
P 5.607270613146777 5.30209270141643 1.4539157897047854 -0.5372240351308877 -0.3314457936173711 -1.2714506224651907
P 1.697028981145534 7.093609352003014 1.6933671431607138 3.10243191397827 0.858616815387631 0.2623185998024063
P 8.097069886246693 2.845849449991906 9.25455218878549 1.3010681882213078 -1.8870107716038214 0.03471426355273376
P 8.751393749170331 6.545131723379575 7.905775507039182 2.9425656045055195 0.3100195054227951 -1.521230209260322
Ni 1.2414521636372347 7.93646311989271 3.9105933391974537 0.4238093322524572 -0.9740086965970901 -0.09278288556069182
Ni 0.9922040479902909 1.561682029780603 9.342822343148413 -0.23849347235835056 -1.8398760228995474 1.9991347806952862
Ni 5.937931056824199 8.451672402911536 13.0628182216195 -0.10157580126197345 -0.15621200054961484 -2.744795063787828
Ni 1.0743309262610923 1.151734349047166 6.832060764361953 -0.32788532995962244 -1.6425893637968096 0.10080061365884575
Ni 5.746181035840068 2.9335164125935167 11.378144463720265 -0.5380827835867572 -3.1913360333098457 1.6757311406561013
Ni 4.526805690666815 1.9003602839468363 6.592840479749973 -0.8715895734982151 -0.09776156972220583 1.0353212794636426
Ni 3.928773538883366 8.86771696037084 6.578824159191756 0.41133871058927224 -0.729045557353996 0.2729105163856397
Ni 8.744433844232129 2.140764680385636 11.475785434091986 -1.384748597260099 -0.3101897124520722 -0.5318851394164775
Ni 8.521327131533077 8.887835725578872 7.4570927073690045 -0.5971844748449199 -0.3409298218484064 -0.6842356001281571
Ni 7.351803265463863 7.271291085138724 9.12618834204189 -2.0492381251095804 0.5129060272108135 0.3580150594654673
Ni 0.8320993227791827 0.177841346955626 1.738839450077635 1.028129903921526 -1.1286584948659077 0.8151232629803704
Ni 7.664971148063267 7.860767193784808 11.309201501377071 0.6453723474040562 0.8346729029775237 0.5710870064269196
Ni 3.6009898559137343 5.977249879788424 2.8610146188585883 -0.3920888612207247 0.8999326434172824 -1.3149716856762772
Ni 6.264990909680259 0.21144933592122306 5.603009295349946 0.5936785185741905 0.3811588445717823 0.0668139723007559
Ni 3.0308530031226053 7.967903330466887 -0.01529230313022073 -0.10855506079328402 0.21187998353588022 0.08447230881246742
Ni 0.23603821607423348 3.8905497409627525 5.656156057445393 -1.51723960004369 1.4400100888365652 0.8792283209903954
Ni 3.950339964318546 4.834377809695904 5.4139207420141835 0.41873037506765304 0.5056848268720259 -2.0855963520236402
Ni 2.209333663836817 5.7894438049359405 11.628990573541019 0.3769458349316992 0.6190272817516242 -0.34033589701814937
Ni 6.6228692216026825 6.726209890125128 2.80246233059447 0.9687919282828411 1.3017742131493968 -1.114396585630255
Ni 4.712709391502855 8.17351748208792 8.684827362366702 0.07608999828604315 0.5126630579620719 1.7986445270535862
Ni 4.177641179727021 3.470793234203074 13.318717222425391 0.18643557532084665 0.21893714749297777 -1.0128331256634557
Ni 8.966974484662872 1.8979103974085887 4.84818811706795 -0.22221196158950762 -1.7650674624290892 -1.0426872329104109
Ni 7.391112808554836 6.817987836576905 0.17933169459972664 0.29225266835767727 -1.485177943622455 0.4911282692140897
Ni 4.903735582373414 4.7007661946288986 10.420692613067411 -0.22761899153769186 2.059243058841092 0.3929440101321684
P 2.7397340993674293 7.076441586488778 9.374047260663168 0.9208699077905819 1.176752265049341 1.9692387644668021
P 0.9453592478195559 2.43403651473503 2.3986551419911786 -0.31114616282807056 0.33781467325819237 -0.2860573381802428
P 3.1602886752266883 4.030360311361385 2.8180274619982684 -0.7234467231099798 -2.2371736820147214 -0.04360282429161523
P 6.83545255803517 7.344574244201382 4.831169757513054 -0.13994565928942349 0.19689199476748026 1.8783623519002037
P 7.975726263617428 2.969076886891111 0.6365937370903962 -2.1255263554493586 3.104725852218769 0.03227788619709925
P 7.410331426057528 3.4747186205882206 5.041786688803668 -0.8761867059505943 0.895329083207 0.48264362878184613
P 2.7501553970282324 1.4443287526492412 8.126645770284757 1.1558664227392672 -0.0351804045558749 -2.3068156106825755
P 2.328310918787093 4.526286017764762 6.550301540767673 -1.4170866472711725 -1.0538183098265657 2.0581066312438043
Ni 8.049575494948392 0.7664293717315949 9.646516403145935 -1.1537956562531677 -1.2415600055533456 -0.15870957016048795
Ni 9.175734513315973 5.901832349878052 10.89983938064577 -0.8599229357935642 2.545422468690339 0.23978133793183867
Ni 4.087700648178931 5.856249612469443 13.222746629238841 0.996016311216433 0.054056158414455296 -0.057971177198145325
Ni 7.250513448929874 5.633866729883965 6.395331369426308 0.5723584169401755 -0.24092059374260444 -1.7983997580326319
Ni 0.6420066871576683 3.974736751095262 10.219121702221813 0.6626835849889942 -2.631609189090752 0.35094709687509235
Ni 3.7544789594842487 6.362327500209347 7.47688203707663 -0.7282834823769908 -0.4361588549567456 -0.8282598003623284
Ni 4.255276599344368 1.015255253145621 12.422195163563549 -0.6692581528827184 -0.09841720102833373 -1.3101567807861372
Ni 5.956936237242121 1.8947552405032697 0.36175080303004037 1.9507167944032147 0.4195574989546387 -2.0728238828493204
Ni 1.9418877167447839 3.9679624436220777 0.5728660635142296 -0.4018695947565724 0.33015689960261846 0.32956708853741956
Ni 8.16471088237278 8.713912341109792 3.839898336784483 0.10899009144817359 1.0421799542566887 0.46484568136847687
Ni 2.4822268965271506 1.1419255230209246 3.379331731429154 -0.8714309364331637 0.46447955627830967 0.3551243681812336
Ni 1.1777643935160471 4.867738954033026 3.819009342096621 1.957987617033015 -0.10582480634631454 -1.6058305590102215
Ni 2.849385081700513 1.727086490605322 0.6273324235859601 -0.02371791244223012 -0.8338347233469448 1.3595875246134392
Ni 7.320632171213962 4.216551688268204 10.571290108132935 0.41025653326868694 1.8535180391630142 1.1497389696852909
Ni 5.960861623627268 7.448685142203655 6.899156103940884 0.31231215811171376 0.36066663815570144 -0.14456207501551235
Ni 1.0316435093067775 6.110583098657901 5.9420438966490154 -0.2434623863278517 1.4577766687913667 0.641709039619856
Ni 3.2449025595287413 2.741469435665355 9.892704016594719 -0.1888218161648361 0.6435666616538851 0.6627486338989746
Ni 8.714701130336122 8.74077757417126 13.417010567886653 0.922587918922953 0.19781579213333028 -0.09673544245053663
Ni 2.1447364661370374 2.5871358636290047 5.420616170564735 0.7543225867532299 0.8290303599797657 -0.05874867879411817
Ni 0.612076311961418 3.0305467673053244 7.793560495726864 -0.3174577068683952 3.4504649225303607 -0.1531133070196331
Ni 4.758106531446445 7.080079296803147 4.449025505026753 -0.21278706873118192 0.44329957976658496 1.1755075940089625
Ni 6.579337336182532 1.9649760413931177 3.7298028485226795 -0.03411699628836705 0.5662844428319538 0.061709818304971145
Ni 0.44754230324763705 8.222802888923653 9.428239864473996 -0.8008626392962981 -0.9401814636350002 -0.3376755765771668
Ni 8.410414086437866 5.984970734333205 4.316220310945254 0.23583726568242608 0.24254733071275003 0.5657373120792322
P 0.3688415541810821 -0.1633434009756856 5.404602821282916 -0.7912644540849019 -0.035140809567191095 0.2577142682611755
P 6.225829844561301 0.5449707645219101 8.199853762374083 0.017056955482286754 -0.9318899130501692 -0.6546967101287757
P 4.795058986731679 0.2504489312456151 0.7796429832536055 -2.539374462724046 0.504713206987376 2.721628138753061
P 0.5781286796348366 6.017246133499967 13.079918244059003 -0.2657283968149036 1.1220988393705191 0.3516420660595879
P 1.6565408941516913 0.24695969890326244 13.11316710192979 -0.5928794197116628 -0.9931461887574895 0.789517389486808
P 4.165131910584757 0.6452769144912989 4.8308709455943735 0.2305513346931384 -0.22490107838589654 -2.113771786016592
P 2.8113097617519145 7.382037092515418 5.441424430355314 -0.22359315820775041 -0.2696421300470131 -0.10235818795395274
P 2.753950865187866 3.7257763115190974 11.625635899360807 0.121151666511372 0.4664485070792224 1.692792724124078
