# total energy = -340862.7072949267 ev
CRYSTAL
PRIMVEC
9.25005114566864 0.00000000000000 0.00000000000000

0.00000000000000 9.25005114566864 0.00000000000000

0.00000000000000 0.00000000000000 13.53838486118496

PRIMCOORD
 96 1
Ni 8.940146483535043 8.678758544067323 8.393094770912183 1.8300076147459001 -2.592465171901438 0.523166528596557
Ni 1.0647178634189425 2.645866070828359 7.400906556915223 0.3323608492324728 -0.2225896566439005 1.1533292581397105
Ni 2.0867837419526962 6.455629051256314 3.895426777179905 0.6524955887123988 -0.7566144681112003 1.2222592483422046
Ni 3.5439905168145867 5.3789601220226535 13.335593089332441 1.0613459856621785 0.15769398441178004 -1.0483912252737235
Ni 8.254264456371338 8.434261197616378 12.801029870483925 -1.0995376662405514 -1.3776073582296273 2.5705650293942375
Ni 1.5525562999533078 5.001410042848102 8.37198800467687 -1.3479237151222656 -1.933354391865367 -0.010963183879723054
Ni 3.7649372335718225 2.7041413917515182 13.063756292322688 -0.6286712325992916 -0.4059792460495718 -0.3359395677226666
Ni 5.216473727207381 8.795253685608001 4.969453891865048 -0.9862160372965597 0.06706825440340707 0.40711541653654404
Ni 2.702864884721773 2.8639452717941376 5.800533968636822 0.8803089556490841 -2.7990610242202436 -0.7509307874628616
Ni 3.4308623938161364 0.3804231449965724 6.5466486275026305 0.5384152272255115 0.6929819788622195 -1.6610403714131459
Ni 6.959257324745574 0.0842531639835722 8.898374178494267 -2.1546340714485925 0.09077099733698561 0.6497190544085262
Ni 6.472501144171209 7.3072442411152965 10.298040086477648 -0.5743469081251141 0.47676711539641115 0.3942904968577339
Ni 3.15458187233472 6.739540864763382 7.90595656323399 1.4365622394972808 -1.839275156090755 1.4250768645655005
Ni 9.34310645264228 1.5383667218110657 -0.27710377601509295 -3.2716827499897136 -3.7735931974209724 2.1259194771227192
Ni 0.6500205046737061 5.2133379599386585 10.782077677080691 1.4003922173346268 -1.5041575700487513 -0.7897469889991108
Ni 7.323829582451046 5.908229536718103 6.2002684449812175 -0.2288713758875542 -1.0039808174791485 0.9187639171911726
Ni 8.51829791040795 0.31810277679727056 11.041744182068443 0.33082101554917864 1.2388973711195181 -2.212579537615125
Ni 0.665148962986377 6.236865346520961 6.665962259564782 -1.1134398781439405 0.1746352402518089 -0.5443007394720111
Ni 5.849824715081781 8.003763826860213 2.7381788041961137 -0.004784308762520792 0.30795928045965676 -1.084124931229907
Ni 1.2047728847042687 2.1959528431487483 11.63323591442323 2.050031310434837 0.17335508798780466 -1.2589424626958512
Ni 5.379348624162141 5.257479203025217 8.593232573074381 0.2486860966206362 0.14891829510167903 -0.09316520860077503
Ni 5.942500975451486 1.203181875942557 6.589944415933256 -0.048603105719684035 0.9129712217687954 -1.1385533853821166
Ni 7.6334195373680656 8.137602813913736 6.499534418043897 0.28788307853507195 -0.32482648852864054 1.1214480931603976
Ni 8.495783286419542 9.108090408405024 3.1543894712751643 0.09518326747206834 1.0235703095753017 0.3068686184986392
P 3.419235079784325 1.7842885761067981 10.9356978980698 -0.5794101815806343 -0.30790580151390196 0.1296771874838799
P 6.791257899569951 3.6930550877156527 7.077867027931178 0.833903628911667 -0.4011237177294834 -0.5293603161120948
P 7.229747314338435 6.796428678045514 8.310537141265947 -0.1341871595390915 -0.13458619474972305 -0.09903555133862298
P 3.6058363574006576 4.122359201900534 7.903708800855525 -0.05537616277745947 1.4650534049584383 1.4918563840838952
P 2.789815363559503 8.168803235734977 1.315367418750203 3.4221575909452353 -0.2480392070652567 -0.449034168257517
P 6.565427155916297 3.0503800484935466 10.688378361077003 0.6017201579317444 0.7869771395634576 0.0752261076238511
P 1.2065581445357243 -0.24300623823938658 12.251777570742396 -2.0198699563601084 2.004631799254115 1.9795884831322426
P 4.534689472610177 2.1466223214847466 4.958933808930777 1.1027875406364167 -0.1729830493603666 -0.10537923416846368
Ni 3.0144343505399913 5.646194093684571 10.02796264915672 0.7891466364109505 0.8087916643353876 1.278185112975547
Ni 3.6606706593740683 2.114589395078889 8.017444652200746 0.4948424848408832 -1.2723124562448538 0.6545887237960016
Ni 1.5603263427430625 0.7880997150782091 3.9886654406467716 2.3769974710143 -0.8335331329461259 -1.2928493998559414
Ni 8.128454513533894 4.58612900588854 8.557978778931153 -0.15410806683273462 1.378390259142239 -0.7628121122814799
Ni 7.402288514525687 5.277514813361655 11.051857262761347 -1.0495669907493796 -1.2384410003083897 -1.5332899686383334
Ni 2.790980869977966 5.034700976181825 6.220265205103707 1.08089973942439 3.1632878689233777 -0.11965399891992295
Ni 2.023994396170727 5.67887452365624 1.5030583523672891 -0.8152307350925122 0.6956428135238342 0.8095794503440058
Ni 1.3998472089818097 3.0298634355082186 0.4328968339700484 -0.28090330478312914 6.41937507846768 0.5181809024565075
Ni 7.536849005552544 6.979829438036543 4.1171310731091415 -0.05454415379446736 -0.298608435372376 -0.03818499571015359
Ni 5.287486368275174 3.2928886339923515 2.476983265787949 0.04850514668923905 0.19116614802729656 -0.2726886301828207
Ni 7.213772476364737 1.7927986229717674 12.292866297018694 -0.49443753609298075 1.152318814597325 0.9937426846909079
Ni 6.659555674283611 2.996720502989539 4.713009179619763 1.452905713852311 -1.0665840941326663 -0.36033470873757945
Ni 4.0833702371876575 1.4250535977938112 2.9791481812184712 -3.773648733249256 -0.24562776941028666 0.744139475572641
Ni 6.114070920290019 0.9817264063836113 3.4616299132533768 2.7014382940687476 1.0075284256210906 -1.8229242255365572
Ni 8.912655332140815 4.91586557175328 1.1168798256757342 0.6017857210623572 1.7673575440148468 -0.5475251599465796
Ni 3.344901670429006 8.264217511182975 3.3149139302860235 0.7927397530788477 0.7001707833011748 0.7734377103161261
Ni 1.722655486692352 8.25037018492552 7.374818638248622 -1.055578229940466 1.2427931066294982 -0.534163393927693
Ni 5.850684969819219 -0.07853015746688034 12.623257766489997 1.7340980106307682 0.3354515723426545 -0.2732776699170713
Ni 8.497827547677323 4.317905278776024 3.4062979585393833 0.34881745212659926 0.9269392539131133 1.1909565815741812
Ni 5.0200211453397525 6.569117926241431 4.577233231899365 -0.5436996155529022 -0.7162892861295922 -0.6974287017796633
Ni 8.784930628758755 3.9081927724824532 12.445823289355388 0.0845970073157898 -0.4487217792234207 0.6932915396828382
Ni 9.12451849887479 2.0858957370624385 4.46617804531661 -2.0278555456687464 0.8503430054146129 1.5494526944411249
Ni 4.154808380598699 8.379436145693909 9.973009946531274 0.47405537289220295 -0.27141953366241 -0.7555772850959375
Ni 7.998204546245163 7.526229947073213 1.470877425146389 -1.2280907674223172 -1.655750583769116 0.1807513804518758
P 9.121835984102137 1.3048399357751794 9.24700119838905 -0.03455434093610178 -0.4950890536340506 -1.7292951899254863
P 6.841402425716689 0.31986953652684574 1.2434454976749902 0.828630810548502 -0.6187760849727667 -0.055025464306260076
P 1.2939988760732837 0.6852678237812773 6.153020109783852 -1.5894084088984561 2.05321690725167 -0.4320111513369592
P 6.099936842453417 5.049945060131248 3.3151442565544342 1.1075656787513508 1.3668925429152847 0.9630601680053864
P 0.3282047574290456 2.1595816428519448 2.4212452338376824 -0.7935619918698269 -0.3500461823273778 -1.5586636715164317
P 4.906264018877369 0.12200817190102733 8.073615586535015 0.11519236360414355 -0.6027156890757942 2.50917505632253
P 1.2169922019962518 6.985647720077918 9.112808859389611 -1.3200133618652428 -0.6747109484671735 -1.0352899120050751
P 7.240930625925118 9.465854628618523 5.064330739353422 2.0032989393753042 1.4346729928943678 -1.479711521191245
Ni 6.110324649659244 2.338348127321941 8.636798462992461 0.2645184356672025 1.0205052974967328 0.8434113112917863
Ni 6.415465330074034 5.247498398060758 0.8172540256314811 0.1400179072882556 0.05839952298481555 -0.035286591116436006
Ni 7.576115471793625 3.1014865799380633 1.6268675091863702 -0.12074620354283719 -1.9010402531136938 -0.8067080423334817
Ni 5.400558990967983 1.0500842828315713 10.765168583962035 0.38326612072277216 0.7484622713177109 -1.3363383242775115
Ni 4.680451775325597 0.45440412741107034 1.0436601224536135 -0.9226208290434175 -0.2234358066942797 -0.342128727252514
Ni 1.2619566996164864 6.908604045797126 12.760143720323217 0.34253753265515846 -2.928610427877008 0.2628626452313344
Ni 8.85006023742859 3.066919139574596 10.06561313149855 -1.042559706193611 1.6019847029015701 1.4016703127161019
Ni 4.519214137387249 6.227550545224196 2.0065238249600017 -1.0912677129222754 -0.8322067008252183 1.0542715953139004
Ni 5.075724952101541 7.484179215499137 13.698137735871827 -1.185875567506848 -1.844531776504004 -0.09855475504746251
Ni 8.389019198467938 1.427449360987319 7.098323515585394 -0.7011673428864892 -0.049800725572211005 -0.8971278269786356
Ni 4.424632366523867 3.8799246168092507 10.558193144144855 0.8264592568184799 -0.8495349076910207 0.11540190851178835
Ni 1.9246950993278515 0.8592992071749936 9.32694476363959 0.8314068306317423 -3.7250595114866427 -0.41096487218962124
Ni 3.510986335060011 4.734074320625844 3.761640515416741 1.8260098064404164 -0.5913632401774525 0.1928859589318807
Ni 5.429400649799478 4.492268738998493 5.68545778491037 -2.5698708315406904 1.0599156809735553 0.6162000967154743
Ni 2.1095111171127283 2.923691350816786 9.640656541255556 0.6185102329058896 4.449828295842155 -0.22896342138072825
Ni 1.973627868801425 7.932242432990711 10.74456317048768 2.916817806117454 -0.023738995488152666 -1.0173217575624287
Ni 9.104085136347924 7.240699374651612 10.93785038492358 -2.953588180868268 0.6363991973711686 -1.2394781833236523
Ni 0.8116318446700374 8.063602406392263 4.941212561339573 -1.085306353132518 -0.13068685969531688 0.7103307545533122
Ni 8.890122208050528 4.005919560665498 6.112513211711692 -0.2846576296192388 0.11850523002746043 -0.34701896546527977
Ni 2.2412040923481285 2.976499891634297 3.0659164340526797 -1.174580711319319 -0.5405384442161013 -0.08507060451809864
Ni 0.8522016430885904 8.222601532003088 0.9259874494282504 -1.4558884506297185 1.7427271470606762 1.0137008729803896
Ni 2.129241475768141 1.2694584909289757 1.0515115656916416 1.8901493172328026 -4.637183811874111 2.0924524557135253
Ni 3.40338049247285 -0.023668105340648875 12.2639626628459 0.2378139297928227 0.7833387714799218 0.4538295327636313
Ni 5.0943083044403705 7.375204365372828 6.924152456422481 2.3835710104667593 0.057705582241584494 0.905588299041163
P 3.3703855607692135 3.9230021040376872 1.4963973906852626 0.117042786549321 0.32958997135555496 0.182663252762608
P 0.18978514514994374 6.676918019898337 3.1304808646100706 -1.276929643301891 -0.05183189706962686 -1.4003536507872076
P 5.682315542605989 3.191434075280413 0.3023536400665133 1.4138740538711456 -0.27719680246581935 -0.2740112056489862
P 1.5121428273956439 4.2703230167397175 4.778074962938112 -2.6583687165727827 0.5486592735510228 -1.3241767492143128
P 2.0402929859273313 4.221482747775545 12.24098738632067 -0.8968534902713263 0.5958367025677739 -0.8942273655023889
P 7.985272975030786 6.1061343765833405 12.845855617340057 0.6900213535719987 0.6793523038939268 1.8596344364733974
P 4.685215551559792 6.131276015038761 11.475663146667383 0.7529406188040387 0.7364940432122413 -0.6536482142596033
P 3.2594126996398254 7.541770032652722 5.879341627631908 -0.8924985557367403 -1.1907650343886653 -2.254740487253891
