# total energy = -381162.16907756333 ev
CRYSTAL
PRIMVEC
9.32857158113362 0.00000000000000 0.00000000000000
0.00000000000000 9.32857158113362 0.00000000000000
0.00000000000000 0.00000000000000 13.65330745546361
PRIMCOORD
 96 1
Ni 7.462306664463705 2.082379659851883 2.9099564010022503 -0.4469983687744108 -0.30759444092107024 -0.3929434959115361
Ni 4.396471702540268 5.173886850027909 11.838918771536335 -0.26780096307321616 -0.38724053198948793 1.0082218521436894
Ni 0.14259654108614533 6.264891250763743 5.016907517691821 -0.29670479059175997 0.9543636686726532 -0.9894134611879346
Ni 3.6099611980227295 4.767618240787904 7.407793292283598 0.7596779375278724 -1.3647513282025658 -0.41158965025781374
Ni 7.393499122461127 6.7371035306133225 13.070215556244074 2.1136938815908053 0.09371156802254829 -0.07812502643820093
Ni 0.26490343956713786 5.7861023281387 11.062810556889605 -1.0666481146013822 -0.19264813188946175 1.4828860622644846
Ni 2.1727268730155176 2.871884635760802 7.624976425300548 -0.7081160062901805 1.0935356830208458 -1.4201686286306057
Ni 3.9342689797092296 7.5724024630963545 12.133134447882284 0.2125394714967501 0.0281414954312225 0.8893697802997715
Ni 6.94594225659105 0.6941007442366623 6.416467474595507 0.31556331805915977 0.7590163926844734 0.20198972100536178
Ni 2.1397410448537606 2.2103863154049437 5.149973057467767 0.38119972511204675 1.3890084009777175 0.16375304612166636
Ni 0.4798561111832177 2.1800777872099357 3.3482826455583967 0.19248255284587495 -0.9680136553559201 -0.35955129360433563
Ni 2.1956005298742918 3.6822203114110112 3.3376051628338645 0.5222039075729715 0.7975397455706523 -1.1435107293873918
Ni 1.3072220266219177 4.982175380980325 9.026693147891732 -0.15861161113004296 -0.8297255862745774 -0.19706760111339608
Ni 8.050258528590126 8.016461114724164 6.564141557047162 1.531897202055865 -0.04031798289275637 -1.5614916278835302
Ni 6.290955279011466 4.221075904718619 2.541290329866664 -0.6217647352874454 0.05622051305562576 -1.0931158218746078
Ni 2.0569499744534245 7.414199222204039 8.772877648186887 -1.2520351940530565 -0.3919785608951056 -1.1688129555976066
Ni 3.5051920136096393 8.789930276546528 10.132611135585202 0.6743232261104515 0.4187535149961046 -1.0911075331953275
Ni 9.399748311829951 8.79763567645083 8.563286106504224 -2.2847141507978455 -2.387105248872263 -0.6847482780985175
Ni 3.538952113190351 4.6053943856598085 5.088519228231001 -0.30916409940103534 -1.4794161014380134 1.1130673252958703
Ni 7.744999689524188 1.02238343015951 10.522535155028201 -0.5655138832145163 2.548127526326328 -1.6609017889527524
Ni 6.010044011071711 3.076684090360124 10.337492681612076 -1.1750226839527442 0.17005610552155875 -0.5122686507371307
Ni 0.9187290100182891 2.53670906849499 9.849973149095463 -0.8357663931520187 0.24183976312276417 0.5831390524954473
Ni 0.30141546768510025 3.97342099350869 5.500179751689755 0.6211720960087689 -0.17004145023353942 -0.7438610251002737
Ni 2.6221960960047004 8.770265648219327 0.11670229283631399 -0.7693805095276168 0.6081648851158236 -1.3236321895647527
P 5.755691185659252 1.036152401417076 4.742475875385877 -0.5346894416344921 0.3039681570223926 -0.32399705064880974
Ni 1.2351961275164534 8.782215548070914 10.514576017984194 0.485766490681544 0.9537021238292543 0.7560336559070656
P 8.833961133142537 3.6540107117613645 8.127827464769606 1.8296327479049845 0.15568878105629316 0.8927628651417205
Ni 8.30328669687618 3.666837497316346 10.214352741712858 -0.7214083525237124 0.7500563552777082 0.7088156034603663
P 1.333136797728637 7.492335335519331 12.14454795488339 0.8126678594613423 -0.5866270110440478 1.2417718644538356
P 8.355284153373248 4.154731105542599 3.1153295627373043 1.5101873211825991 -0.46413451423406515 1.458862702766694
P 7.29967235219785 6.320200350076823 5.530668321311097 -0.14301607068463112 -0.11788559416559054 -0.9563413612243143
Ni 5.005216952122728 0.9234623271023601 11.496671214358356 -2.327671371085662 4.284608435366977 2.4457567399668845
Ni 8.413065324084197 8.42888658103056 10.798618887313626 -0.7868393284340126 -4.233092526875871 1.1039741047453504
Ni 5.9770488543386415 5.453212260844502 7.025937554168966 -0.13975256944201092 -0.37278039070009994 -1.1317900985163538
Ni 4.157772219790543 6.819698701016092 8.143241996006735 0.3739962653850721 0.7041464801194712 0.13881745922225125
Ni 8.086546670996585 5.123325993513 1.211955857805089 0.15852316518129475 -0.03458390862245656 -1.1965299618969005
Ni 2.558799125363497 6.309276593069637 10.625345339465621 0.8143424189502878 -0.4648245983225543 1.2609450949481766
Ni 1.5484495521973876 5.436542103908683 6.729373876423608 2.138092107929511 0.5472338539584058 -0.6727720795732478
Ni 2.063713188655142 6.903693157115769 1.672543804941896 -1.1741266545010358 1.787609095175031 0.6917455353519572
Ni 6.296878921795039 8.516556494227446 12.53731345714824 -0.32330979477379806 0.17499725157691798 -0.8580784263856576
Ni 2.878088135683757 3.30476765895598 12.099205501160812 0.6100495037330461 1.7705135731453248 0.5833745655450211
Ni 4.069374678031266 3.0788669760472986 1.3612335216654001 0.594545494560176 -0.04284332041777138 1.5966486354006373
Ni 7.0068951415483225 8.07556694256152 8.514024719973175 -0.20196812373880701 0.18931495375117074 2.9792187369521788
Ni 1.0048457160916078 0.5789283370956335 6.147592862220546 -1.8087918999002333 2.3436016691626738 -0.17041605996413878
Ni 4.0582456924551975 4.546932229243031 9.569835219717532 0.5840955028714456 0.23070868620660911 0.42855738846040387
Ni 0.5101497136641249 3.7366525250206974 12.452170653919968 -0.3790798505555665 -0.6197986127000099 -0.20619527444627714
Ni 2.840512650436145 4.817619383024051 0.7094760954742776 -0.66920158861317 0.6989978460389962 -0.68942820007269
Ni 6.374819135112764 8.18401158407182 4.325517656278634 -1.2808117519651168 0.5306407254864152 1.074994686793865
Ni 7.141898225585919 3.0776169474913955 7.0792941835062955 -1.298921317081634 0.2229300707024548 -0.22490904880569654
Ni 8.495306008777083 2.1263825307339546 5.229284570768461 -0.8112221281537513 -0.9458173217645388 0.9389589040818087
Ni 5.470880574910783 0.6346936035459062 2.700828489313829 0.3744395235700777 -0.8028930394627656 -0.6366282826628391
Ni 0.7814721431515412 5.912084683716902 13.638083939191354 -0.2958308726272389 -0.9592071128078835 -0.5139123569881408
Ni 8.761142305475493 1.48751532438274 7.9999504763577916 -0.9072947402093083 1.2028736447267414 -0.7764916666511015
Ni 5.592347901973631 8.158124798679037 6.803661021215274 -1.8340918121176024 -0.3124263150920748 -1.4455798696148587
Ni 1.675066250624854 0.8484634123195338 8.494472967358858 2.371940882426999 0.2763719925716789 0.420355826486218
Ni 5.773928542575608 5.56350395947472 0.2517874683014621 -1.54767914748047 -0.9487442656033467 1.2905302648044612
P 5.151311707451142 2.9165498352060766 7.9989812377984 -1.3584534110089959 1.9033614450477023 1.8134592234689155
Ni 0.6477106919556672 3.3409905013632484 1.2358472617940808 -0.19572548526320485 1.4194718596738973 -0.29129596087136284
P 6.9156430569673555 2.9321565350122465 0.8066089114107803 -0.07346258796552509 -0.0292997774053818 -0.3232771417636497
Ni 6.658193145879076 3.8319625381226956 4.844848549828732 0.8629010445852817 -0.24914195321113222 0.1952320905665541
P 3.677406768613651 6.774828273001939 6.034079075058918 -0.09874090291633962 -1.1164349562165226 -0.9160904841240675
P 5.722724014640121 7.175509068025628 2.4886837176628758 -0.48707003998431603 -0.06129998446106216 -0.6943382357797977
P 0.06410127777531387 1.542759123696632 11.980954665486587 0.00032138789516073684 0.5423518432757563 -1.3439850421894917
Ni 3.1412004895588534 2.4365202125964425 9.678105416944286 2.2044669358103195 -0.4961478339158681 0.2236093561576665
Ni 5.371727190427947 5.786708685274027 4.452657687556743 1.5165585148162655 1.8322236485606125 1.1824400594627378
Ni 2.5837903679102574 6.277764679175289 4.05197409396166 -1.0710233608509427 0.8624115065433727 0.4161782980697607
Ni 1.4010674540278198 7.904042501834648 6.496161459320022 0.8111601645675642 -2.9807233465221636 0.28184330009889524
Ni 7.248784995686995 2.391155370302714 12.255044882082485 1.3424722050893911 0.8843998378890059 0.46410674631992327
Ni 6.760826087461555 5.5296972170374445 9.132137720867863 1.1133673730347922 -0.5633446434773395 1.081001555109577
Ni 3.3122398445774635 1.198581485114051 3.2142338743660908 -2.0480268784102984 0.17485121291735695 -0.39724880815510943
Ni 5.040618880254478 6.685777731250771 10.180820259272176 1.0952372390929848 1.0514850337076989 1.2256862717458827
Ni 4.661888213529604 2.515421268759377 5.9915491855871235 -0.10559340706179879 0.12504997312451366 0.07217343684045635
Ni 3.644113097598575 8.267175797324665 3.379766573738806 1.1471629814279984 -0.7777317097057896 -0.332905151771717
Ni 0.7601544919877273 5.557981445257593 2.6367813172521286 -1.5707283159904497 -1.773366469213088 1.0195491042310505
Ni 8.600205793188552 1.1865103138353992 0.2367815284878304 0.12238939557321504 0.631375518904332 1.2999132486812581
Ni 8.714919234620995 5.60826244463312 7.164586243875571 -2.0005144346516324 0.2696524144596582 1.4480884949693256
Ni 8.365377667533604 0.022005166869560923 4.199265704989495 1.1393152032488056 -0.08977932284767763 -0.7451496620047103
Ni 5.19375670692399 2.8744406643004856 12.9658764189685 -1.2513533374946837 2.5888000643450253 -0.9764941820231053
Ni 3.9851003647922076 7.270222052563612 1.0149597531088523 4.019727474154032 -0.4630106850422671 -0.3413494258843283
Ni 3.4606387570201176 0.35816303269460176 5.5190766385979195 0.6589418585583748 -1.0727053765390557 0.017364202310060417
Ni 1.4004984111777445 8.289956168470312 4.191961433651639 -0.9463528825530347 1.1152900439788018 -1.3260487694260452
Ni 4.5041887154881755 3.030246462365434 3.655755154596842 1.3028265656733111 -0.2806377098265683 0.7356790035101137
Ni 1.6285539940596623 1.2164643563205235 1.2540435729966606 0.6049103827342679 0.9254708968977029 0.6865066555505209
Ni 2.1785105872294 1.3430903833193026 11.52400579401887 0.08391489364710064 -2.174156971972869 0.5220159599318815
Ni 4.1735095195950915 5.2060517639141475 2.72083081192255 -1.15738311649411 0.5652320903080394 -2.4700796329829653
Ni 6.733456059230051 5.013603337732858 11.763375068188846 0.33658620016773 -0.7832981480499736 -0.8897261351979256
Ni 5.993812296987589 1.128141443131748 8.68131865360973 0.40657857019646754 -1.0607358628820054 0.4321744163877009
Ni 7.257899009859517 8.787448876577345 1.065785541049043 -0.0952089785036812 -1.8911201657865044 2.3083626434547213
P 9.187299428754203 6.756283073232263 9.234850888163631 -1.0057888172221647 -0.016797788283629135 -0.8451041256131768
Ni 5.844592470269417 0.9667011879939206 0.3149297689458289 -0.9859193319917472 0.46366297391428535 0.48428142149558534
P 5.7198694718184315 8.892283360989627 10.433284048993812 2.69050262099285 -4.10174977876411 -3.376382441592649
Ni 7.854293231023944 6.845669443550688 3.162502282151436 0.3226027414044444 -0.8560349135930676 -0.5522835005671713
P 3.3714762724131973 1.6986115646181439 13.677336701560993 0.08641991945714149 -1.1799188357027808 -2.0762635046584887
P 0.23003883714300077 -0.018421129771216224 2.1562535489343957 -1.5024197614220383 -0.9843722992196015 0.9437162162611361
P 3.1085411613930423 8.94004564611072 7.566034780318296 1.0068468261730337 -0.16236362197330748 -0.008438103465024178
Ni 9.24685302801457 8.036004471624299 0.14827484244419434 1.0394707828556422 0.9471311554799561 0.2339058529876681
