# total energy = -381163.95296758856 ev
CRYSTAL
PRIMVEC
9.25581162270349 0.00000000000000 0.00000000000000
0.00000000000000 9.25581162270349 0.00000000000000
0.00000000000000 0.00000000000000 13.54681590159993
PRIMCOORD
 96 1
Ni 8.792817357256064 3.7944199503642437 7.60790502138652 -0.42513165060830654 -0.07021579889345328 -0.8688593190512455
Ni 7.4603044455492995 6.063380341173709 9.14066001161547 0.07407965272423372 0.8702608273844625 -2.121045179749553
Ni 6.0828453128912745 8.44054116915785 8.372718284346803 2.0444162782409045 -0.2856873564353338 -1.627857971123906
Ni 6.128559766202286 9.170713631761421 12.379201835761846 -0.31783360215057516 -0.92264988250914 -0.3040560887505086
Ni 3.4465402727585843 7.36684851619492 11.526728632648107 -0.2640810910194678 -1.028483687716519 1.3333496739628325
Ni 5.074563480246003 6.054716901550485 5.493788804543693 0.3376390669122766 0.033109123849142975 -1.4695150402742174
Ni -0.07683249178673883 9.21209636526082 3.0758181777959206 1.235156673130163 1.692398831119769 -0.743655593957687
Ni 1.9726540952343696 2.213647660907339 3.1282579037888065 2.0061590345319193 -0.9851652274345422 -2.3979010539361862
Ni 5.160559225480385 5.668814350042895 2.0858572985589943 -0.6221282892744512 0.10055507330694294 -0.12959311241050583
Ni 6.990784892379091 4.024954448970713 2.223344049101025 0.2408887120634045 1.8520972475560875 0.7047728008495604
Ni 0.8380720859024409 8.261404192162242 6.473942225848174 -0.08634869989957387 0.08576917324702003 1.775132559974575
Ni 4.376638265128879 7.196439769503479 7.332430780896885 -0.14326675324285648 1.0576713650240688 0.5143509871874561
Ni 1.3721277851975784 0.5891064897300234 4.8706088957057885 0.030723397225785796 -0.15793052590261833 0.07059272261689778
Ni 4.681061907444966 2.326003957473924 12.23013328821069 0.5490606227544995 -0.463414348238589 -1.3883098322487961
Ni 9.144908429123014 2.7866194199202625 3.193364207906033 -0.5185709388060746 0.5054559986906715 1.488614737218146
Ni 0.6900031660001188 5.697627691439368 12.933713804192976 0.4321990989780492 -0.4983600110758385 -0.27847052697192043
Ni 4.24148490468195 2.8015582997833874 6.538980036959832 1.1012407649745872 0.9898932290378307 1.0399412947341575
Ni 4.906774128226969 8.23561750114696 10.151225252973402 -1.6978151170393339 -1.1882116718391924 0.6588153602828396
Ni 3.1375905385880563 1.4912315683937905 8.62547413535438 1.6727052093455836 1.5044514471400863 1.4023012614318817
Ni 8.20898853127942 7.510396897729739 2.117625095006464 -2.5721205468068153 -1.8093174333864 -0.4016214833015083
Ni 6.428522107344875 5.336826900891377 0.251799725673092 0.37099733065774815 0.5763032605205365 -1.3834260217939336
Ni 7.817449190529796 8.978331588418769 6.523483031659443 -0.08884241285570506 -1.559966192377939 3.004185948420478
Ni 0.694820815918803 8.223446108941253 0.9300387551762893 1.483344232847826 0.23560329529474908 -0.04493928371485163
Ni 8.183877514508257 1.0470266598491367 4.907699709383297 1.911121805719412 1.9285749681988527 -1.7906712790401225
P 2.6668584741030585 8.842770972263056 8.05890554678093 -0.6357397094102987 -2.416014989928078 -0.8694658422869929
Ni 7.8489652289027445 2.6657847999617186 9.4935674460623 1.1250939174431012 0.25047044221456866 1.992115926175292
P 7.6527235121382065 1.9209233644072303 2.1000409041985555 -1.3261855521142256 -1.4706087875590286 -1.099694246423074
Ni 4.2183361199622 4.145215208612335 4.52439248743805 0.15410241040577977 -0.9233201691032874 -1.1208228008715728
P 8.077241309487775 0.341079432850122 8.66872931953303 -0.45043876191452753 0.21652288162453034 0.9594436542987219
P 6.2290130890985 0.9236689056584441 5.5836858743519935 -2.098907724420566 2.143326873965889 0.21782617381698613
P 6.340971385767865 6.634824891278693 3.533416245672632 0.23279359376009584 1.3486623930605033 0.9366384834787482
Ni 0.49118092897173904 1.5589841090369574 1.2173983832943245 0.1985696395802193 -1.05893711911037 -0.17779126938228737
Ni 5.6862152757818505 3.0199491736188415 0.686628497104149 0.7802879004687401 -0.02057936681324843 0.03783429723895419
Ni 7.997409934754535 7.208712975636382 12.904723676795644 -0.12523946342750045 0.25624385436323616 1.2664025185183223
Ni 6.449690148390083 3.8949473197529643 11.182110703037344 0.2006972274461834 -0.08207038423919415 -0.15620814389487292
Ni 2.4416275555223446 3.974362182965857 12.747648852242255 -1.0262733103287616 -1.1492329765831497 0.17658979287501847
Ni 6.071071920582789 0.7074846172996747 10.122695139410766 2.4783698980162154 2.8925211383536182 0.39201969854568613
Ni 4.028443889930068 0.27506791036200695 4.419269607608164 2.713188235515824 4.783763431540284 -3.1124486747843236
Ni 3.1307597496543598 4.353915247741041 1.9937119921219748 2.12940743567132 -0.7602893458596262 0.4397907952823781
Ni 6.204244537355179 4.41867816124927 8.346098570290826 -0.613656247247698 -0.9165730801874408 -0.08420337142179692
Ni 4.567187657782004 8.020993742617758 2.5830258120310154 0.06595985183057672 -0.3516194403517686 1.186902980330098
Ni 6.468016655285366 0.25034934000112696 3.128217178217928 0.17384308336781673 0.13662662221851954 -0.17451028463817042
Ni 5.86985057719721 8.152981615510049 5.449924587964181 -0.27700396972872293 -0.6646458509216875 -0.644910063055657
Ni 1.2452028412304 1.4597432974555318 7.72740217657417 -2.9044207180046815 -0.3560088276687159 -0.3058779724505958
Ni 5.773645671808538 7.882684150427753 0.7371504189411248 1.6856376011365355 -1.901146439674255 -0.877277882132244
Ni 0.37611175403595837 8.118994275449705 9.327510781967913 -1.1014827057820642 0.020257207587139305 -0.5749305485427261
Ni 3.369106153220233 8.021049277487139 0.23211539122147684 -0.39270566886911723 -0.9556669608651089 -0.61911855591385
Ni 1.7642132188294355 4.426055043065199 4.041137309907942 0.6137765748756462 0.12186566185926108 0.27679673881392325
Ni 2.247172210389518 0.9149193869876809 12.8933584657771 -1.392776095550266 -0.15942459394964156 -0.1856076801029126
Ni 8.290865440368142 7.615209707872255 4.507946761452424 -1.3268054450864117 -0.22540655726740533 0.352659965801141
Ni 2.9090460394676905 4.283006475354798 8.892712554715013 0.9794002999263068 0.4966168031324867 1.5925829499716961
Ni 3.988319946803274 5.598710833262657 13.250872517638971 0.573881024232289 0.60215544569695 0.8420933638113111
Ni 2.2019390592797974 6.360815845759524 7.16473491257464 -0.8453563508332989 -0.6789393847262242 -0.35868328917708553
Ni 2.6312328553960165 2.542876878213001 10.64656481808052 -0.5077517367033836 -0.4892557347817251 0.580483102929839
Ni 8.26555079574259 3.852999981748206 0.3768670282595215 -0.6125501586677128 -3.312664591718714 -2.774099983399532
Ni 7.495717180590386 7.8639596436352495 10.594652673346742 0.37804189620935535 2.185714337793165 -0.4404700807375898
P 2.2638419270149748 5.601950367309803 11.238329576891516 -0.27379523298343816 -0.29975797559578704 -0.19477571975542585
Ni 8.667438133819953 4.195696404878432 5.107623387987706 0.7885786797226225 -0.15799197526817307 1.0177218212143246
P 4.366003337642677 4.913632684595355 7.134809948209418 -0.6957202037289889 -0.1337467295675632 1.1253489708767006
Ni 3.498446864005426 6.3037722790950665 3.748444483167148 -0.3334877637480644 0.010166399010040557 1.1433286952835728
P 9.193084928309855 6.0268476529334665 7.2738812936910815 0.9777900180163933 -0.1180822835574289 0.6172123400300725
P 0.893123801918483 3.079686181448213 9.368002180813768 0.05187740559558162 -0.5964730506001921 -0.15735768411828385
P 1.7460440607307284 8.03784857547448 3.7113536694896396 0.7354414335780108 0.34522382123806994 -2.1312529735204904
Ni 8.812587770755218 0.8617521542059216 10.933499604447801 0.5132035038465742 -0.15560290621070622 -0.3714634716608893
Ni 4.526702738004243 0.6351893243412529 7.0606820045614676 0.7911924631963857 -1.886780657870886 -0.7313212407620502
Ni 2.2852135959145747 9.107394624857063 10.332928866515505 0.5042678919198412 1.4724766940057028 0.5546681987492641
Ni 1.0268397348296359 6.552540726481185 4.900709720490712 0.2468989228132264 -2.266791247770838 0.5832884335891181
Ni 6.577309278224507 2.0230242217617076 7.893377389526803 -0.46027657394055566 -1.699990270313782 -3.0791310344688
Ni 2.43774011466577 6.932630628327039 9.415741805694822 0.40032821841138155 -0.7287393389674869 -0.2589080314589606
Ni 2.854214611766854 0.16783933340147575 1.8731726325522988 -3.6435982215863576 0.37999850571509397 2.3251090096751246
Ni 0.44014068168722004 5.159430016469664 9.439746752984174 0.919746849929732 1.344021551854382 -0.0315237816398941
Ni 3.077742461019925 8.183118537960068 5.4543544193783635 -1.6983416789667654 -3.9167943875332156 3.05090906350863
Ni 4.694621671385162 0.6123839302305016 0.9384513623061491 3.67222514129443 -0.6259031829358511 -0.5874860166102334
Ni 7.262156031602726 6.419007133057829 6.560248966351081 -0.09497475100568804 0.8103741783311591 0.3245544658141765
Ni 4.95669997579927 2.5694225457764714 9.352979073065416 -0.267366703749275 1.4989485150439863 1.344686953352523
Ni 2.052513237402299 6.321237995514964 2.0384166363914327 -1.6330533992819165 1.3137761227062792 -0.9153132396384107
Ni 2.5209961396774214 2.529844695531911 5.150011302622877 0.823222495048737 0.028033509098448497 1.3537102398970557
Ni 9.020612135639805 3.7624040981668783 11.407110226328976 0.8578719668018063 -1.3231930451448048 -0.8939244895499896
Ni 9.152674055024601 5.204098563074026 3.058464456695938 -0.968139639410823 1.4696268832617334 -0.3133506266785571
Ni 6.534880638018459 4.298935727055192 5.9957666377039915 -0.4585315662249909 -1.3939158655816637 0.04138499070469002
Ni 8.429230567427528 0.27620637518428964 13.190656058770621 0.7569453690880577 -0.6895616403267608 0.558892778353573
Ni 1.060910377194048 7.881582708851722 12.225703456796507 0.10791614165770448 0.671770892002243 -1.332334859545073
Ni 6.826633074304423 2.8036871364429405 4.02190095673599 -1.6511213125272208 -1.1913869842433806 1.8280708027345036
Ni 4.223408304698874 4.322769441830623 11.16302336843156 -0.6011773980543968 1.3912041230774557 -0.7841918635088366
Ni 7.996697237264163 5.637751846436546 11.164581121517658 0.33347953621794824 0.6816462421344259 1.4997962077562623
Ni 1.079172093408388 3.7955306477518365 1.3866520047026685 0.47720446004414585 0.9688657189435701 -0.5238044192908721
Ni 3.5660698232867065 2.3480050215598265 0.6421654295164926 -3.177898676858017 2.4228268706435885 1.834066358196306
Ni 7.130612437665474 1.9719506535555607 12.54147935199495 0.1900024667364986 1.62720156848683 -0.6466468432411057
P 0.42942893096504287 2.43875825393773 12.795942900235952 0.8440476593242044 -1.5343600617740607 0.7670518613944403
Ni 5.9918791968474165 6.625393219295717 11.713403542580844 -1.972472183802435 -0.7176239457806157 0.48379625432905066
P 4.562235798595652 2.718876135088659 2.798176226238167 0.014232084438981944 0.20258467427688337 -0.3012944668449714
Ni 1.9212935968697613 3.9330720075820906 6.983817117434258 -0.8039744454524025 -0.24278155821074318 -1.6063008137784207
P 0.5141649602456615 2.3146007976279703 5.946699729444763 -1.2501577745246857 1.6368509186511357 -0.8169793423525028
P 4.024269518915031 0.3082611017902207 11.888130125366553 -0.022174736324826326 -0.7433051525968037 -0.5084595614036856
P 8.638911722581941 5.661381933357585 1.0507123240136325 -0.13237813135481072 2.8227449981007453 0.5219282853140818
Ni 4.721796734134936 6.0267828622525235 9.352450566225155 0.5328166500918113 -0.7006438662828515 0.4940999502479039
