# total energy = -340865.6777836048 ev
CRYSTAL
PRIMVEC
9.29106158803123 0.00000000000000 0.00000000000000

0.00000000000000 9.29106158803123 0.00000000000000

0.00000000000000 0.00000000000000 13.59840778898045

PRIMCOORD
 96 1
Ni 3.939967601032069 2.399100773636034 10.044694960686375 -1.4667469906107773 1.614539142527813 -1.056412295805987
Ni 8.85186386964977 1.5346325250324715 -0.10854840230065972 0.37096596319918046 -0.5538480168408139 2.0171445870091453
Ni 8.699072360903433 6.0111961002899 4.157292036643682 0.6185799098015605 -1.785901368455305 -2.910989629471451
Ni 8.00293027611607 0.2285796276879476 6.972842349953395 0.3388865661661325 1.8216592427812044 -0.6870051924534942
Ni 7.276861681771277 2.6397021059859997 1.5117486402016882 -1.1166115910037027 0.4091974958765533 -0.04499584798439993
Ni 4.712956056682366 1.3012875118269807 2.4482978741506427 0.16081504653926498 0.7761175711411342 -0.7263240446577749
Ni 2.3434380233229106 7.903190729360707 7.704381521394561 -0.4961527190118745 0.22730223162822144 -0.010823572978065231
Ni 0.7491633862749104 5.756704630781177 7.778860529750437 0.8833528846817302 -1.8425635970340397 0.34565808056201114
Ni 8.355498192345765 3.5051644981855405 3.8790414642972486 0.20365091075786862 0.8712468454468155 0.26837843284324103
Ni -0.254645701132025 3.450718876947867 8.926811147512538 2.788388632108062 -0.9145352238218056 -1.5111018625770687
Ni 5.801078741196045 0.5920468883329852 8.243449847123562 -0.4245158714011786 0.8584232113195862 -0.35988990789067693
Ni 5.191650134738241 1.2998752704569934 11.412709019032933 1.0814265584621376 -1.3008378173780564 0.8589297186423595
Ni 9.040899809871906 1.689449485217345 2.560580354126289 1.7600406986384591 -0.6666685377786712 -1.7800500518808504
Ni 2.2680782223231204 5.319457978722104 1.0217055303468683 0.6894158587775159 0.6808671978765565 0.6688444623840675
Ni 8.393331395362797 5.813705293971131 13.401407805019794 -0.2189831702395648 -0.4124165170344833 -1.0825285332770647
Ni 0.5544617566618655 3.7110358421077887 0.6724981911140462 -0.22231531993659132 -1.290355429789494 0.20001871332192003
Ni 1.957821800823182 9.180414391528034 11.053534228867726 -0.18918357037962905 -0.25162975262999243 -0.5160152622637565
Ni 3.3066795482707927 0.38790646919513605 0.32749041174460747 -1.021819388322466 -1.4207543259307467 0.03931088178448069
Ni 2.7004935223269726 4.874871387963755 3.646508489879501 -0.4868119012269229 0.18595683591221523 0.6012488747222806
Ni 5.75216130163694 1.9193753877376027 5.498760602765299 1.458301173836269 -1.6327708350444912 2.2140818331922643
Ni 5.858348845173693 8.373337030703501 9.996801396120512 -1.0776534645729505 -0.9801034966409184 1.5536039976053373
Ni 7.2607231076945125 3.459452474893842 10.157221795583274 -1.616404734981642 -0.47066948713910556 1.9687944778405322
Ni 3.1251972411657616 2.2631632507130983 5.9333527985124945 0.46570957203066893 -0.47855711741729845 0.8027122909105273
Ni 0.6243714209009017 0.9381928227538939 8.00376461345176 2.710694779670009 -2.445189297499189 2.6988070270934874
P 0.6983765851129015 4.84743488292709 2.5492387551766598 -0.3831221389457402 0.7310836708299473 0.954945252207736
P 4.3816553805572855 8.088658901911295 8.392773931664117 0.4502788392978955 0.7037901252213169 2.032427738420461
P 7.713188518727529 4.830729554090003 5.644794722377481 -0.2927936284628119 -0.6845379618599243 1.0858709673867364
P 6.469449842727536 0.9207033283139968 0.22638879535213813 0.8077714506009894 -1.563341279497759 0.4598297162111242
P 2.0660162136751805 7.845734804150166 13.684757311996814 -0.7298238302809172 -0.802615874541979 -0.5779482523231272
P 4.90967570488463 2.606031298585773 7.7288588232974025 -1.7372134163312982 0.17579017979185854 0.03234704887213784
P 4.0877419364902945 8.692429251827505 11.535420715704703 0.1343727931873363 -0.03399384044694145 0.47321667904099146
P 0.05234305398748849 7.84803898743804 7.625388915291711 1.5564304113105387 2.695482076485313 3.850181989720305
Ni 8.268255123502462 1.0847593201983141 4.530391340895733 -0.9242028288185568 -0.5399961985593862 2.20983771320393
Ni 8.027746701768942 7.8425479700060485 9.379216166644865 2.287797931929492 0.1697480873628367 1.9567915398423845
Ni 8.733867386762663 6.777829469775254 6.189736857278234 -3.3458562479793343 -1.526984595245596 -2.101269539784523
Ni 8.72036747419298 5.482376744661116 10.153278669021283 -0.4022498609141266 0.0005309328028055372 0.8087307291904653
Ni 7.828592795415778 4.9925241015700115 1.7365979066393074 0.08802608760199679 -0.5886363281645927 1.4668444354205898
Ni 1.6352918868906554 6.625418894556346 5.601524390085997 1.8213314271281407 -0.12535027797375184 -0.1822243654529765
Ni 4.250196149347073 2.834721489907292 4.12393433802088 -0.05890783007980178 1.66908663875639 -1.3175160493646858
Ni 7.354349135887693 7.259803292591692 2.3477927439157606 -0.78310711508509 -3.5118844632884225 -0.717674339402577
Ni 6.807049858647692 7.768581828252956 7.579126861150648 -1.8563030581073192 -2.1423611676185104 -0.953793140881164
Ni 1.4323843916330519 4.023559282649023 11.09011313856273 0.06853686852913357 -0.22363146764485356 -1.2784702483161337
Ni 4.493231739847938 6.2667467508261145 1.9714973144579484 0.003407997240284453 -0.5364485904174439 -0.34359245628223406
Ni 3.604727514769655 6.70887121024863 10.625292473754651 0.11089245067720901 -0.036176192810240926 -0.34717271743432465
Ni 0.6359917516998707 8.815842423653447 5.441294457386949 0.028280077891615817 0.3499384531049199 -0.12781956544985082
Ni 3.075963905510739 1.1784318036997181 8.143882185008627 1.3111407419659613 -1.3369582172496974 -0.7390450917688691
Ni 5.211356476486552 4.339687655108382 9.212758435325403 -0.8590929836931012 -0.47044580116407364 0.6647016438602875
Ni 1.9296048466083673 1.8811798333164296 12.343193047940257 0.5951913556742912 -0.0868210115503021 -0.1767635994487214
Ni 8.0062657672465 8.390209598650191 0.387584998462231 -0.4851126591476291 1.1212413764662301 -0.3763305699452035
Ni 7.34422187869502 0.24503409786063024 11.816458606544533 0.946001412750887 0.944444095566096 -0.45299238157431665
Ni 6.851925686391371 2.6936367188332175 12.680121320103504 0.6637261673208955 0.7694962091698747 -1.5992066259358007
Ni 1.1800019931176646 2.1999933225910944 4.7107605788157345 -1.1110448955492025 -0.8535813098462525 0.6233053403016878
Ni 2.149050431593455 1.6104011327446268 2.7470686852454596 1.1514965758063458 0.6847817024396142 -0.9595267009308315
Ni 4.654849757156699 2.140502654880373 0.0994106431731423 0.843812917605579 0.92753652117748 -0.5425192220915559
Ni 1.0775494563620625 -0.14684894571841783 1.3954821529928143 -0.4086436802556123 1.9585717716712594 1.2609864897090735
Ni 5.886008335689829 4.768990449461275 3.1949870507095817 0.3749087498970124 -0.8486998133842351 0.6423932101710743
P 6.547439014172763 5.987615385835769 9.962614934799007 0.9784394786749343 1.1628243421143392 -1.0995127265398872
P 3.3410750584793023 9.067202805387922 2.660895946703621 -0.8808437451066313 -1.5243754397575229 -0.03905248591677145
P 2.546940146525772 0.13485511424133367 6.151402866038555 0.20775490562391316 0.5928087143747274 -0.37962261043291395
P 8.632353247233171 8.59705650404513 2.9776839845397514 3.836806596854663 2.31956056905307 0.7580897671051461
P 6.31402896353576 6.415979782962551 0.446536784597562 -0.587037359108589 0.27271408410411746 -0.4350836196146958
P 5.021595833456134 3.655865518061832 11.578691047996188 0.3495237341650045 -0.5307759655126988 0.11995044711441921
P -0.16067218723333437 2.2590008550962932 6.832656024540358 -1.3902996089853152 2.7455908202162456 -2.8280918642349553
P 2.3274016509242377 5.210817594911162 9.360898838612428 0.016186379951875347 -0.6454764770820883 -0.11701681840739202
Ni 0.473099000733464 7.003277080582789 1.2161079877749554 -0.4937423097981691 -2.281433680274361 -0.3861773808322962
Ni 3.9458302609298457 5.970612743026051 8.026174654138666 -0.6070490263438255 -0.6478938282743293 -0.6632412572646771
Ni 4.318531907743505 0.16276917984653283 4.888205919636163 -0.7186917249234978 -0.012170831034579038 -0.877909602178972
Ni 9.154232179813398 2.1962676068715883 11.415305870762612 -0.8078586109981571 -0.8143113086020363 -3.120064282348052
Ni 7.433899205689222 7.226476254472317 11.943427467661884 -0.10216664076843694 0.023321191224443705 -1.344326998909943
Ni 1.0496391071815212 7.3286407683169354 3.3779940210305006 0.9191619239605395 0.7977410629481809 0.3817568831670974
Ni 5.658247250532775 8.161082727431374 3.331895489574384 -3.4711944417682283 -1.507380190751107 4.197458579722345
Ni 1.3279993140553619 4.306695095208216 5.623838732837964 -0.6916187799661057 -0.4073298465401953 0.6126123793642159
Ni 1.159413000513111 6.150339039480242 12.313915983591787 0.7356041844081203 1.1684771695247425 -0.19711208119808632
Ni 7.127015439566293 4.9148786994056355 8.026596468337333 1.205622154006156 2.5653125227460465 -0.6807440420351308
Ni 1.221319344251442 6.978423490683339 9.726397125332989 -0.38981497758488354 1.8399179318810763 1.1937002057575892
Ni 3.3165373646757708 7.189079731352583 3.861933832490947 1.0262897653889937 0.8570880374479303 0.5990588090494974
Ni 5.602612373404586 4.172717986292302 6.006607244943606 -0.7218716653133762 1.1867286595357627 0.2730488417357168
Ni 4.718251961819819 7.6130030010132215 6.441606389190836 -0.009258028263158248 0.15930992274864822 -2.7035509695363764
Ni 5.327940718003673 8.321520779911264 1.1588453166466226 0.013152735331874122 1.096119641697938 -1.8592832237815657
Ni 6.8660666822145355 0.407980736984576 2.6793349876436015 1.7211843878928939 1.9515349194291358 -2.43197177036765
Ni 2.446884703674491 3.513758730206846 7.7899568446726475 -0.3053087302106871 1.271682793080655 1.3132449327931577
Ni 7.037208037709066 2.750200702125873 7.667952197792037 0.9473985502087298 -1.5264312938452873 -0.2000192275425523
Ni 6.563298856400188 6.488143458756579 4.875953796645358 -1.8944723700881891 0.9948089211718932 0.7790648266949163
Ni 5.690542980809593 5.771969845063343 11.879324716950757 -1.3981152483749921 -1.147751249831301 0.4634452014765244
Ni 4.032172096793617 3.815959801260869 2.027073657897777 -0.4876613937114117 -0.7789833227247035 -1.3654200721348162
Ni 3.2707324307676253 4.605421309207138 12.590289761486 0.8340540384466023 -0.09562498299517726 -0.848949467501196
Ni 3.8542482662984887 6.999588529109861 13.168698300430798 1.045237253025774 -0.14009658304499098 -0.5899437341221065
Ni 5.6601147539233505 4.260128294245209 0.31677595945599224 0.22623496670597168 2.011527240822368 0.6122542246938488
P 8.77462727419776 4.005757608537865 12.397817986667672 -0.24176622957235136 0.23496231927664052 -1.1475705012790622
P 6.502721134477043 2.319188352430363 3.565366861218242 -0.4487672877493755 1.4898648075751633 -0.10126649755167076
P 1.8334330675245514 1.8316027283805545 9.710147058516489 -1.282284222745585 0.625123110236717 1.7987365725467603
P -0.008829295880914906 8.204741426099604 11.41496581790642 0.16141668467900586 -0.5033438374436751 -0.12754522874254165
P 7.411386963324225 1.2379317624720836 9.776819716878524 -0.5352381150491105 -0.07664381390698413 0.07616327472613979
P 2.7026118843819535 2.9599371276922968 0.34664765174972 -0.4323471945201393 0.7795847037541284 1.6810178429763374
P 4.07186351213958 5.744970019923978 5.440981348609523 -0.27035766805679895 -0.36859437764321035 -0.14458932870902197
P 6.533353764719467 8.97483107051677 5.4965855652342865 -1.1152630473956082 -1.1255526022470745 -0.4514808300257966
