# total energy = -381164.7985767166 ev
CRYSTAL
PRIMVEC
9.27299213164628 0.00000000000000 0.00000000000000
0.00000000000000 9.27299213164628 0.00000000000000
0.00000000000000 0.00000000000000 13.57196131306924
PRIMCOORD
 96 1
Ni 0.5532869670557556 5.606905237332432 9.212904698057164 0.6852642985029875 -0.6327906540843037 -0.2880746257205878
Ni 9.154445902959196 3.257991495718758 1.7758641743687131 -1.8047475546275304 2.6353084923192096 -2.254382332583524
Ni 4.462933327168432 2.5101432505709353 10.164760618074805 0.3274978647132166 -0.2232630285618413 -0.28314093586439626
Ni 0.9458544397049287 1.1537456435533695 7.755248802147862 1.4017176210142697 -0.10197252247975987 1.601324443609752
Ni 2.164260655292518 3.9345860716408616 10.555986288806103 -1.3388572340446232 0.8773113064733408 0.6735557518168077
Ni 4.984529844643384 1.943748909562739 6.181118565052124 -0.9040060421557077 1.125293435048417 -1.295738548478278
Ni 7.37125884694192 1.3423675703779883 5.672577492775362 1.4782629616701766 0.539993884566541 0.05952540905914265
Ni 4.029560053969053 8.461345401578766 6.344619957007863 0.047318068359673345 0.5203946222783747 0.36152358683935804
Ni 6.670508127301312 6.477768992103942 4.417795184835007 -1.3931887576076523 0.8067250116143462 -0.26180746449394265
Ni 7.203195143005566 1.7378977639170128 9.661322473202379 0.48606139621414346 -0.8302804303367829 1.7551669154859255
Ni 2.2291252331470095 9.198047510546303 9.813342046673567 -0.5073814978481584 1.2772721142429744 -3.405745982356431
Ni 3.882119483863776 7.289443240021237 4.410697636887926 0.9664609661568193 -1.552079847651327 -1.0168576734418167
Ni 8.386382535620838 5.855069044700824 5.798308134407025 -0.6346009678201652 -0.5908325644849631 -3.041986564208019
Ni 3.4980970731864276 6.468987468840439 12.66817724037188 -0.31887104227615404 0.09271603687849839 0.6409454219809542
Ni 2.751398679025589 0.9945654657906533 1.8778160830493718 -0.7656724645484104 -1.557690251859569 1.5356029330422263
Ni 1.9438509124728747 2.672114598874638 0.513516959693019 -1.2648104914408542 -0.22490853458506427 -0.3307384831377014
Ni 0.48716868070577785 7.067633275435186 11.21485090434825 -3.224257209517899 -1.115330410298434 2.933683471524541
Ni 3.3279469460882054 7.6477052793934 1.4296431148884818 -1.0901904206976967 0.7224203387279946 0.9830620650486102
Ni 6.8445992759275045 2.0448152475235823 3.0890867314233756 0.6829832157782946 0.21332957149821324 -0.2971125675531399
Ni 2.6960018258300593 5.481525114791964 2.724149992531604 0.4436579915472682 -0.12132238776128139 0.3490629924785021
Ni 7.746295728535495 8.329724555536357 6.16657016816922 0.006324913776763301 0.06823065014262443 -2.4579152297062894
Ni 1.0922100697660349 1.9853197319389628 11.312066168801877 -0.7977384918450197 -0.05509154165750512 0.22618945818001693
Ni 7.9901475947026945 8.295970865273263 1.3411917550138783 1.9033087374328965 -1.2297069628695017 0.26860494703175025
Ni 2.6529380517691217 4.982981255007687 8.541541016826658 0.617733245530549 2.1635578563007836 -0.4547011367353072
P 6.063470263099944 6.37371675077367 10.848665093456908 -1.588580256570206 0.3862473148382832 -1.1217733377103003
Ni 2.097300381284329 8.46157722637453 11.720053699566025 0.4944089968478904 1.1497464258844585 5.422216426116687
P 2.69245026995897 0.8537170655776933 6.346059125339959 -0.16644087736647464 0.7592601332641634 -0.8456324873128211
Ni 3.6983566047583496 3.113249366236163 7.830207031609875 -0.9688199533072993 0.21752998273280602 -0.6960138237100078
P 7.348744022777416 9.196341280049488 3.476457619450725 -0.4191466366694652 -0.3582634280308475 -0.09356501514235499
P 5.483286983239763 4.271687143655775 6.8690679194707 -0.3045109168997401 1.5841983254524263 -2.7342568832606653
P 1.091570233329729 4.072902017784906 12.693583383389141 1.2409539965382306 -0.49422310608932957 -0.5678353322588414
Ni 4.170620805694932 4.835503592935087 10.994984558849875 0.9416187103021588 0.8168597860555028 0.6579162455073378
Ni 5.684501632970229 0.09559712737920266 4.896627445885146 -0.4096644082106428 -1.3705957027984845 -1.3686882013631267
Ni 1.82281982310092 3.145296826002442 2.8536946157031595 2.6586294264333374 -1.0498115026600177 0.2539419457029369
Ni 7.524847410630833 8.1872728550359 12.144923639256815 0.2423071896774859 -0.5524894459303905 0.3943444900241208
Ni 3.352288549643322 0.24383239288435535 4.093927599461428 -0.6529401324489852 0.8709959057782741 0.7178314338057316
Ni 4.97306842674086 5.296890574454468 8.7627769832184 0.25494853259058026 0.08623737113269019 -0.6301683859701083
Ni 2.9336593334544707 3.345880912288432 5.176943497827502 -0.11540370828400126 -0.21205584699211225 0.06351113317976805
Ni 4.331646308831922 2.139956143704724 0.8190462764225599 1.6283644784466793 1.7191154211790072 0.3019776089549251
Ni 7.336679860405909 4.645258892540127 0.7145702593656338 0.8428083876004646 0.9711462874476307 0.9632694558027153
Ni 4.464250092008366 2.507092436258694 3.3616394346052187 -0.7650330311921986 -0.2122687343338667 0.2184149564409206
Ni 3.4204821315649703 4.397938927428313 0.7503167155731076 -0.3468551861939059 0.04189792578536655 -0.9308866685966355
Ni 8.963450090225964 0.30147052820532205 10.405351173015212 0.13932808031008265 -0.7246397149768166 0.5189951708276868
Ni 3.900127633998647 6.022131265519483 6.549339797650266 0.23047985802525467 -1.3612901091268426 -0.31242502954049417
Ni 5.965185822688256 2.864093348741906 8.261116470879886 -0.28843098061874195 -1.735532943305082 -1.0579590714678166
Ni 1.284058997747675 8.21613040561248 5.61081194879063 -0.9834811548638998 1.1786237710404412 -0.4090270317369601
Ni 8.656810796374309 7.542187905353907 3.6591225763234174 -0.28251615779620376 0.11890580789998875 1.03924246889492
Ni 6.342234943509053 4.081386805309832 10.066038492448717 1.1109471936290738 -0.32037102386044825 2.354987799512428
Ni 2.1663192594788936 7.258156165585061 7.310740520358394 -0.7083072963653801 -1.0161243948202179 3.0891166849266023
Ni 0.7958248502805704 1.7652901817843707 5.5892865528544435 -0.2651828087240788 1.8828808085958475 0.21279992424698835
Ni 0.6055514036109357 0.33826761438719377 3.9318514663500403 -0.7067718335574603 0.23580718377543902 -2.174330264325939
Ni 3.6636848883040334 0.8832163071889453 8.305293931259667 0.2836217321555567 -0.49394465561696216 -1.005799872965758
Ni 0.6765871575286385 4.660206955370927 4.093357310463851 -0.4725530773150636 -0.06033556366526383 0.4889934822592739
Ni 7.325589362176607 3.6447494389861106 5.290295622664602 -0.21871834661395234 0.4766182485233727 0.8220158763351456
Ni 0.43465850986708904 4.274283581368321 6.987470115658701 1.5866881817538157 0.06132415283077826 -0.3916363470643384
Ni 7.0609845402927025 7.98652185489696 9.583269846366521 -0.03724114373964554 -1.1799052088560262 0.35280780423291497
P 6.408666656982902 2.825897895391991 0.9155669937880824 -0.4327976517939966 -1.1892113167483003 1.1619673934306827
Ni 3.9029558965069557 0.14988122155507008 -0.021157258160515734 -0.43342063008997617 -0.5116927236290026 -1.9555926344382772
P 8.272130003276995 1.4464383576919209 12.34785101057838 -0.23421952757334502 -0.6289406842105942 -0.7659339457399132
Ni 4.384187080543652 7.4763867553245325 8.434376759438063 0.0217859855268399 1.2334921409435466 0.9276082549556799
P 3.7270194225064888 0.5879178823460178 11.303733458342972 0.2736381385802836 2.427942594603599 0.1450009623251438
P 1.5071764541818307 3.2129340284142587 8.635730504045986 -1.0583640202157192 -1.0258537062928397 -0.5519803675044559
P 0.5900274879874611 7.756217829794152 9.315142214886203 -0.4485600568345759 1.3966386638294657 -2.342269323504495
Ni 5.751230082182655 7.965166154711271 0.2651185456313153 -1.3959305820188475 0.2606031597731963 -1.4829487971816202
Ni 7.441854133747674 4.664110884931576 3.1848915738195815 0.13707733660269295 -0.8353658152794904 0.51944125722617
Ni 6.66158750916035 0.6237876693448374 0.6897677881165404 1.2726459283248728 4.004664152063007 -1.5603030068920676
Ni 3.2211591721679307 2.6092251682800476 12.112839087523213 1.0201206604638042 -0.22899504594961206 1.363677892632729
Ni 6.4772404315696015 6.659528904973976 2.004524098019971 0.5840458805804328 -0.5382241942606278 1.288512205933168
Ni 9.09502457130922 5.881255973630214 2.202362451424944 0.5469649165677354 0.26154135531674955 -1.5624555344586961
Ni 8.270089945074279 2.5501191183523098 7.703417414311167 0.0219559354458009 -1.1474720280279849 -0.6879120205384798
Ni 5.390399424073438 0.22920610287007526 9.734759932004186 -0.3227320678934571 0.8516200723548236 -1.4975182103553628
Ni 8.223465342150423 0.004908194575894538 8.120389546859904 0.6027383147836136 0.6787470662097601 0.022624422267735228
Ni 2.4978565363954957 6.808851892420848 10.508335165686606 2.097138548335285 -3.4875258319384 -3.4208866946526117
Ni 5.920972197640334 5.924959584127457 12.94836996152289 1.6476410672881043 -1.0805971205823068 -2.358754979864344
Ni 5.248875022756033 9.171063104319488 2.1920212109355477 -1.1597827270745382 0.19260082359129413 2.482995569713685
Ni 4.493348740372539 7.924235168771354 11.048525886380117 0.5766506165576263 -1.882601329682216 0.7809041938965002
Ni 1.3900122024032031 5.866780833382771 0.3517041795496181 0.26130918470128545 0.45600597158965983 -0.27683607669229093
Ni 7.93984161402212 5.704141829667271 10.434544405896055 0.6175794935615041 0.23792320167717732 0.23708810737039168
Ni 0.1521753597339409 1.0601162450406032 1.4869984239586176 -1.9451459851836561 0.6709939046269024 2.931417815418816
Ni 5.6436911959241085 3.5226705015373065 12.622276858109988 -0.3601408475592185 -0.26392373950599707 -0.8612714794016586
Ni 1.7490995380482817 7.56915376559706 3.4633474636007344 0.001144140906772223 -0.34731361388756316 -1.520150345932582
Ni 8.635742558935366 6.849541780573172 7.628053027806978 0.9264808262194562 1.9992494518962796 2.769635262759959
Ni 6.214276929239699 6.706014413020374 6.743513464683817 -0.6672110405457026 -0.13807286774674282 0.7844080932847006
Ni 8.87111891056947 3.5027799340608405 9.874755216968738 0.21953595741924126 -0.18632938876028554 0.1822991845549699
Ni 5.319442490586295 4.498949627438174 2.1709297910170284 -0.002340989428350807 -1.081687525433008 0.7296104287185305
Ni 5.968041904172056 0.3059632927472093 7.4035455498974265 0.501436336008317 -0.974285861517877 0.653675725063429
Ni 8.274457524226454 4.123523280187718 12.236479596796277 -0.09156366844161005 -1.1548186982010433 -1.008183028485954
Ni 5.903501881031634 0.9277813786272442 11.81952230103447 0.7811844441410803 0.5716217958844672 1.4243883231389083
P 1.2283746818053989 5.991317113666663 5.639461784350207 1.1671036862159836 0.7297798644168593 0.582974501893125
Ni 0.9031309844441713 0.5135280872832156 13.1784551440185 0.17421640754683546 -0.2181691589787017 -2.9277511652005064
P 9.12779532443828 2.485189629555004 3.615977199934371 -0.4395072026036882 -0.5881802144637805 2.609781808803015
Ni 7.564971646281495 4.806488401497389 7.72368075605922 -1.4512715206829974 -0.42469327751930724 1.1825817272469246
P 4.6657336585019165 6.150033641837854 0.9757616929567238 -1.2570537303135707 -0.4543427249546239 1.2139371016297547
P 8.54264172095694 6.167605961356689 13.179988896867266 0.06102539064343684 0.8978788462120472 -0.03008164987672884
P 1.2961602520865045 8.6183742452368 1.302515960687143 0.7078995194040002 -2.016504382321985 1.4314933096148057
Ni 4.74042760769676 4.896974255779607 4.630359049266847 0.5219483399187398 -0.6893304981525613 -0.14762554443218445
