# total energy = -381170.58081374393 ev
CRYSTAL
PRIMVEC
9.24555564152086 0.00000000000000 0.00000000000000
0.00000000000000 9.24555564152086 0.00000000000000
0.00000000000000 0.00000000000000 13.53180523644849
PRIMCOORD
 96 1
Ni 6.0851658070675105 2.964846272218805 10.861776698037088 0.2919122542991231 1.3137632671904727 -0.9058338393930657
Ni 6.555348536078191 0.08261736010552646 13.186865657244999 1.537829765490216 -0.8776594338413789 -0.38221685352265145
Ni 5.2437925126390565 1.6564244921212208 12.552427312359166 -1.1047873446752652 0.016919658573474085 -0.5296331101575071
Ni 2.283236178209278 4.280692233446968 11.94966609000084 0.5136925276678508 -0.18199193772719624 -1.2892118031033537
Ni 1.589597616390433 4.270568350087087 2.5251840467325977 -0.04297418956868083 -0.032606987401743844 -0.16000540615377604
Ni 5.939233957795961 4.960037166339443 12.231398508739593 1.7904895020466196 -0.21345864087690983 -2.5526552389933523
Ni 8.191987539258642 5.650134680371225 8.273873575917808 -1.5968743782581982 2.811970018972428 -1.9264129275505273
Ni 3.3319040742924075 1.493665731694438 0.25142456299261373 -0.44800187033826067 1.1307387744337043 -0.09734762211323879
Ni 3.012729004566584 0.0836278993303985 1.9401086476428695 0.32898319100949147 -2.055467136738428 0.6107804683617997
Ni 2.3294732016638533 2.2238704658313884 6.763818247847059 0.699087577539325 0.7031139250898988 0.31382833764592405
Ni 4.430331550506016 3.7575417165196168 13.036311030183551 -1.5897254259182427 -1.6527123111634245 0.16678154853534505
Ni 2.383263844027124 7.6797837601377745 10.96353605641503 -0.2931628388767725 -0.8509227891774829 1.2234288431702736
Ni 7.604127378828279 1.152569449688911 10.900585842138852 -0.5673748476826551 -0.8516354989737914 0.0492430532965281
Ni 0.3500469043623304 2.6441087035999953 11.122750995388076 0.30149398445028724 0.4051143269461152 1.0854619048737757
Ni 2.3007472604774173 2.134391978930093 2.376563589898444 -0.2749823113130038 1.402457841614404 -2.2578602638297953
Ni -0.0782627034274411 2.211684823577213 3.308093070452193 -0.690569769876301 1.9485966627364184 -1.2653547939800982
Ni 6.433686270203617 4.234464455547972 4.449257202777864 0.5966651120063402 0.4410598918027888 -0.5532142399115568
Ni 2.2151241702528983 8.426464074317927 13.340898462315568 0.33746088946319946 0.06502988381713962 0.22982216983659773
Ni 0.10569888961049484 7.561560840938884 11.982169765197183 -0.8089757553217358 2.0318569535186555 -0.7015758911788176
Ni 6.88398180916215 7.411403772767367 1.2295581155574558 0.5496028684112148 0.17671551981960532 0.25199664905110797
Ni 4.335509132479595 1.457450890488365 3.555643745656871 -1.7081833476475357 -0.10547642186796029 0.08818575310831264
Ni 4.297731792380537 6.374986237827471 8.0983383822353 -0.29618619908412863 -0.9351251321580153 1.55466509188
Ni 5.109463835620155 8.696656190581974 7.88664751890243 0.8099820850990632 -0.4702401129111708 1.059897169030794
Ni 7.648302643388559 3.390308248889998 8.57686430060119 -2.5201143289428534 -0.2581955787729682 0.44140416251608505
P 1.9642552651506306 5.687422006024555 10.15269713384442 -0.5507647499297998 0.6035253294612832 -0.3159363851278624
Ni 0.4258207042276896 2.593406076800377 8.015943840019247 0.9787104729481337 -0.20717872140546897 -0.31461406677201303
P 3.649516645125245 1.646060224316266 8.536201422605677 -0.5247169038028124 -0.4796932879042707 0.07404211461807894
Ni 1.284253897811989 5.016832614266149 7.4949965389865625 -0.948579200780392 -1.5951291134323173 1.681027870278666
P 7.532834899752448 4.432772377179083 2.5000823633334437 -0.725210499878622 0.5229387288564671 0.1474820768757847
P 1.337813401285765 8.442708515471633 5.529325779276665 -0.030187322216657687 0.4853476579765706 0.09067972317475996
P 1.6930461377728048 3.286813499729727 0.11028006240028528 -0.35609110296987706 -1.4339332865148662 1.8314188932711295
Ni 3.627937518401994 0.20239630630849728 6.272452101891942 -0.41168452396446514 1.4062278501797976 0.7563445022792652
Ni 1.308967267876792 6.056911389215645 13.058990378020798 0.4264452272134075 -0.0951740115006877 1.273901655108845
Ni 2.3423892428088324 3.259113815212649 9.756107178137823 0.058927627574143666 -0.9350328295545253 -1.2821530964843595
Ni 8.191978293703063 5.794642714083484 13.163090711071547 -0.6697104099287885 -0.38442337425566697 0.9755958385785521
Ni 3.90418547357081 4.974414005266031 10.235199849060757 0.9261877204590694 1.0630845656198402 1.4444267298470221
Ni 5.939030555573206 4.506385490705442 6.979908146524798 1.5166263919397234 1.0760051303362501 0.34221845875284285
Ni 6.301946348747059 5.246325794867921 9.606025923522061 -1.8426389303566655 -0.8737063627309017 -0.9543734388646661
Ni 7.612892165517928 2.3303515294439343 5.78021872282344 -1.1456743126976139 1.0076675223021163 1.5100538809285284
Ni 3.1896704472527784 8.477656715563274 4.250745878923998 -0.23033639046885493 0.08318572879055997 -0.7731818855515781
Ni 5.411747275301686 0.4609205314308388 1.6998517912350948 0.3207955129923766 -0.0566174913837283 -0.15116981014001707
Ni 3.338533137643123 6.178194587311449 3.332477298738355 -1.3592265417295948 1.2909591248117638 -1.306483188589292
Ni 6.994299778340311 2.918775668764666 13.250411285300517 0.7285542195398743 0.6185295161795993 -1.974157027704026
Ni 7.826446008300127 6.166498959503003 10.830532267510714 0.6524588219371925 1.1766108543754705 -0.13357755097955057
Ni 7.738881351403849 8.4010295509179 9.054902053632471 -0.9134044526514721 -0.3015610902427968 0.6515897890686778
Ni 2.5334578944209603 3.8140043244454493 4.664576022120246 -0.6736079452109819 -0.298344383077712 0.061792607826764545
Ni 4.179619819848604 8.8251601675856 11.994903668897239 0.8114072475813638 -0.8394404995694961 1.2702226635953606
Ni 8.584331935842997 1.386139920301375 0.521553809478719 1.7635240292013694 0.10849515408962607 -1.46808036471022
Ni 4.882688848358844 7.214112862250034 10.328015056970802 0.760989200140128 0.8916225808896902 0.3965844350982331
Ni 5.719901642776389 1.7679536290803368 7.595050092360032 0.7803727468730626 -0.48045073489558554 0.19873367596190936
Ni 8.21550823265365 7.831004067200968 3.301977135436156 -0.6156560512865462 0.45900464920666756 0.1811923246440363
Ni 0.799977243875462 0.22600853070374613 2.8233569124033497 0.032738627883601684 -1.0027063216420988 -0.22076263073749075
Ni 6.983648898312384 6.713835849827107 5.02330357861645 -0.3888826955786012 -0.43535821343232123 1.7801724363913278
Ni 4.945974676302568 0.8586929936960919 10.27925954417629 0.3954454363977835 0.3654563462348609 -1.3114629011920704
Ni 5.925319396648364 3.070513726940328 1.6129102847848966 -0.46983850659737797 -0.5957924795933998 0.9336662882243016
Ni 8.6679025127288 0.5690667196033065 4.8328432845614735 1.0947415304034886 -1.9838943095964474 0.23823456227000908
P 4.356293141422984 5.213272933670139 4.671544397360741 2.428002501307257 -1.488333201421985 2.957753367989551
Ni 8.240295567163093 4.848202926046193 6.1051306597865285 0.3669403869795551 -0.9665812937847675 0.42764516105877964
P 0.33311459387348635 2.995513780076998 5.243912704861593 1.3176029526515372 -0.1889097478929521 1.3680143152245536
Ni 1.2534846888424178 7.135507148710584 3.6621534704917136 -0.6033898323246835 0.6639675939077403 -0.11803214704578383
P 8.022276121035851 1.2659292066528274 8.446944829038298 -0.09014904748227055 -0.9185952528237923 0.03471812020747569
P 0.7305727072490263 0.4589734174257331 12.313806919289018 -0.33432671470959197 0.32779302735613225 -0.3766437303102481
P 2.095828766606751 6.855154166864335 1.5107311781836312 -0.5143576720556755 0.7630602237365439 -0.3988729740220937
Ni 0.5319374929503913 0.6346454453308212 9.968678218361891 0.6427493079589124 -0.919930426695448 0.1212809930003847
Ni 9.272090324313087 5.984916247915749 2.0634646992996646 -1.1436829932991979 0.16498383320497392 -1.7442129875775834
Ni 6.048303776970852 6.262292160865301 3.02579297460084 -0.33149747279091296 -1.2529381654833003 0.19893319356722514
Ni 3.582125790504089 4.629157223249593 6.621558733251807 -0.47560369121592927 0.3185977340101094 0.9237433726836349
Ni 0.46597415211075693 7.319179355858871 9.596742461164386 0.8255377734454751 -0.8613360140910068 -0.707519253246446
Ni 2.6852791625968404 1.3333477979407222 11.5129948017447 -0.9213615027150196 0.14377814566163624 -0.7025469968428352
Ni 5.843385283100186 7.021481711744921 12.793036424434531 0.9507993483601626 2.20686706061138 -0.4587295411684099
Ni 8.837521475395793 3.6153265805911476 1.007997621643151 1.2253957370886572 0.7769806904723779 0.1275118044014449
Ni 2.052818442049526 7.136820017602915 7.304360579375569 0.9471920906248783 2.0098076870281 1.224175491528311
Ni 4.736784735754035 3.5861106249589825 8.750233260611353 -0.32249449796135427 -0.9440090649112065 -0.43796736892039406
Ni 7.361977032637761 -0.1732478432320648 6.775320643543887 -0.6851660823622264 0.4872605587285673 -0.48960463348071165
Ni 3.7570886842962063 6.391184451203279 12.650194439837753 -1.0919901929105968 -0.6421777517261587 -0.19652561256699702
Ni 9.256095513160036 4.764197808048139 4.0388645571461845 -0.9764988100087957 0.4152820115077364 0.45753192131588305
Ni 4.582199046459794 7.310812128059154 5.976930861561477 -0.25805365387846524 -1.074905469514168 -1.798480490671896
Ni 1.0474474827465958 0.07100309318618288 7.703927603978862 -0.4028039336453837 -0.11423128524245488 -1.0078878658430384
Ni 5.693736720485558 8.439426343240804 3.935265333207862 -0.08169654583954317 1.0831219438866895 0.03893627205388133
Ni 0.1529150174009707 4.618219730998692 9.640098569500294 1.5401843817653218 -1.135855012614347 2.1497870277689364
Ni 3.13530658044356 8.733989744013202 9.201844442128891 -0.2963453503698122 1.1611988906957742 -1.4180063308719644
Ni 6.428240637967114 1.8720585849088742 3.553114161650238 3.171644211307873 -0.2671831269835592 0.2666102851992247
Ni 4.3735638392460485 7.2450762278867815 1.6074433877705612 -0.11847926188553146 1.0603139448532384 -1.229206111973683
Ni 8.87351442326795 7.192663173304901 6.281964854027997 1.0473877237098737 0.4690512348093922 0.2879360432601944
Ni 5.561821133472984 5.24958947598759 0.9705780845450303 0.13345439513812501 0.3259703723250967 0.1873064079615742
Ni 2.216483266923129 1.5581257451967971 4.423127413598236 -1.44172321487293 -1.8640996713336024 2.49064794405262
Ni -0.018053796380673635 8.194123262597575 0.8562873001342283 0.43667153292710603 -0.7667628693991118 -0.5911143573914401
Ni 1.7784195979966693 5.854119373128332 5.564629933258128 -0.095240603072565 0.2784461014918882 -2.3895136012034395
P 5.66277335484881 0.9707648447677422 5.428879289791054 0.41769010672859674 -1.5480619847411856 0.06863148512546889
Ni 4.093414259622557 4.017064461644576 2.8789458153268916 0.8884063879452377 -1.3509447613367767 -0.5484692690274039
P 6.942154844870245 8.190489759254715 11.23203438689686 -0.3354618567552997 0.48873174395745506 -0.2999644351796382
Ni 2.986462381164375 4.855765790510469 0.9011800198075005 0.7822468239673237 1.0877244756557074 -0.1343763927317621
P 7.6764461145734675 9.383221902382274 1.804885925399402 -1.3209651842555508 -0.4781411129258023 1.911002249422412
P 8.086449522315236 4.14759321532018 11.608651168884416 -0.8386665975179491 -0.39775171593345693 0.27338719891174207
P 6.2379208763569505 6.8173490900985385 7.290760367117684 1.8310044314415304 0.20576590021834237 0.21273847488143363
Ni 4.91277388621551 2.9343729210277867 5.640570153123923 -1.479955261770935 -0.38002370252607454 -0.7682199135606125
