# total energy = -381165.34211376903 ev
CRYSTAL
PRIMVEC
9.32222135694026 0.00000000000000 0.00000000000000
0.00000000000000 9.32222135694026 0.00000000000000
0.00000000000000 0.00000000000000 13.64401326045895
PRIMCOORD
 96 1
Ni 6.584238212716806 8.447684972292622 3.815643861510741 -0.7364063685944414 0.22799771503334926 0.3427684177190419
Ni 0.9919868786461862 6.137181773510742 11.651850786203335 -1.0013037848676176 0.3567871005956371 0.7903234303278711
Ni 4.467571959059868 9.170418136417398 2.014088260612317 0.10961564084731444 0.1027147999624231 0.4611936864381864
Ni 3.6871062791288707 0.4358035860121857 13.50008274858113 -0.35781322786730635 -0.5665053005935082 -0.2125191597817759
Ni 7.02226141959343 8.170600591974791 1.4730349329635415 0.015326345944425217 -0.43593105521665576 0.012574751341217053
Ni 8.998329933319893 4.584398034965498 12.991365409560975 -0.48535819949953185 1.1955115479347154 0.6288254987889687
Ni 9.137380184533457 4.847163483541304 2.280555563221168 0.04462612334980702 0.9305318563603779 -1.970612247775561
Ni 2.944376950559666 5.663146826191775 13.09634201011681 0.5569351404065698 1.1594412845747193 0.04213446727620485
Ni 5.34877356112909 4.502446388517494 7.096032816950531 0.18824331795354676 0.36937702144550577 0.31579240335083036
Ni 0.7576038646939267 3.753088960684891 7.034743873761769 -5.16468753439344 0.6451435192227019 0.17738760618596547
Ni 6.273351458377766 3.764872248264265 2.5151651071482526 1.2724579806837828 -0.5303193375912545 0.8371151938704293
Ni 1.6388744511999271 9.551081716335249 4.236943935801415 0.13313634967707394 0.34506261306985736 0.8813556517460435
Ni 7.95083854973099 3.145895405942048 11.148836782104905 -0.012053331620108274 -0.09450141091369531 -0.1264090582555694
Ni 3.287975379041131 1.46772779244223 8.713312342772594 -1.7081411815556904 -0.2768815852182457 1.5156064353156415
Ni 1.320809586547502 3.7790420244673104 11.540842708540021 -0.8569720806953564 -0.976805285505621 -0.060142473817851254
Ni 0.09809307243193367 2.3269755636179195 13.742522958304637 0.3757672412425657 2.9256202349004328 -0.44408196645856424
Ni 4.841420995290596 6.68488091264317 5.976090994746613 -1.4568168759812588 -1.4352106105653928 -0.33310158405323925
Ni 0.33741127028017454 8.330924151935294 10.205367403622366 2.0883662014592934 -1.0534534702879794 2.8630326419761984
Ni 3.5495941944110325 6.60658357690016 2.3115547453316845 -0.9992926679748595 0.991703799884008 -0.31640689700637764
Ni 1.0515185831413467 3.041411950886965 2.7966542369765683 0.07688292650098372 -1.447257257317282 -0.12849088048526258
Ni 1.0042828883908022 6.963783126092311 3.9828509495951443 1.861995480506406 0.3389801543212033 2.0016333787474236
Ni 2.483691423979358 8.30937117655277 8.445385180325982 -0.7692586392377719 1.347658120165705 -1.530861047481867
Ni 3.243816017282037 2.271937169734514 3.2394438955457026 -0.23946689201521343 -1.6553088682460073 -0.027108940401650086
Ni 8.51330408722238 2.360032159944233 4.0676486701713 -0.784116787296527 0.30732036132407714 1.108588206478594
P 8.36476381484125 0.9731187029652896 12.217204347818216 -1.7398310564598038 0.46222469880586203 1.4771247343006753
Ni 0.18086041323373203 2.6220891197098863 9.129086204344082 0.43393896448729136 1.0245391012464742 0.19991792607799763
P 1.4445341061309305 0.9847621572268704 9.587661180047832 0.26446315694923483 -1.8254004549911915 -0.9466483023062664
Ni 7.069273381035505 3.301017166480644 13.523468472648867 -0.4909333795944642 -1.5104220629012244 0.18317207407822647
P 6.173351991713251 4.9514232052879175 4.473421652854217 -0.35715194013422363 -0.38049215752206084 1.6338121318248122
P 8.066042559150219 2.162764637422765 1.9706317943306633 0.5564147491267256 -0.20010870193256505 -0.9740855725816128
P 2.439774439971105 2.365588203771216 12.788383365452358 0.062127879678996224 -0.06637071411575021 3.084970781079029
Ni 7.656890271287299 3.9891555677833805 6.381236591943698 -0.1556242463669449 -1.4418350578604457 0.3256641539385875
Ni 1.9594749600150025 1.2187499090008345 1.313950296198686 0.657022787158791 0.23760027112011986 0.0666314239763046
Ni 5.3422107174139954 1.5917879119883618 12.547430050008057 0.9776123547879485 0.5485520585491973 -1.4078710422101754
Ni 8.24990472760591 8.656801037941767 5.60067675757872 0.5359418259843544 -0.6052294566365835 0.10935133144233426
Ni 9.10880757659771 0.12805748799078037 8.456272602449362 0.42024552616059885 1.763377990541808 -2.3302923536482774
Ni 6.8543961826932795 -0.2692220189693772 8.11533660033868 -0.17725159482873343 1.0094076449216747 -0.6992685832018796
Ni 6.304431743812602 1.2621914597285901 2.966671974748615 -0.24519608118950675 0.362457411507537 0.3552416104853882
Ni 4.173194858441612 3.334530551645082 5.181710035250955 1.31817656576682 -0.2547708693621354 0.04982566527287548
Ni 5.063252570637737 5.194490800497254 1.0266161336866142 -1.28536877520818 -0.48853736855846186 -0.06403615244530261
Ni 8.811727031835453 1.4466968614461317 6.428622374455341 -0.561226311582756 1.0443785045699046 -0.15885766570257803
Ni 3.380498424314302 5.841751261898443 8.592235334006052 1.4169683765257532 -0.5653043383068717 -0.33601567237624064
Ni 4.835864951463613 2.127573252444808 7.21747805345393 1.672809339023616 1.2114955820677973 -0.9989134302585699
Ni 8.282821490614433 7.006478899125169 3.363780885061065 -0.9881361371374079 0.26305624929937926 -0.9714195957136753
Ni 8.916359642429516 0.1755868327086909 2.934199881690677 -1.0961857190491833 -0.04560648498520533 0.3547549006569568
Ni 5.758736882235211 8.737466217866075 5.984195733845907 0.1890619572001002 1.0028374479033244 0.310571264161207
Ni 7.282025112947275 2.347726827978431 8.462194077346844 -0.6268295514048624 -1.1272682993866006 -1.3147001771824456
Ni 3.957674426837537 4.4404536176291725 3.1323110652294974 0.1315738902859605 0.7878929665095076 -0.10804829636019457
Ni 8.981587224069452 6.83469832932681 0.7307819698969528 -2.186844594742866 1.072899751938049 -1.097029040886085
Ni 6.71311792061621 8.572677313957374 12.357055377831673 -0.3093692734333059 0.7667870377688278 1.0127490505900816
Ni 6.673731536104457 5.909607709912893 12.795709699082604 1.7201279216039214 1.4302812915845753 2.1605671491035756
Ni 4.5386166067200024 2.6834106906728 1.1925945530186746 0.06740866846196132 -0.6051993747295964 -0.5838394209965816
Ni 7.396902844624986 7.951220760799625 10.149971968667531 0.13911493585801202 -1.6263888427775475 -0.6831135707085719
Ni 7.510801743078144 0.8266088103585179 10.316824812346859 -0.2694824645406972 1.4669056276758285 -0.24201768346152513
Ni 6.037089084634365 6.315254842609796 2.8287310678562108 -0.28039345502624613 0.5100148217059475 0.13351892982747326
Ni 8.729188085452718 7.213376276131997 8.291617006303625 -0.6449743406346892 -0.8485797428666031 -0.5467458585783939
P 4.078546346737984 7.49978287763604 11.892203750603246 -1.4208227172748369 1.376740382243642 1.2364473669171285
Ni 1.438064484627698 4.626105652552618 4.512007258566074 0.1923696814170945 -1.2339001750152425 0.6637657623095794
P 7.211129620826118 5.08328602396691 0.9726712363483514 1.6315212789081062 0.8575703764009874 1.704132831727246
Ni 6.536694884667116 1.8302503299317086 5.526084072535113 0.31342313178770537 -0.020982515788938057 0.3252880015460914
P 5.717336897947235 5.8673780479393445 8.882320483990174 0.3967466717077103 -0.5776487188048375 -0.5697376914878768
P 2.866088937037844 3.777345380211419 9.053771047158543 -0.442747821028173 -0.7101921720929188 -0.15494881756647508
P 4.715282020419939 1.2246229083481492 4.5043527827500744 -0.5402142281074632 -1.2641718294155904 0.6066214518881037
Ni 0.12974294558124783 6.016626809130626 6.433070006183283 -0.5657882199218256 -0.2088800203672919 -0.665956342202995
Ni 7.62340485278642 4.528334196751609 8.727051432356836 0.01647434350593937 1.6089871023613325 0.09877047060269441
Ni 2.6155822093219094 7.198796322196758 10.334780342573623 -0.311102968294961 0.9843249909214339 1.1368741979074808
Ni 6.548944283305802 0.9423274063872257 0.6903981077182749 0.6551991036864909 0.20078773027746066 -0.1957781928780112
Ni 5.152438260726243 1.991235767596433 9.429923604244385 3.2147505555790445 -0.015492953429276543 1.8290527070317983
Ni 4.924705719368229 7.784250457133351 8.201047898591083 -0.4423685833118833 -0.4090105766767278 -0.3241351188885708
Ni 2.4526111385445213 4.0412201731083846 1.1122453963925802 -0.10708927488103491 -0.6737655538347687 0.10253585118239761
Ni 3.5873305457728257 0.4436883206914852 6.687640290114288 -0.02239148032132273 -2.456080490490396 -2.0772415523010417
Ni 7.148978372177631 6.275644724789574 6.173288600609185 -0.32619380118981245 0.7386563409708826 -0.3472357094617761
Ni 0.6270909036426978 5.4345473182634425 9.499112197666344 0.5661715714031733 -0.6781060901916516 -1.0972455277722653
Ni 2.3536464384316766 6.457894148980052 6.708201381162602 0.544566591538888 0.8081260057269307 -1.4331218463571642
Ni 2.982877724058729 5.090268367635384 10.769328225392027 1.6908140031311527 -1.0847746489987642 0.25235557505242345
Ni 1.6053890326990476 8.137133817916284 12.839534393101113 0.0001786916697093697 0.31734329277771794 0.2512826537032189
Ni 3.810401976537733 2.775532880434964 11.321447029588839 -0.46932145775164336 0.13160422930326365 -1.4630343176458804
Ni 3.95185736081734 8.164364026001214 4.2667013980499275 -0.14942248843160716 0.43166842328555977 -0.29776202821168074
Ni 5.344681106028343 9.090172456446469 10.157299234519895 -0.6734189691286273 -0.21097109856836568 0.45241979690029827
Ni 8.370207992014 4.863141770654474 4.351020888679231 -0.7595506679213886 0.035531360137390416 0.8075536781632285
Ni 5.671620725250043 6.560056370959768 10.978518868810662 -1.6768781097763508 -0.049789669828617475 -1.8803449295478711
Ni 3.1212381309045125 0.12332366407242105 11.072075748413383 0.08980734787213565 0.5029728272575016 -0.10804289704355585
Ni 5.5221761974138515 4.083347290648884 10.303044704989397 0.8456692540880274 0.9170451347278529 -0.7332225715498211
Ni 5.123902941675244 4.386002523680498 12.605744272416297 -1.8264738905610287 -1.6511269689541759 -1.3525617281149094
Ni 7.807835676734472 5.648520261150606 10.878971529873679 1.4354304398856828 -1.3311498380980364 -1.4963678988010036
Ni 4.902901044013675 7.39228834513781 0.2723878452842154 -0.2755718652678867 1.0688623486438817 -0.15300274958369778
Ni 1.3900084344127663 8.19385021161321 2.1332411629260264 0.7725527366080114 -0.2301389297460682 -1.5771679009682062
Ni 1.0271596191817705 1.3120839875172061 11.58304347162789 -0.42076360344759794 -0.5243268674532453 0.8180653763278298
P 3.0270930191449406 5.9967425113404325 4.5360063847878624 1.3118269693997087 1.250086812077434 -0.04234581195606256
Ni 2.6920337452700474 4.0886702789462115 6.737100266839864 4.173226703758174 0.6852072200128071 0.9601890171051787
P 1.4846849127799526 6.081817101885819 1.0713674564910332 2.3705568575952785 -0.32898627633328503 0.4909380075801545
Ni 1.7313508853671673 1.7442155506041421 7.114111400496956 -0.37907753656272136 -1.093454436160949 -0.48324372425969037
P 8.464744637063392 7.307484099006824 12.071895157300228 0.978108834808393 0.05976529298409062 0.24258101216416283
P 1.0278867524342952 8.173285391676421 6.329376143262673 -0.4403716074865126 0.27998362118233716 0.07988366100052048
P 1.206472543698591 2.394048945052727 5.08912173442948 -0.27557109393693835 -0.18271853148057565 -0.5099374315007927
Ni 9.237911017805583 0.29328640073946927 0.5668898636663668 -0.9741285100044063 -3.4644661219054593 0.08010914674776526
