# total energy = -381165.84972784907 ev
CRYSTAL
PRIMVEC
9.21162778271055 0.00000000000000 0.00000000000000

0.00000000000000 9.21162778271055 0.00000000000000

0.00000000000000 0.00000000000000 13.48214838560122

PRIMCOORD
 96 1
Ni 6.458539466496825 4.639823286383417 11.976462104779475 -0.17830857533833808 -1.436140835689146 0.41565944945181316
Ni -0.22199378454599217 3.662257697450364 4.6782919657078175 0.22894208122448959 0.43896187162317946 0.13659422631868734
Ni 0.17621752079879396 4.0216309371914685 9.5617821547892 -1.4004030159679044 -2.5693722946377164 -0.281224949788606
Ni 5.161523833194415 5.573320447384205 0.5306045063509904 -1.7412294794692271 -1.401749759803786 1.115456394353337
Ni 7.06633188777583 1.712846940517773 8.544621304438076 0.20582426426010358 -0.5675190865700033 0.13549893637197954
Ni 4.325117230388875 9.147588675016637 6.862548570449589 -1.0884153310751448 -0.7153534045788841 0.5922970648456315
Ni 5.3047278007184495 9.15338278897345 12.366082645933286 -1.699658855116292 0.7276299079533921 -1.4739537927718613
Ni 6.343909968756629 0.8627564644485671 0.9719446535809905 -0.5483252872503718 0.8653641614137936 0.849037399229312
Ni 6.451243857190313 3.807303990556852 0.960002699155533 0.810755730040294 -0.6205182644748539 0.3345041208277207
Ni -0.14053720124343566 4.848964086503429 0.7603379006688658 -0.7305056868392903 0.9433341503313688 -1.05135545010837
Ni 8.66668642822905 8.767452425961292 1.6643035037457312 -0.17610488281879993 -0.21740528422948363 -0.2545523255934261
Ni 6.911392306291571 8.930562721403728 3.308370903293804 0.7462004718667277 1.5005634249395898 0.33913802005530624
Ni 7.378320513536255 3.0748874552528465 6.680013715228566 -0.4532842017831225 -0.656158896496599 -1.064364460773528
Ni 2.98313964124671 8.451171181593752 1.5323671994839752 0.3826961071519151 -0.43154192501002453 0.5954358675849294
Ni 2.0317811337240443 5.092178698270901 5.695493347221754 -2.831407301761433 1.3549178870519119 1.1513939887902107
Ni 3.685830253277844 8.158508551193256 10.489556131368097 -0.32610946900612225 -1.4882234153169982 1.7449578361634075
Ni 7.627937206702748 2.4811888246796037 12.703986344499278 0.37077878688903887 0.28770464397567874 0.6716994153343594
Ni 7.473725343823559 9.118498354069711 12.815887358051864 1.460990547742974 1.1988318705571999 -1.0711796839231489
Ni 6.489444478142467 1.9510872732126228 10.91156107161026 -1.3147803956010775 0.1771261249944627 0.5558503919828234
Ni 1.2695557704959557 0.7416005283325321 0.591555084758059 -0.8739956118365464 -0.7460459485667345 0.9043361718016167
Ni 7.232012227405787 7.490582622903 8.141276358857786 -0.8652145232098066 0.0004746256435733761 -0.024549921425222235
Ni 2.269496403627895 7.588142974121774 6.493326258144695 1.5364048601182314 -1.328615501711957 0.6000304289341473
Ni 5.9478836615526305 0.9062786428456346 5.3487455646971975 0.996929824169638 0.05657583951251547 -0.040818062457626474
Ni 4.76636341901417 0.8051957651132112 9.387202461433205 0.3155368356965985 0.5053295004151361 -0.06560298271179026
P 2.4190656060393043 7.2062380925072755 8.865213590668553 -0.09013079264982543 0.0033861428634135234 -0.3876889323808162
Ni 8.534398239781046 7.218452711118935 13.052094684466477 1.504238816908648 -1.133001602325952 -0.4970646893031827
P 2.7562019760002063 1.4491180333896925 7.653721474391963 0.7933431909908015 -0.8225941174361188 -1.2210449163191293
Ni 3.7693705068141545 1.4387733752442213 5.158418593425191 -0.9072978255331018 0.5598808532984552 0.7508644530013003
P 4.0070305069505325 1.6638410800245356 11.290908805316313 -0.06136066249566851 0.11460640919368649 0.5960740153895605
P 7.553461195032106 0.14070116822027395 7.070861245220289 0.8083949431176013 0.5118421047226733 -0.8483105483656164
P 7.202765308784352 6.407783396700258 1.0081205587180284 -0.6413259452488246 -1.06750300640251 0.03330169947592329
Ni 6.2914313245404685 6.818907562052454 12.582201254196834 0.3794644875884949 1.4387990992475994 -3.1288556553874374
Ni 7.144271471541484 5.2901273704775145 5.1118777645612745 -0.11873020155407293 -0.8420997915692141 -0.23303913411199867
Ni 0.6786805038778219 9.004854500516126 6.115907439323467 -0.49450669876801934 1.4245611012713466 0.6227432971506307
Ni 8.135341306993913 6.480039406044046 2.8277321090645082 2.027332583285741 1.1905012392043175 0.23477540007681502
Ni 5.232582330909609 4.948486514467516 3.1554431413455837 -1.4718074358528201 -2.2565816542276877 -0.532809965223592
Ni 4.73542156085688 7.652265116019034 8.63307780379116 -0.21243277071555672 -0.8234675211800075 -0.26098265459980213
Ni 1.2099104797640547 2.2149543547593877 10.756839805707521 -2.8045205046729182 -0.29597819683838056 1.7726398754597084
Ni 6.102528470943697 5.663833903250099 9.684551046952672 0.07130106153783204 0.9729352610272535 0.8940188490360087
Ni 3.7631434463454654 3.4609191461720386 1.5928212711465726 -0.6343541419166816 1.705441009015708 1.1735931505950692
Ni 5.446430272892787 2.501297808412073 3.017696142196772 0.2935302495185203 -0.8312155405565427 0.6393423391598925
Ni 8.941367960944811 6.736527973633089 6.221188977058301 1.519508341473209 -0.7449300897947364 0.18210815159008636
Ni 7.835456760310203 4.326222625738346 2.7125407020216636 -0.5243191541437615 -1.9921020422182207 0.7622567539986421
Ni 7.8485741184572655 0.425776180709441 10.354815807569848 -0.5496342358697824 -1.0272289893738116 -1.1009484305451493
Ni 1.6175158032537664 4.559092579360347 2.9855272952015683 -0.5995923129554641 0.5867223989713315 -1.1676839841994857
Ni 4.97024437959628 2.1184441291226115 7.29644480116369 0.887561266336123 0.5687056506789366 0.038424879635101564
Ni 2.2335434198863338 4.067928579078501 10.76151839152416 0.2783100901346562 2.602920562906807 1.909424363412331
Ni 0.32238026320824853 8.495709402549544 10.846793194596348 2.641242598415458 -0.518269862625888 1.2613382166215372
Ni 0.8766816823635346 1.8557745592044408 3.3280414135376497 -1.9026860162472328 -0.22615166296354602 0.27580634987619596
Ni 8.562843746774114 5.215476337876537 11.554080408955704 2.2109769690146956 -2.336336245849512 1.5593072186377017
Ni 4.796863119031672 2.93567212261482 13.144771030566169 1.1441180239540878 -0.4388024632271798 -2.6780283997852394
Ni 3.1217562180704386 3.761052406809381 4.345283326214401 2.6340769339049537 -1.9399379586201557 -1.115158146386628
Ni 4.429659995565144 8.043777725546024 4.717080288520773 0.8287223418210437 1.2421590725899254 0.20196375286343282
Ni 8.2819627884734 1.186770870448451 5.235792583237032 0.6475696121656912 0.14249593651510295 -0.272011401610138
Ni 0.11362543029776025 8.538175007225075 8.418523329947112 0.5075295933902484 -1.1190281708649954 0.3068796742422328
Ni 4.536450397952006 5.512560549674921 5.557894655282331 -0.8375839059767317 -0.06521654590664897 -0.9696694457917882
P 0.48159864585775286 3.088483818051346 12.725692624511733 -0.5569960755514923 0.8882667770435799 -0.4620935725446364
Ni 3.0567589715215133 1.5757226474158306 3.068078219900102 1.408794068245077 1.133451545379177 -2.3787314229862706
P 6.0594272639422195 8.261420858229053 10.234163747500615 0.6896590851365736 -0.1098984621950559 0.9271562550199258
Ni 5.238846237889947 4.611847572413875 7.789001599585871 -0.6129725909171121 -0.37562865878217244 -0.5799701678491624
P 5.593364949721289 3.6860052742081773 5.57655372878141 -0.3183349672670259 -1.2391308272865627 -0.21857616460913326
P 1.3593322961288679 7.637719955545571 13.287588109717888 1.2551112618752192 1.0046513611836116 1.0220101641770334
P 3.4851917857208505 6.063388263944494 1.8341788187269323 -0.6983424718431843 -0.3799056888909715 0.5324335557207798
Ni 5.128269856431146 3.570270381118509 10.284142355901388 -1.7605778020888516 -0.4746456981780341 -1.0375031176063099
Ni 2.373090371129201 5.15923013784426 13.244970513181807 -0.7102993870947444 -0.6389965257846995 1.9035388511658313
Ni 2.900677148176134 6.495008301401474 4.166091370762737 -0.4569935323139097 0.16228006112056567 -2.2775428298603875
Ni 8.24226988379946 2.1413902942520577 1.4470389689698946 0.795724032518152 -0.5509678670795414 -0.13370662035824715
Ni 2.4785819339804336 2.5655304898442806 13.343404126726663 1.6369856444567872 -0.09879746718588792 -4.153846756569665
Ni 2.9774744900806684 3.18148441345355 8.887661406727947 1.3377920260049025 -1.9356784120128534 1.108836060823342
Ni 0.5826290173110763 6.090277005820388 9.38722917515415 0.652295813996767 2.5663304224876 -0.6910623932420034
Ni 7.953651158052445 6.801976589949715 10.35729649896662 -1.6968779499370454 2.96450894154583 0.05928706779609144
Ni 3.9653939487871046 1.1301838401834212 0.8316055023376684 0.5467497152331359 -0.6634855120649992 0.11857953490882159
Ni 3.7647739044859354 5.463941577553999 9.57196192479504 -0.745866999786709 0.9638032168189983 0.07201634243730178
Ni 1.6178750567423448 6.506707068850047 11.506811861486717 0.43994943234742945 0.08029195218253268 -0.7511213062071128
Ni 2.545725489832916 0.009243868609955607 12.234038565624955 0.1048570431164065 0.8839385819818713 0.105777755158463
Ni 9.262383982059253 8.039549588334294 4.111111769568397 -0.2892110533178761 0.999319407447737 -0.05671005109753459
Ni 0.7429214757751506 1.5130283078449709 8.263883126370002 -0.9979590367651006 1.415995985310155 -0.3400456194712402
Ni 7.57062245783265 5.191277391351023 7.5910695083095 -0.6089704117362544 1.2082611342908998 0.6784755577159283
Ni 6.090396756983247 6.820132708564785 3.4610020508232493 -1.1640304466072986 1.5478524398335407 0.14227559297418077
Ni 6.866034250451589 7.59463717179992 5.569084940870147 -0.21251273202387272 1.4937379173773242 0.09167731120133887
Ni 3.753323850990993 7.190780980870499 12.869776302501391 -1.1889459789020558 -0.23196826964532308 -0.6366691632031036
Ni 2.030878394188642 4.92741952143217 8.043220422057331 0.5891654611951853 2.1126271308891873 -0.029638391691723148
Ni 1.1233948704120837 3.060010676174542 1.3631265656659288 -0.05105490969428626 0.16563072276035345 1.660587343036127
Ni 0.19128129592371715 4.099819234910754 7.205008340180989 0.7684564550514508 -1.0718767099901734 -1.4899877063062725
Ni 2.189511838465718 9.12366607732849 4.120010202131643 -0.5364223651651987 -1.7677275257597556 0.9108186942021668
Ni 1.3374362565814195 7.0061615342529295 2.0364247153546158 -0.8149191173893642 -1.023695008078624 -0.09912836816274541
Ni 2.3000513734128702 0.6624625117754922 9.873435477293617 1.1458617461180718 -1.2268517528088934 -1.4973086654477181
Ni 3.22292752743082 3.485348383395359 6.639944976135806 0.60159957319348 -0.6993349176634407 -0.4285902985808683
P 0.6982082338890275 6.014898254614342 4.183321720772624 -0.9289920226770839 0.14430316492717082 0.8876702811101616
Ni 4.167312832623903 4.94313455865049 11.887952177984499 -0.06372196363899348 0.9510610866619813 -0.04599395023161112
P 4.927797198176574 -0.05094398700597757 2.6026211096330067 -1.2430556162622657 0.6813955595762006 0.5568217547571571
Ni 5.295875426294765 7.858789813811963 0.8972153221427593 0.9644431643958423 0.8381243518612339 2.018299526549195
P 5.343610082136111 6.848283443464659 6.882151835809676 0.8245103606222253 0.12520372509355857 -0.5770961887354771
P 7.055950383118709 3.7853526812419305 9.230350545994362 0.805960879754812 -0.22069938159972313 0.07134862694631584
P 7.59182762528668 2.051383477921339 3.4124936182372734 -0.029065035686756398 0.3793313044447402 0.6407538747954384
Ni 1.2688372635187992 2.216547966388209 5.718345553746496 0.9639513123610882 -0.4637596473931497 0.7611054140030182
