# total energy = -340898.2082313695 ev
CRYSTAL
PRIMVEC
9.03154412918918 0.00000000000000 0.00000000000000

0.00000000000000 9.03154412918918 0.00000000000000

0.00000000000000 0.00000000000000 13.21857775554561

PRIMCOORD
 96 1
Ni 6.406092325608547 2.061901528455343 11.416515749218274 -0.31826040527534866 -0.23123216281024692 0.4444087536703637
Ni 4.632558970180146 0.4044957676519029 6.062172027696036 -0.0483069146355039 -0.7597648408147237 -0.6486721012012506
Ni 2.692890360192235 1.532942050932029 4.841792753402769 -0.2121106114894476 0.2414024184750294 0.542599440510188
Ni 3.5052596930065194 4.084524871421188 4.905387468350057 -0.4013954833336313 0.856363757687396 -0.43496869130338633
Ni 5.02898956890997 4.459451363540183 2.717369457444646 -0.2611927137280792 -0.04763302849693087 0.02045749652340348
Ni 7.019054195230692 6.0796742570959195 2.489361803406428 0.9401241280345035 -0.3379090327442116 0.5052299987227944
Ni 5.004541178907655 4.557615216859417 11.313370999302707 0.9215905880066902 0.06490852774792692 -0.45135433175026135
Ni 5.614080093298593 7.746843117120823 12.426163810269566 -0.24021199771135404 0.5342050457989057 -0.3613605788989325
Ni 2.1097145231624936 6.388589193054249 0.29961063917946495 -1.0718216883825218 0.19866785572098042 0.36119705673787467
Ni 2.7691617505023767 1.7407669132679287 0.32595565345237004 0.15178404668524828 -0.8253585675551334 0.5231338755864087
Ni 0.5728265905932236 0.00490412847109615 4.822243072945063 0.06828567175027596 0.3951947538395581 -0.16731839487542152
Ni 8.702326298467318 2.368919840143082 1.4001774488363374 -0.6383542642150103 0.41021668116968707 0.3550446639832337
Ni 6.941843524329402 0.7353989009872683 4.8946408339711285 -0.14427925366777086 -0.7566712894910645 -0.4544877351729205
Ni 0.7448440898548049 7.46943923868672 2.5248015826340184 0.07487155249790975 -0.337186038535258 -0.5860546834803455
Ni 7.629902683522752 3.923384060774231 3.7561776650790457 0.25916565599572144 -0.17188647386207817 -0.3572858946089266
Ni 7.700439043300396 3.861689582715193 12.722868098542955 0.0075407884617354 -0.031582402791971415 -0.4444578617407442
Ni 7.652517670063498 8.607522179570271 7.178600035181525 0.9680324244089973 1.1501668012513289 -0.542157210766447
Ni 6.965162971313509 0.6917286755797338 0.4229968858342979 -0.8415223217991893 -0.03347293494646494 -0.07985152221100442
Ni 1.6914727453208886 6.45086168993861 9.25198697832691 1.6006078771587016 0.2443396467264824 -0.790155023070807
Ni 0.14500415072189693 4.981230763467694 1.4393445463328434 -0.5170069367530644 -0.23424266750179656 -0.4251951568563903
Ni 6.410526813784069 1.9144976964539426 6.994795467655436 0.11162032998216904 0.36248877896610476 0.7416539901466259
Ni 3.47375766702644 4.321205517302488 0.6090503078526571 -0.052267441945148686 -0.43178412292781765 -0.3281486109233381
Ni 5.867749073717889 5.6139084939598245 4.799375203168239 0.7218068735137118 -0.0756146013115214 -0.01246059436085596
Ni 5.455874534498977 2.9511654281258197 9.234789111964735 -0.2821675162075334 -0.7777893024166024 -0.3937279394860445
P 0.2526700916367851 5.690992723243077 12.431755239250148 0.6554986372047809 -0.9060194730413106 0.2631452094687597
P 4.072521949251599 5.981420088335229 12.568052078261207 -0.25512105361270254 1.3840433436629582 -0.15901553143668098
P 2.4343353143901347 8.327210143921263 1.4065356559148858 0.2385109558598473 0.5827816691560285 0.16813806256323946
P 6.342699917250124 7.736736819221824 5.632568567319184 -0.5957847662839159 -0.26596750940890324 0.7070286867632726
P 4.804980179465039 0.9590506412840315 12.680621244492777 -0.029300291626014052 -0.273697016842677 -0.9364983583564582
P 3.96499238465331 6.182073904619471 8.094356163294481 -0.47392501796192577 -0.5711993636350678 0.4602462349232525
P 4.659707791882015 1.0427369293377644 3.84952770536864 0.678388911539393 -0.07283703856638424 0.1569249674562394
P 0.22743053836730945 5.604127331650069 3.591038589838803 -0.4134418729752041 -0.9524487110381274 -0.29583035840660665
Ni 1.3875070955543838 0.9790645431108254 2.502488249667738 0.4008758633847354 0.18618643542451807 -0.06715361502836177
Ni 1.8174898807853537 6.661775340372327 4.62585485496082 0.43984273156623604 -0.34941626205286275 1.0204070813559716
Ni 6.011422877987128 5.681608948875731 9.218966749775944 -0.023712770235907548 0.4199981860364831 0.2749198335061846
Ni 8.541953169072743 2.379829945471046 10.229963220368182 0.20225891550634842 -0.42545586671694463 -0.12649519021147249
Ni 2.3427735198413817 5.166404513086265 6.889747771388376 -0.06547956976004853 0.04254892910580414 0.6387216748567581
Ni 0.46375353510044076 0.16883929887672167 9.139456647735168 0.20033161657664852 -0.1639890733918724 0.027039006395663107
Ni 1.475447240900725 1.1932656756135644 11.319966735992285 0.2562867917860296 0.0961839408224408 0.01311468300508709
Ni 4.196479892650852 6.854607839426423 1.609427488838423 -0.12269124308434998 -0.1852263855040939 -0.4401777463081516
Ni 5.390179082383409 7.868931530881925 7.88998406028547 0.5181708751541786 -0.10906439632953474 0.4075627884866078
Ni 5.465276371954614 2.828191923038444 4.957468770820448 -0.5363981967954827 -0.11510905986171788 -0.7012305920242569
Ni 0.7666661068195608 7.388552729318143 6.891690456534109 0.14949216532727802 0.0724014936908624 0.17915832493314307
Ni 5.256412882041963 4.560098891499475 7.196748923142239 -0.017802318288743534 -0.13194618602371472 -0.815890480163698
Ni 8.243352256528762 7.214316179659972 9.285099328628162 -0.11589941697349718 -0.592190106954122 -0.5757705279455181
Ni 4.647957752948505 0.2697306785279465 10.491783169378941 -0.6537816545136741 -0.05863812135818288 -0.13310086845344818
Ni 8.25568934583174 7.135994628828764 4.728298757050683 -0.7820956431014402 -0.09685705563006544 0.1917104505665408
Ni 7.238403307896461 6.289034481936582 7.165208964676748 0.24298338980890413 -1.1335322780184411 -0.9480099585404833
Ni 2.359138677833327 5.162250002779259 2.592717891455005 -0.7382331373905351 -0.03670943960589162 0.22780693917878186
Ni 2.3808505099595054 5.208094120862654 11.298170007351136 -0.04567899009435359 -0.17993685497038042 0.2211135863190063
Ni 1.06501774874512 3.308760387029284 3.7887878615257984 -0.06075362503928892 0.0657636766593706 -0.0641600796176766
Ni 3.5195837220215447 2.5707296940779685 2.784070120423626 -0.08987213967180006 0.41600860526111577 -0.8370604293730939
Ni 0.9494591414013351 3.3695788053061926 8.2005544782857 0.38555620230852955 0.06577601795454478 -0.14553343778984612
Ni 3.8611657531547445 2.6106581507459543 6.986560505703419 -0.7720436581820768 0.16834580769867136 -0.1237633931026062
Ni 4.072422602265997 6.695074643637395 5.9297876536088765 -0.05205481171371035 1.3453862934123926 0.1385384945292517
Ni 0.8254172046415269 7.451023920173708 11.193425770967371 -0.9812887751982714 -0.22796326225098804 1.8246957156146835
P 0.25591422229390803 5.495802991166963 8.084865816706216 -0.7336941118696009 0.6694810675268018 -0.3695125185821056
P 8.3155684835175 1.7101228839816869 8.035362116934998 0.6407960408872835 -0.23153606720391093 -0.2466477260343688
P 2.0103946321926145 3.2534060529605027 10.348877046362082 -0.9614758542374022 -0.3323863031537695 0.04916129221599921
P 3.820803782367767 6.092688712209823 3.7994947571104847 0.9412554134254691 0.16383197898871782 0.026448423999515736
P 6.94990869325148 4.018386873642482 10.367555182809733 0.44034975310964164 0.4366378514756931 0.8643197793096791
P 6.326614737126695 7.700186160064318 10.220498162103526 -0.6787982311626697 -0.12517287185562312 0.04317139318115146
P 2.5134606726503064 8.514425022516754 5.8266699983257455 -1.0684553430134502 0.007456713388361351 0.5715274363984479
P 6.760932663547584 3.880086838139913 1.5770295336790932 1.2158253197914028 0.3959781689728019 0.1253289378175132
Ni 5.243579057810973 2.7931675948415546 0.4599891875005276 0.2587871896103801 0.17854228861569896 0.14276641656767025
Ni 1.2890271381900515 1.1451185137730238 6.994729537383173 -0.058194863173177194 -0.3604712343154437 -0.7738585999036285
Ni 6.7303247604379255 0.5726486691735541 9.182827025877064 -0.20388770935902306 0.6043956478813785 0.011624214502489658
Ni 2.5228625101059436 1.629164122259945 8.896658033849594 1.20081161999139 -0.17294936790895374 1.7473389348010746
Ni 6.312805506127972 1.8915756374122443 2.709689032303172 0.9806897081616917 0.6766027661732477 -0.4960750716964037
Ni 4.035022977958797 6.790700633051696 10.245930990417717 0.03977393746382827 0.7832534108549672 0.354673396686744
Ni 8.059063598236467 7.246459445274394 0.2810192055556133 0.42581710671110534 -0.022055180027826533 0.3465386833947515
Ni 7.630525860068803 3.9729130488690583 8.167587535845191 -0.2821191794681012 -0.30507141738890037 -0.2997716024425418
Ni 3.1875751276827495 8.361421633145042 12.4749802095313 -0.08541307545918193 0.29078431134226695 -0.36389748638817326
Ni 0.08423811540103296 4.716443952205084 10.316571212953038 0.30068511539574666 0.2578487369565107 0.08459597887452527
Ni 8.61702336401151 2.422720748618809 5.733056236947098 0.12426270133652795 0.36833495333423666 0.18633864473166617
Ni 3.8236396872295058 2.628161283300253 11.483996737611442 -0.6939371436866372 -0.6664253114196136 -0.3023252221023309
Ni 1.1355631400669104 3.3346267294624687 12.537278897893684 -0.3758901399736752 0.5074799710992358 0.12438919961206318
Ni 3.0202206146635753 8.364076907123868 8.020041908600705 -0.2605854191613835 -0.3016405373304805 0.20068694303353823
Ni 5.466251778722346 7.720236188067695 3.474384456190149 0.27311080532190385 0.8081717713632017 1.1572753872716521
Ni 3.0958056076186464 8.523023052543428 3.6609246784379597 0.25757414313888544 -0.7204611581190947 -0.8264356026693961
Ni 3.4829879051433097 4.185822670558967 8.987469307079841 -0.5402155136590439 0.6502355890336285 0.4209780334512492
Ni 7.392914965140499 6.174586754522714 11.41828683502524 -0.586615698190138 -0.74041446131257 -0.3481078276540843
Ni 0.6829581430598785 -0.0728755297113717 0.19524663080423185 0.14548535816073008 0.1561533793975375 -0.019521100752063158
Ni 4.6737518430285245 0.40803342349375993 1.6540144159767427 -0.9079231178219267 -0.5883594203541223 -0.29444042003761545
Ni 6.04260879992211 5.58558557151902 0.28965878068535655 -0.36144516819293876 -0.42730860365496737 0.17299719042775366
Ni 7.937309351608755 8.99350328172356 11.203788564720107 0.25134924527509617 -0.43318974502609264 0.6525215568543278
Ni 0.10410299674942336 4.991490597617168 5.9300387305361255 -0.6345824558774039 -0.7549681907570287 -0.8287542235002436
Ni 7.795884401831785 8.744413294186117 2.6292143613476378 0.21730912497125154 0.1661374871934429 0.1802253327450767
P 8.585954852150422 1.5652659474293644 3.567747140641547 -0.8571119487073303 0.40057941519023915 0.48904618987408033
P 1.7059232159539526 3.244925433007723 1.597808407295025 0.6950612299887514 -0.22978283195823007 -0.44847418198898886
P 4.632062235252135 1.0085886609230046 8.289396874892192 0.46415071218398124 0.3309498278175591 -0.13047140125040108
P 8.509277042353727 1.6203132089971932 12.499209133010876 0.8670371782408424 0.8212499447033985 -0.7528899680717616
P 6.281032533823524 7.825543992806149 1.350885990352541 -0.3491601801779987 -0.778943984846336 0.46279779770051266
P 1.7788529349301985 3.1807472803086267 5.98695823120535 0.01199933845372127 0.12804813652088914 0.40949522962263024
P 6.980028892977274 4.00837089118494 5.901975916566715 0.3419135259179144 0.4782174746896925 0.7592758169934472
P 2.338772545784852 8.495386527457693 10.23593758682054 1.2060913803330906 0.5077188265829191 -0.64899091799325
