# total energy = -340894.1773976487 ev
CRYSTAL
PRIMVEC
9.00260242637294 0.00000000000000 0.00000000000000

0.00000000000000 9.00260242637294 0.00000000000000

0.00000000000000 0.00000000000000 13.17621864799917

PRIMCOORD
 96 1
Ni 6.511771360288992 1.8773846963270053 11.326039922781604 0.48718291141309644 0.754308702796159 0.47468555027703413
Ni 4.551967839120117 0.32182953138826476 5.9708301902138015 0.17557446423662665 -0.7814238138453962 0.22245775905172657
Ni 2.8163291173573097 1.6287958366483013 4.845238414959954 0.2592643863571148 -0.05319509596574064 -0.26960716304401955
Ni 3.5074318947069307 4.465200757325913 4.888877629764812 -0.76437611433449 -0.47777087407057717 0.3547842112329954
Ni 4.803995692910191 4.681695339499291 2.3412032725438845 0.9335976397698953 0.425784453700957 1.023692951196095
Ni 6.930707462311536 6.030726304406912 2.678949404950218 0.6489783195877598 0.4214616579558871 -0.7909060423042186
Ni 5.02525265174565 4.603885847078945 11.380787448670283 0.21982932028994398 0.3924783833496595 0.6165597940477381
Ni 5.349274316814854 7.70043896889861 12.444173942219068 0.44040066095223507 0.6618680310662343 0.2559407213005205
Ni 1.9496395830753224 6.448924193033821 0.6392477876074945 -0.9005347957776555 -0.4165323389750698 -1.4790327499566658
Ni 2.802483114887971 1.5824144291567328 0.3008363628848507 -0.9760223845930093 -0.24698454054849725 0.3263971754498701
Ni 0.38410053209074535 0.23948632840643608 4.908167505896835 0.33113648990706845 -0.15203678612600266 -0.0513097060175697
Ni 8.828609089475746 2.4475105028164363 1.3490606734954937 -0.6464936054926931 -0.9361242628464911 0.17151032146958203
Ni 6.971273188661886 0.6299228920562974 4.767563961575394 -1.3857006767607232 0.8538885566740262 0.222060780723624
Ni 0.8960083094717762 7.354414943598545 2.660291511505677 -0.649800558378739 1.1165833088689285 -0.6585276538390917
Ni 7.629750534965419 3.919246938242318 3.688129429013708 1.411991492136452 -0.4118169357772714 0.900229605832411
Ni 7.656335219810646 3.92889772799988 12.557436583094878 -0.034932293100810814 -0.2746789211399721 -0.4807754652248559
Ni 7.87103828410925 8.86658206633899 7.069291722917845 -0.7643434613243417 -0.3250347478847047 -0.9944661931204936
Ni 6.865762688700477 0.4622269161150719 0.3251667960926755 -0.49710531273313097 1.1246393464041855 -0.5628407072577274
Ni 1.9671046317037468 6.366676417637282 9.137799867374607 -0.7663676908432221 0.4273548835118705 -0.06815865925410843
Ni 9.131069521830993 4.798945232971766 1.3401138872445 -0.3875290097641842 0.7730281335825332 0.7066800451746023
Ni 6.116467089529136 1.8962271431204551 6.959151184549426 1.5731739493174648 0.46299140176855746 -0.350396623688261
Ni 3.5630319670415442 4.006581183986826 0.1467064084787659 -1.040984391286691 0.7943261237293611 0.6719097315729525
Ni 6.122543846139541 5.638942051179899 4.919947411118636 -0.9421797250119515 0.34774838743213665 -0.6128265522575511
Ni 5.343566666902266 2.806363236516245 9.225092701148139 -0.6717192128287013 0.156088330487557 -0.12617303098536337
P 0.3078493901433779 5.614013845173657 12.432657813247168 0.30843904830955265 -0.27975633566287944 -0.03378763797340632
P 3.8835336145779054 6.170815800132125 12.730743881103164 -0.3355963254506349 -0.8911204444422911 -0.7089780971801596
P 2.2764520548841194 8.488535784352687 1.4740627078823687 1.8814289066406693 0.26135649299945307 -0.9890211108455225
P 6.375985108504184 7.809631533235806 5.819764721659838 -1.0548714336814282 -0.6062591834526785 0.18486180307582356
P 4.7651134532059825 1.1598412757703316 12.60867939587477 0.3805512928947704 -0.8522175967295065 0.6051019299197836
P 3.9851189798991125 6.11158767903604 8.057508287065794 0.34614761860391996 -0.08627490923884497 -0.4783452585168085
P 4.775313401709078 1.1111732072727734 3.928278348955738 0.28410921331493655 0.04616929946721081 -0.9401058732020583
P 0.12058805843712403 5.700096729186542 3.5838522855791513 -0.917127410029014 -2.685981336083729 0.35516370605960124
Ni 1.3212579365474715 0.9147994414316271 2.738228840879902 0.47510438298200763 0.7697443206249388 -0.7180378933895828
Ni 1.6603229502033232 6.463427385477322 4.841825528395502 1.1861699588188153 -0.02989550200785174 0.04352132032140246
Ni 5.812989363104296 5.534277795842753 9.120328516924511 1.4621848251613914 0.42692962304899373 0.00134340140177188
Ni 8.746064228200478 2.2991386128963 10.207102871211328 -0.810569582171417 0.33130515427444873 0.2975542830762488
Ni 2.3865358768575087 5.196167058039793 6.9871114670392 -1.1349286441453357 -0.4082287042053808 -0.2468379876683039
Ni 0.5304639414186127 -0.2081806788701044 8.99890951828718 0.5789923773169254 0.20054887479377717 0.04909032976874771
Ni 1.4930185874658792 1.0583729442801395 11.265825116464036 0.09087024191901125 -0.22560890308619852 0.421489425870029
Ni 3.986541391076067 6.77191055882866 1.7300246989150312 0.8264767403199766 2.0208194647575715 -0.2013361465817629
Ni 5.376939313946374 7.830013425037225 8.17792529605759 0.9034447703355989 0.37852783470683843 -0.5730865533554518
Ni 5.322905694426887 3.102710901851543 4.601201271047503 0.5639470529480288 -0.4649125300506703 0.5869422282916215
Ni 0.6062460477816808 7.479695158399141 6.732955398045125 0.888988742811269 -0.7026778659937447 0.6675403988606633
Ni 5.098128718058586 4.320555944793493 7.067842303933734 0.0544150844157708 0.9828178102482881 -0.2549397908398319
Ni 7.8391420638564115 7.068222213754415 9.074724934279075 0.06853738274976583 0.16547748501194082 0.3929234413068782
Ni 4.71707556687543 0.476405114612446 10.550079515603805 -0.8913868107298004 -1.4316797145939988 -0.7653387353580755
Ni 8.08268046359669 7.385176835950776 4.446789535186743 -0.3831645621479014 -0.6533875043990489 0.6768231097141698
Ni 7.320151038918245 6.153035660420199 6.900517235210803 -0.5321911006926706 0.3028708101931558 0.7338285805649362
Ni 2.243394498923514 5.0046817052941295 2.6916907881068206 0.43046951788145216 0.5303519906014027 -0.05108447738064105
Ni 2.4787945461070415 5.248076063396235 11.32200855743325 -1.7136109464210103 0.1276925529536833 1.2236108772740926
Ni 1.259788167457326 3.1255415015018957 3.8875379721191026 -1.0683622690790116 0.6292669572017614 -0.593657692638584
Ni 3.941510373942366 2.7379164505771154 2.606927685603693 -2.1085789289617427 -1.412589530731767 0.11743436556078483
Ni 1.0872893031432835 3.1789719466615347 8.332126371022522 -0.4803121524351921 1.6627699525097428 -1.0217880208638985
Ni 3.6654095613727007 2.5394180705729235 7.143500174383878 -0.6504168518064992 0.10409291125687233 -0.5286982570480636
Ni 4.079673312757022 6.868778560499715 5.883550860343847 0.43683479797784763 -0.06699394952204592 -0.3043345392228759
Ni 0.6096535327847006 7.2837715226772834 11.03778379647065 1.492807949363887 -0.4917497048481725 0.3649087012615071
P 0.24883553098407463 5.668614628643448 7.972297755224093 -0.07652348627903595 -0.6515198550626908 0.2858745327454754
P 8.50489351288766 1.5509233260112538 8.113427951785104 0.39677881049722635 1.77142708609853 -0.2072993061437333
P 1.8282845029149293 3.331656083124462 10.345110065004711 0.07718014602642836 -0.37904822598668264 0.5391881008357939
P 4.08533594965768 6.171436979696745 3.8178092156002377 -0.20821281909693817 0.4250676301395905 -0.5681631479119054
P 6.728130903426583 3.9639988747020594 10.283761831046773 2.493784432799073 -0.12311470377501377 1.3311876333145074
P 6.168655175559537 7.748737930698351 10.421927470642144 0.16470589695323892 -0.8627537203741399 -1.0736440863032413
P 2.25893299064138 8.57184586683075 5.5870195419198785 0.7946395412047218 -0.4319373606762303 1.376354202548817
P 6.886999827728546 4.0085797617164705 1.668597242056099 0.7827466464218777 0.16277525558942935 -0.41095741599045355
Ni 5.620666768336752 2.9675188218241972 0.31376139913012346 -0.2706731424146887 -0.8612516819073167 -0.06358466673018083
Ni 1.4308916284015714 1.2646315675408786 6.985991543302408 0.5105208148080885 -1.1570301040300655 -0.22740867529909867
Ni 6.952349718446964 0.5029510882674126 9.16019924237068 -1.3337371392092385 0.8940633291206989 0.3528715675913149
Ni 2.7288688351794006 1.6370332178312952 9.15085724187495 0.40433296869540036 -1.4112921520765822 0.4286046967585715
Ni 6.419152586944028 2.0248293182014057 2.5852008050058375 0.23739483997753308 -0.4090000351537666 -0.2202553520837691
Ni 4.112541814067525 6.774098191208405 10.22316441412781 -0.10058206989013646 1.8587954855118696 1.3848000193233247
Ni 8.057293124868774 7.12975500106126 0.5209986052701975 0.14746845002902992 -0.773435396323281 0.17189701538503943
Ni 7.525077277025888 3.779787624684109 8.156237126649991 0.4591200917386093 -0.17459975902818317 -0.15954517868790588
Ni 2.9512691245178537 8.355639367933716 12.39887464753427 0.014876917111832443 -0.32936577115989085 -0.27723716878545157
Ni -0.08918338027454874 4.86137828051719 10.138823533676575 0.5110851719519908 -0.21322081383449085 -0.14953381719849088
Ni 8.563518459623898 2.295006418401224 5.796073473221404 -0.5593388647520561 0.6290653827139165 0.1747262573037184
Ni 3.7163282804667053 2.568622512712413 11.305695841910204 -0.46161329047410815 0.5718719642220603 -0.2727613924022851
Ni 1.020093878935778 3.3471585644327857 12.480658788907942 0.5393693636086647 -0.06893101864375871 -0.2780928319175275
Ni 3.0242712272641907 8.06170440003781 7.66650365920539 -1.1892838218574486 1.4162368976763675 0.6631504973230838
Ni 5.582144632727976 8.076081556047908 3.4673090963939606 -0.1037830933259374 -0.7575536920960179 0.6668310314984645
Ni 3.1038272245473806 8.470269504111927 3.578818930585258 0.7529768713586128 -0.8600602327023767 0.15565278561203516
Ni 3.584773251803217 4.493748009491241 9.405751524264659 -0.4894236278181571 -1.701655573831347 -0.9550810064546518
Ni 7.3850507995173755 6.178621056400601 11.514131294427827 -1.2618575794601172 0.031090807867533553 -0.6092339498102862
Ni 0.5286724235438414 -0.123153800117073 0.27727115087981774 0.5246647104086384 0.09153615763778429 0.004169815106973463
Ni 4.521791115922963 0.5672494750271722 1.6450770430629948 0.3108078056520454 -1.3308181657902307 -0.24948442415221547
Ni 5.888170095627993 5.453866551332913 0.395008985401602 0.08806491125973219 1.4173692115085976 -0.6924325341166526
Ni 7.935244844324676 8.757758608699612 11.169914991686829 0.11124417758967294 0.4655056835499789 0.9436599091019038
Ni -0.07273382519524087 4.710404638507562 5.977391286832562 1.3426868922033584 0.04345164342573162 -0.7878621132715722
Ni 7.857327320675699 8.859064893346861 2.4312229945800725 0.39958491248745376 -0.4977884548430846 0.19331147650507355
P 8.458755175660508 1.6608901141536276 3.49026213143676 -0.376033607530075 0.9509438443578269 0.49266501757359027
P 1.9439589409698916 3.2010643329162534 1.4930500965742297 -0.22271461225753902 0.2068452493254502 0.42563095884222824
P 4.7492238599950705 0.9902862624364412 8.354803026172076 -0.5943845435022796 -1.305071652953746 -1.0305616532914703
P 8.535205275120601 1.4581515084257308 12.458430463357198 -0.04183956174360536 1.7926566849012675 -0.9293455493617606
P 6.154728149668726 7.7340006705928195 1.382646682216145 -0.05868157300160861 -0.7957348311514296 0.5077658777707708
P 1.860666863696601 3.2775864531954326 5.980962619199003 -0.5661715714031733 0.04486266484064532 0.5936353240410809
P 6.886810773078444 3.8464158849413104 5.959946043929387 0.2766591847947945 0.0999017559936602 0.0029004614762466177
P 2.4479876407428827 8.44674570407787 10.023307541423604 -0.05768295653376518 -0.06664119416831749 0.6529589015020626
