# total energy = -340865.848909059 ev
CRYSTAL
PRIMVEC
9.36687346329741 0.00000000000000 0.00000000000000
0.00000000000000 9.36687346329741 0.00000000000000
0.00000000000000 0.00000000000000 13.70936613161784
PRIMCOORD
 96 1
Ni 2.570644669770937 2.5382633892600848 9.759135326460196 0.2712369853379587 0.6053567262430671 0.35043287624283515
Ni 2.1148900893439775 2.159410837468964 12.055303448738673 -0.02029654546550698 0.21934158202024806 1.7252698708161769
Ni 8.91402230930692 4.1401673031752795 3.4062428171692454 -0.39918304906334473 0.6141103040659811 -0.34750130441833704
Ni 1.3574378913370295 4.236336989899293 11.334560963329375 -0.07379426027333098 0.17275396406869603 -2.1871351294000916
Ni 4.450210804739986 8.2246672791663 9.297486172754244 1.920376234438144 -2.021876702377492 0.11369598156427517
Ni 7.8689509040780425 3.1876499716310205 1.0047198523469865 0.4810050647371587 -0.321498195486356 -0.8488923890110155
Ni 9.00624854243097 2.0244341952469878 12.842659389305902 0.6178741419837875 0.3964458526378398 -0.1670862242599574
Ni 2.860633695902107 1.0026020023257243 1.634704830343572 0.7263592687710845 0.8093130840564966 -1.273810380946619
Ni 2.8885095104234537 0.3492579160450883 8.799918807232581 -1.1651712450799612 2.1591381299665326 -2.311953960350406
Ni 7.708618136214505 0.29643999167581137 3.063207314963717 0.12255291773427278 -1.4361691178239202 -2.03126559979156
Ni 0.9090503566496667 9.413707524849844 12.581811642259865 0.9145030850322895 0.5513782151440827 -0.5080407286987121
Ni 2.9497875946299885 0.6370682074794627 3.9660371311484552 0.03486055932261093 0.1176847910086941 0.4178736834943126
Ni 4.144391762970014 4.718730957590604 4.700091816691401 -1.3508311185770476 1.093880210844458 2.3729284431512485
Ni 2.080064054938613 4.001509479801795 3.0831269074237624 0.35521512812282696 0.480385943095921 -1.03689145216424
Ni 5.552064195059053 1.4006191766002711 1.66437159101293 -0.5498944315097045 -0.4926799299719257 -0.2636072367068428
Ni 0.7605507596479633 7.429522783567315 10.429564589382947 -1.0118314238718185 0.5287702479365797 -0.15832030514186926
Ni 5.2271460989177685 3.951050134093968 13.467957183973697 0.1905387988559428 -1.045970788757689 -0.29628081568046394
Ni 7.816355911289951 1.7352975545732912 8.541044660361157 1.2923799164186902 0.9120481957338938 1.039134739672462
Ni 0.14448120841646905 3.8694178345128076 7.166666778915977 1.28003450747946 -1.320303382301836 0.08380279354926856
Ni 8.503594028096625 7.578409232430488 1.7018119197169868 0.17231044877337423 -1.4467803176808633 1.3314419154171586
Ni 6.259441089157695 3.772882839735591 8.831477676280066 0.5132207302377548 1.382677316553367 -0.6956109318446342
Ni 6.347489696852808 4.869350277988201 4.7976749645751156 1.7693295801395528 -0.5993750547383355 -1.0305678239390574
Ni 5.784934028666308 6.507710062238436 2.811434194634173 1.3354883175723902 -1.340082364700976 1.0908542795339407
Ni 2.4210744391671533 4.140157936302121 6.424565012642089 -0.9309118654076162 -0.39396190987372154 0.06330750180939419
P 1.0131303677565016 9.275770950709607 1.5863933086511162 -0.5490086864706416 -1.001064929383934 0.6293129799483484
P 3.4855821062010692 4.166900359171222 11.547192730789178 0.9721683009542418 -0.10208050881253389 0.539154419384381
P 8.663243014219551 4.65734983777932 8.943702183598699 -0.8450146512231641 0.011210009783206501 1.1291763150425909
P 5.412310447525959 6.066052625915855 8.868602341358665 -0.02525491791204683 -0.5623460270094961 1.5015417296924594
P 4.403863516348984 4.180182585310761 7.024144183677067 1.5239422088748464 0.015423533643921825 -1.2442270108625475
P 1.2573341178862132 2.161003205906003 8.09300838341726 0.503861400510042 -0.6797210000872552 -0.1347556304480518
P 2.994860988271359 9.297267924609638 13.296850638602615 0.1616254582557023 0.8038312350063189 -0.5907281776966149
P 5.312881088942595 0.574845942458495 8.289093569441592 1.3735391016975247 -1.1891922905849066 -0.4639797338237558
Ni 2.0758676957633564 5.985300812411645 4.6333547188077695 -0.40894269955326995 0.49641599997559027 -1.1692834674761217
Ni 2.8137431288678805 1.4102670559540973 6.251374337993117 -0.6072207760349994 0.9456854241723648 1.5296567427611205
Ni 4.329490543466091 7.879357500157751 0.602397663168538 0.35496573111618224 0.9241462645490084 1.8015879259526264
Ni 4.982427170764308 8.46817788068224 3.1043353816304937 -1.2671779632317661 3.2382658650921647 1.1078775535648147
Ni 7.365444004286222 9.284566444605959 7.371128759606453 -0.37741840369274354 -0.8242851319852965 -0.1927278360874616
Ni 0.5907349693981993 5.516348307703578 1.595126044497303 1.5737143952019672 0.47313800328425615 -0.16153341276252825
Ni 6.50797233468689 0.08895532101690946 13.018742554386389 -1.0006080443521734 -0.037476656789219326 0.7070518266917243
Ni 8.11508423007852 5.9649278632907015 10.966203992912975 0.34778438287639457 -0.9506293984412015 0.08718019466193373
Ni 5.532890205702468 3.2413970898176756 11.042099082684214 -0.8385048751291043 -1.3823872961167738 0.7575279810644051
Ni 7.1057849134440705 2.5632261062289654 3.0265341331713866 -0.5616199474767489 0.590972175386621 2.2063898638646453
Ni 4.659663455449606 0.9056445615690345 10.486910460237311 0.37864327723878016 0.4965926347627706 0.01218188677817257
Ni 6.469502586622653 8.08554111213486 4.9653541710572995 2.3727854898154814 -0.6052536250062996 0.007791471019960775
Ni 0.6803263011026086 9.225798682406051 7.690076410796156 -2.2366985421505157 0.9824560560334953 1.3297084776658197
Ni 2.990655262222944 6.767125614378453 10.625320061472081 0.47959738575635463 -2.1424367580514523 0.44498750899196915
Ni 0.9903688659799991 6.279888973263912 6.581743017625656 -1.365693894621493 0.4934823712685631 1.1415821449061112
Ni 4.622289631544978 2.445906019911807 4.97456649080923 0.14092113582881535 -0.485728438354757 0.3493671539824822
Ni 8.332395687368585 8.312266276949776 11.863015593093019 0.8651854697440841 -0.05446290693457071 0.5905278887603508
Ni 0.592105342941369 1.953292793603968 2.48671467620386 -0.5006238674093507 -0.3491702074803277 -0.7495850720682445
Ni 6.506932611766235 2.343666599380726 6.66771405285409 0.10911813238560564 0.23069737335269946 -0.9906676453100098
Ni 7.407913407189376 4.779231591324937 13.065409253152115 0.5798243862999175 0.10121790370192245 -1.2719399033967838
Ni 4.37180070952554 8.197287908922382 12.028967548164674 1.7527428794254654 0.38926244751552314 -1.560711812294712
Ni 2.226177909346705 8.442596950084862 6.3688096368501315 1.0778496397441568 -1.1556581633832033 -1.3843523902629449
Ni 5.376669495155756 5.539690555615941 11.088450117824479 0.3454580487360631 1.2563903856979588 -0.7193568693113225
Ni 1.4281109493220963 5.64829008302202 8.964417023589949 -0.6504926993497571 -0.46892807896796657 -0.6362274476799945
P 3.7843947268480695 2.5520701602965317 2.961538337008023 0.11471259575424761 -0.49988210414731965 -0.14815493457309323
P 8.164841060299418 7.433391302182005 6.5199001109676304 0.23878657811873716 -0.7279939761610301 -1.496340645107494
P 1.4142198764272185 2.656698133483171 0.5576005922853596 -0.6724951717627773 -1.4794564677576456 0.4317059613917146
P 6.8170510483162134 4.670472827075154 2.1894541464393154 -0.46919084571105 -0.09305979337116232 0.30881648625362945
P 3.9564267192872657 7.065348122016433 4.710551803948117 0.8002229488297703 0.46536838664116625 -0.5352954506496072
P 6.460201281575712 8.363681043719827 1.5263731955098423 0.20316548648101784 0.6260001135250315 -1.1338906897991246
P 1.041362123457892 0.5765881808660792 5.166579897071321 -0.10278036309303588 -1.0217355703594082 0.36624850311885315
P 9.195243942161216 6.344220658120298 3.337983602397267 -0.1758518862677294 -1.69760685768327 0.27808666126994047
Ni 8.172690500006706 0.842429407993207 5.246395959946941 0.7773542717617129 0.9923535176528651 1.0526507718810258
Ni 8.259465212952186 6.7954791394309115 8.586916111595679 0.47899420495471695 0.5309695695807436 0.3400826433567627
Ni 3.650485908166225 6.541908516142144 6.871915634470744 -0.020569853731551672 -0.8716116849854022 0.5075416775751066
Ni 3.634140714503675 4.747440423823106 8.998553656130808 0.5399236934502379 -0.18074289581144357 0.7040474926477616
Ni 8.660526621003427 9.253646396307921 0.3791120141776271 -1.4632855144247379 1.8516254501259914 0.03498628626719781
Ni 4.15929445816607 1.7408052759908152 12.830664171538418 1.9163375455923963 -0.4323155699512555 0.6049258093532356
Ni 2.760492454958655 8.024572134742575 2.375380958522653 -1.449877468548948 0.36885971548945506 0.9843774414259239
Ni 4.469225557252868 4.588372183836041 2.5773466675162404 0.5437317543424185 -0.3754653937314308 -2.8328795154315856
Ni 1.1138898223284517 2.6492702030680406 4.699790203375679 -0.12193713852714481 0.28308231471231887 1.1246218629026892
Ni 7.841580900707285 3.083209335907562 10.486444926641306 1.4835689472641225 2.251949297661999 0.7945708927503153
Ni 0.5248324599130391 1.5257887026247174 10.651190428450075 -1.5562252372782683 -0.8296037159847325 -2.2833854046840933
Ni 7.142549890593361 0.9530699770606437 10.825765526951953 0.05675658806475386 -0.08964048327696819 -0.07259946863428142
Ni 2.929049337455842 4.081764849028574 0.33642248975523587 0.16425029747305908 0.719240398338116 0.014342384764601108
Ni 4.4598493172206535 2.415285711554858 8.21670824704305 -1.183919986442374 0.20944566306277476 -0.03657857045498216
Ni 5.855326080456604 6.070764163114858 0.5446789907624439 0.6431835672828536 0.5972392393422552 -0.3385888324200556
Ni 1.721593819141594 7.402808461317691 -0.2753673371298863 0.4532780311355355 -0.3971086830328193 1.6557516122103808
Ni 2.4609304844589306 9.034433463766566 10.916905202789554 0.3114816917906184 1.1543376447995668 0.6417859156043786
Ni 6.015855552656482 7.311003737485797 7.399232189145564 0.34805717692180704 0.3455171841087727 -0.9664473393100647
Ni 4.605485461097634 8.885809287351847 5.85021176771176 -0.9120782776408808 0.8828430349248473 0.5252102984994632
Ni 0.16976333576007324 7.849776914721457 4.592171387589354 -0.04247616688633975 1.8481873709787202 1.829077903842779
Ni 6.741872524341641 8.006943679457233 10.254729091807247 -1.201811522010814 -0.5671177373665265 -1.2957858567764458
Ni 0.4007410609892 4.3057361531347285 13.469657271452066 -1.108534470422523 -0.026290815375728915 -0.39668290834931036
Ni 3.8096009825190853 6.109711621710208 12.880168096184022 -0.5147281680212168 -1.8611362178299042 0.17899608832366593
Ni 7.641935366195195 5.071328163916895 6.768465077240198 -0.7504741595414172 0.8991823955148192 0.5530514890814474
P 2.8736723833395112 6.043178721661443 1.7735256373100243 -0.13686779169504815 -1.9372907508052961 -1.1238896127223548
P 8.780010455020326 9.075235563247407 9.654971950182246 -0.8263332727635768 0.25845577441289036 -0.0896998757599939
P 6.915140944037833 2.3002979766543037 12.711077301916767 -1.591707489345278 0.7449054072043881 0.010128346683253525
P 2.465061275522074 7.6346479388774515 8.689722227952883 -1.4586480156527266 -0.6822823330565282 -1.157117007316917
P 6.099998174244268 0.9747917559164911 4.336422966291107 -0.33558372704514466 -0.7328659595413507 0.6005649612813786
P 8.435215854035528 3.258547834571905 5.329255319911938 -1.3733892063832218 -0.017933187439652987 0.6090120636074673
P 6.537253180182095 7.108576241645469 12.274735566111948 -0.5279539226828713 -0.4763611382072441 0.6978601328901272
P 0.7453633115078722 6.0202205155486 12.24818048070603 -1.2519040677918312 0.8849863065200952 -0.9754122618128362
