# total energy = -340868.6219747934 ev
CRYSTAL
PRIMVEC
9.20516518200890 0.00000000000000 0.00000000000000
0.00000000000000 9.20516518200890 0.00000000000000
0.00000000000000 0.00000000000000 13.47268971622471
PRIMCOORD
 96 1
Ni 7.54107373980874 4.530285169040764 1.267800690252474 -0.7539356357274565 -0.8902030748343442 -0.5944182249536925
Ni 4.92984456411333 2.7743815214141168 12.208843572284186 -0.1666321674416743 -0.14279444159212826 0.223010546231403
Ni 0.7483182456677114 1.0813675615526586 11.327729774268969 1.4452625954847562 1.4736190351402623 0.6617644156088345
Ni 4.462802103905138 5.360775161747924 3.7677725588335442 0.8250029839879275 -1.1570218764999494 -2.205615447592466
Ni 3.065688175251523 5.2567383861152885 1.5172404123138803 0.09365628930458064 0.09554939256223545 -0.7944647061897543
Ni 4.630980469752619 7.562733493220844 11.99883141325496 1.9382366596583327 -1.5986576954108662 -0.022563230012496625
Ni 2.3829134664389744 7.640121315972884 5.323638764301919 -0.9736798525027618 0.6233778454108361 1.1287302286441079
Ni 5.644331066595533 7.2723841765508235 9.852968437208313 0.11226079177964539 -0.9471681793654784 -0.8199638789021234
Ni 6.693480550399632 3.860922385736687 8.62037934438549 -1.156031487562222 -0.35875759405844665 0.4694011619496432
Ni 5.44808615244652 2.0525124765449587 4.8359003314645586 0.4981406959761808 -0.6212631130606785 -1.0887590875678088
Ni 0.011934496514573623 6.420878791986532 10.513992261474554 -0.33759458682758636 -0.5084248515110082 -0.019864600134410947
Ni 0.8140716602864934 0.19573863007010686 8.153590946733258 0.613558545327569 0.9525003902116693 0.359506042188697
Ni 3.599210337602601 4.333368277841567 7.769727278623283 2.041335582433052 0.9195514460894745 0.8095444833410121
Ni 8.875620161474652 3.1087867581140247 12.418950544513644 -0.7893798354676792 -0.8958340478678767 0.14665058211342485
Ni 6.2891528798202785 1.3634598451539763 8.030087088008436 0.7248207206393711 0.33955351032617004 -0.41150403252254286
Ni 7.115472932750267 7.66126558014101 3.5184193653238056 -0.9984426612697386 3.06303130069346 0.6161574164029969
Ni 3.5088984630908526 1.77439682425432 1.0627473536470051 0.8013557768826328 1.0684345170778438 0.007213487029303706
Ni 7.257766374418048 7.714232099959643 11.361801772262831 -0.24249539442889204 0.4592162509968413 0.4534883473741287
Ni 3.281622937487441 7.3419660193226415 9.91545493874339 -0.03749156918755479 -0.0516668322466723 -0.7185248603283302
Ni 6.541622942223063 5.16416204099607 10.924020690782388 -0.24801940957091476 -0.5924387326298184 -0.10360645853875705
Ni 3.188798052911305 7.519036574628726 0.18721924979688054 -0.28308154338137054 -0.3726436080119195 3.046021139288709
Ni 1.6278690066538706 5.50039910554511 6.670342447477123 0.10392321844822747 0.36669330396575556 0.19077714011899402
Ni 8.147510014687345 9.668184874089222 1.4388694779322553 -1.3478080154800076 -2.356951350996702 -1.0361250063118608
Ni 9.039177534456483 9.520165819747266 4.6228164088511345 -1.1269044882892785 -1.1638018755362602 0.415509039916878
P 2.835927255078937 5.658571456960396 4.846126349341952 -2.468459323770723 -0.33417553384370835 0.9201836803568346
P 0.9736487198916168 6.596494931211396 0.5295869542832182 0.6316768521948347 -0.7965881802906603 -1.6493002001580823
P 6.30573138211318 0.5649568805520941 3.325248055792005 0.8920231587622185 0.8007109442097823 -0.4533500220240515
P 0.055327644659348064 8.41102627517535 2.7272363479863957 1.1862386072732216 0.4340166118027622 1.5519350945433465
P 4.980841178606765 2.874165510783942 6.78758127085461 1.06341263838322 -0.36574816644366687 1.6839319312993384
P 8.26693782631872 0.3108409346346113 6.823822926255712 -0.9867981350522746 0.8319619318042639 0.600006003454115
P 4.420835756346371 4.656405135678769 10.275337310810352 -0.15022518683856065 -0.8490201728381315 -0.6478645176982907
P 6.802635397811752 3.2610309832235758 12.911969980552248 0.8627652903383658 0.5262667647884356 0.6917545342130216
Ni 8.313709270044559 6.806179386364094 1.8287689727792966 -0.46687659575557655 -1.1267553643059238 -2.0731573549293394
Ni 1.4056839373347318 6.6435517350544355 2.716606223362385 1.3766424232131969 -1.5122794278249374 -0.5585258819324574
Ni 3.97082285151956 5.209672377107178 12.401543577364352 -0.2795681309114733 0.711426301610336 -0.9212254913577876
Ni 6.467981621654927 0.885142898766802 12.717989537010704 1.4663723808801779 -1.1878326912332189 -3.1076581953742153
Ni 8.115181474957932 2.3815050761831085 2.4975002817595016 0.14372775203967506 0.9519391183915606 0.6303645611413143
Ni 2.3449973915114546 0.5006670871796038 12.980990308254734 -1.2778130743481089 -0.3631665217594197 -0.31333211473579586
Ni 4.9026525064935464 2.230503548358145 9.865080593408756 -0.8226362835279639 0.42622745477564655 -1.0857773792316654
Ni 6.245069344295177 6.044148206290088 13.126576437468417 -2.1374547314558283 -0.6049381506484097 -0.24541205385505477
Ni 8.680967740882926 2.231267577059039 8.594902209018437 -1.3017474736765193 -1.0784559058695877 1.1888719311310105
Ni 7.076581110325219 2.4419646003695488 10.64430057821987 0.6167868224568797 1.0039641053086 1.060107485269387
Ni 7.372803322310549 2.624871230330658 6.396792557061709 -0.5982381129204148 -1.0147293142449039 2.0387354258060437
Ni 4.528978035600679 8.802429893994995 3.9645274391274907 -0.09354496053769695 -1.1832975223670266 -0.3026885189790206
Ni 6.370572564873425 8.818170726266436 5.718254065214842 0.6148569524240184 0.5693579395509549 -1.8237572629608136
Ni 1.1562239639101692 4.748088579786098 12.17447424745853 1.8554599933807334 0.8118062827919956 -0.18693565488571676
Ni 0.1583352828370432 8.182480436792138 12.315331683375232 -0.4488788736265753 0.7003083373203036 1.4564350671618076
Ni 3.9885796149415516 -0.008833276402147974 6.266821149357991 0.24299213155965246 -0.46550208400555315 -0.20352672647517853
Ni 5.463946651863883 6.25875742475578 1.738057594103466 0.925626705749277 -0.1373311044847119 0.01164915420315413
Ni 3.8708363485181723 0.15483732011005671 11.077285768698315 -0.23691584345858552 2.026961315989251 -1.7695661216303913
Ni 3.492605320915152 3.6234107165743046 5.419496750768955 -0.4254332410091254 -0.02826619393454487 -0.1550948562260361
Ni 5.316627190067326 8.614552474895538 1.4465088444246923 -0.05094358092740259 -0.5073635001260294 0.8905581441809178
Ni 6.77845342917019 5.447294508250413 3.4892242637845676 1.556474891395229 -1.6108166993709032 -0.7248060653513516
Ni 8.350244570211425 5.773451917046689 12.909706430461284 2.5207218806198655 0.4472703914888748 -0.7683456405051993
Ni 6.711669956579962 8.120612522349832 7.781650728939772 1.7258159731276341 -1.4285259994563655 1.3149367186732837
Ni 1.301177698283475 7.175665507149648 8.412495419520685 1.2444908060468955 -1.74193858972111 0.25660123770265486
P 4.465259882979099 0.3154674505993045 13.158506393550255 -0.5608385892260341 0.17025768000940356 0.1622422659040948
P 6.972783668984431 6.524731464317747 5.359570205640127 -0.26947346567963265 0.6308692686918748 0.8164370966957875
P 6.213431191946092 0.37340199800676455 10.120576393570383 -1.0807696416044292 -0.3419613484367143 0.32365637947993936
P 7.532540551787908 6.139375638949759 9.17344683373186 -0.7905532869504901 -0.3532454059909659 -1.1855912034972096
P 3.604549333343791 7.118483021728489 7.790367099745517 0.2692731767433685 0.00894229679495234 -1.0973206039845746
P 2.8392871403298585 3.612723519926854 -0.18592868565392395 -0.35403807709559026 -0.517383860476509 0.6457315305156879
P 0.14834583770197549 4.0395302036096306 6.301608388677872 -0.11669054541622483 0.5984589706819694 -0.6850681233317815
P 6.915315823446072 7.984900773707828 0.011586541274889178 1.3426413836774038 0.3023064530492536 0.6040971428043532
Ni 2.0761421352822595 7.0503555950378916 11.77350001851455 -0.4102902147200998 -0.5286512058602122 0.12381275828330289
Ni 0.5626758406474961 2.0913766834747927 6.6514396410037895 -0.6479280239463745 -1.8512518688366568 -0.9136751898143555
Ni 7.940025593986621 3.4693714842759054 4.570555925193449 1.0863139684614258 1.3838196576879265 -1.878301159644965
Ni 8.296541637187111 0.5013445873288308 10.104961672060417 -0.6811469339005043 -1.9163018072584548 -1.320675163818958
Ni 1.7129799629004943 3.373904717324387 8.23289068227055 0.2509342692248646 -0.7612241989690697 1.4705211129412288
Ni 2.1268073638331373 8.84618204357754 3.278862308482643 -0.07170472473415393 0.30111371829273303 -0.06846462053030145
Ni 2.184809108945616 5.162339418312008 10.115025679032561 0.625603135196929 -0.8200196718407233 -0.8555541173019072
Ni 9.244747280822436 6.86751340123228 4.541994139011098 -1.0294141699505883 -0.5016649070793554 -0.5914414017135555
Ni 1.473295874781352 1.7426850305846664 2.0728135475925797 -1.3795408278069143 -0.032034145617409346 -0.7331292405050663
Ni 5.575448816369112 5.828066161413033 7.669961699583601 -0.85537593985283 0.6571513423168553 0.8093825038418513
Ni 6.018594668052944 1.6188847655445577 1.200798134733555 -0.7453658917805743 2.5687804266899885 2.709698734305327
Ni 9.053003692393151 4.408289116354575 8.564911781217063 -0.6938702950044436 3.5679728216415585 1.187162918859704
Ni 3.3471176869677275 1.6117691729446617 3.6853329414905294 -1.1028626168487263 0.49200115873734623 0.7892749344586987
Ni 0.7998818983295206 2.347989070159535 4.260522283535566 0.00960615563119636 1.2494841454964287 -0.5884836046368124
Ni 5.13917922299333 4.119817653359042 0.7990948567159486 -0.14692286193820503 -1.1861200794174862 0.7019571857776362
Ni 0.835934847846666 4.065764924062029 1.0309076081828643 0.4055573280208048 -0.012004994880676098 0.24515905730398424
Ni 4.764252849650805 8.961191375974828 8.534989471637216 -2.950157043699532 0.6075107964715925 0.5529357894391896
Ni 2.932958900092528 2.408089592908206 11.25562387523468 -2.3747791232067423 1.1766530204673156 -0.35450884608442174
Ni 2.2186472957466745 3.9339745757402786 3.433595610227397 -0.10400755063191766 0.9165185728004216 -1.314890953037013
Ni 7.628872604256102 5.136086287529468 6.886605834106076 0.7329608332480022 1.584791478951735 -0.5188663585593064
Ni -0.12646976291070344 7.489165813973275 6.6702209392981855 -0.9680792184865327 0.002227089558305842 0.37710421488643436
Ni 2.816172970836534 1.741469948795292 7.057951697254496 1.5711242658772877 0.4187008073812982 0.9248489470429879
Ni 4.684453273650157 6.923499215194206 5.678065235031289 0.3662891265488014 -0.38377108538364874 0.1546135457142434
Ni 5.930906265586437 4.398494820719012 5.387095490235482 -1.0840588538786622 0.4643564004368842 1.0962168293974348
P 0.3437098175536919 1.3510420774731744 0.16847201061324718 1.0180653205966723 0.3984379433672041 -0.7020677432135716
P 4.386785850748678 3.067492387605442 2.637116861424632 0.6598029210070896 1.430238868382414 0.29266661596664434
P 1.0049278708029328 8.386549741251516 10.15462169658554 0.2568408645172867 -0.06745263432601932 0.7177679275576477
P 3.7895823564363047 7.205250907687896 2.4797159028422966 -1.6184677881582576 1.177970196616842 0.5737046465554249
P 2.8498822853265984 1.463455553320435 9.270476637712436 0.10351004217020882 -0.5178844542620114 -0.23075625161509292
P 0.4949138590102182 3.2380640963713887 10.328945430634432 0.5332048866691655 -0.1060286948270045 0.6148273847376637
P -0.290121028576259 4.571929335822045 2.941128484093055 0.799640593963739 0.15288525016922702 0.20667632784775372
P 1.8316805664912592 0.9053767721094046 5.373596115658836 2.088359259480758 -1.9738351255882332 -1.0798126770077985
