# total energy = -381164.383054123 ev
CRYSTAL
PRIMVEC
9.35430477170363 0.00000000000000 0.00000000000000
0.00000000000000 9.35430477170363 0.00000000000000
0.00000000000000 0.00000000000000 13.69097058100997
PRIMCOORD
 96 1
Ni 6.967974778037858 1.2503150709591233 1.3803099721135632 0.03702568529472978 0.9625567460064066 1.0491227041231093
Ni 7.308593074029498 8.387032150960378 2.295441598095002 -0.1132064435223663 0.7426585201517403 -0.7666140025260733
Ni 5.561358630328006 7.662690923052306 4.6431831136065655 -2.084465323742991 2.065606539165275 1.3143767324047557
Ni 1.7481792284732816 6.428951679970512 13.388414040757597 0.7133641420629973 -0.8868362152446404 -1.0378733564615352
Ni 1.8203102717927426 5.1991973706786405 5.113166766048275 -0.2349684899242276 -0.49418145421811666 0.9080601576204232
Ni 8.848423874561611 6.30475457685127 5.15428080593904 1.9091052895100156 -1.851655789143295 -1.2010720727416284
Ni 9.044985878617094 7.358217660310102 0.5994855817399781 0.23691892878237905 1.103191718053371 0.5129219680504135
Ni 1.605544790847145 4.017075180772411 1.1305687460024272 -0.8438872224869403 -0.5768272513448066 -1.5812119891305931
Ni 7.6801273469593845 9.257618578097663 13.508784297835863 0.6444770892832965 -2.002391339959371 -0.5855615458940109
Ni 6.337934295519941 8.930657566925944 10.589308616252307 0.6737424139063171 -0.8384534530658785 0.4545517556416365
Ni 8.004712364744623 3.6291521660586197 1.67109227453903 -0.11190083733706535 -0.4835764250087607 0.7984473449865862
Ni 7.833004748200462 1.4685977704610846 11.836295425609425 -1.2801892878897694 -0.2970274640385014 -1.4482342765185703
Ni 2.553968387153309 6.710722045275765 8.791177400834929 0.9878528015690342 -0.5693417416010388 0.6241576609996541
Ni 8.746321639075692 2.8563462856491695 13.320615911361827 0.2914306866770143 0.056020224119361584 0.16222786772639158
Ni 4.965816823437396 2.812727162967462 5.046162817119087 1.1858107757071836 0.9366292275073675 0.6322422377800015
Ni 1.4833401546228626 2.061501663434421 8.454585197573765 -0.8749111816722803 -1.0303436237433932 -0.048609019256954995
Ni 3.717269716061126 1.1782588620770316 3.7838414961145053 0.01830239785361364 1.6811685096215885 -1.9695033309820984
Ni 5.514764838760864 0.8061277845091243 13.138457665639026 -0.2115979335190872 0.4779061140968609 -1.293293172261579
Ni 4.013080892677818 0.03401412264534097 8.367661256847303 -0.5473744933013283 0.25141198019223154 1.3244881098071448
Ni 9.01346187187522 5.678932885740054 2.3534775751359307 -0.1609328030640519 0.29038141947689344 -0.8876782515299614
Ni 1.7108836157492913 4.352455066148192 8.203149906886678 0.5530370909037443 0.027988257682809867 -1.078972183384374
Ni 2.8023719476964666 1.1506356003830402 10.547961654175229 0.0017969439994227118 -0.198495077588542 -0.5488359083382032
Ni 2.7994627589437298 5.995828665085584 11.117957790439315 1.330373364943328 -1.701699796805721 -0.08139495543872434
Ni 3.240377909619751 8.199824451576074 3.0656825281636153 0.4770841324161977 -0.8473494700039277 -1.8205870927629484
P 8.215511620509641 7.937913275087735 11.62893200595013 0.9855976869862701 0.561050448126524 -0.48926627630468644
Ni 7.313139266099691 6.413900603754586 9.625066890747178 1.3341356601992376 1.0325097781567765 0.20581655095061974
P 4.834211111018579 7.723231982884177 12.380840369724167 0.3584675736218536 -0.0620664303134415 -0.8386840810194459
Ni 0.5557944309123025 9.021553345415791 7.376667155413069 -0.1790516241519497 0.730851243104167 1.4694389356206436
P 3.825040660177779 4.776036690268517 7.15878949730337 0.19178604099948263 0.49819700313541293 -1.2825055947277717
P 5.70119613085746 8.588776439803695 7.378899092507612 1.7375168065043303 -1.6482596747087097 -0.02498649474200858
P 1.704962340892435 4.840094968656751 3.1105476442275237 -1.3486199698583419 0.5582340617236515 -0.6409076267644833
Ni 2.051286762733494 0.8311365180475213 0.9712480997038413 1.1282532890076893 -0.5457405572423311 -0.1399662281147138
Ni 0.1509747356709601 3.488192148968624 6.414329030908526 2.13324275025701 1.093660124413852 -0.488701662050468
Ni 4.770293147200413 3.3885781585252395 11.440914223781302 0.43053996610807144 -0.3393992441364929 -1.3150087095618
Ni 6.654792657646786 4.453677996995019 3.8104984581359638 -0.3925696575118852 -0.8812021568873146 0.035883344160170465
Ni 0.7346075772846913 9.188808312936471 12.74003631479277 -1.3862053843112836 -0.7793065103920771 0.36166062663785453
Ni 6.146049443800047 0.6813638105268077 4.028376116245663 0.3032567327776648 -0.0422077437163015 0.27533121001199035
Ni 4.96743511814551 1.0365598549180128 6.60618114256207 0.9360383880009039 0.8920630108612185 -1.9858372922554315
Ni 7.471227015042616 2.959271699946152 5.81428125545781 -1.5287195756588317 -0.6483116325380384 -0.9666111185814386
Ni 5.532687686510841 5.547083961399786 11.152226350171711 -0.2219275975798694 1.7914413244369276 0.1763008008796899
Ni 4.216901837158137 4.77058313064522 9.250550465488121 -0.4418093683743037 -1.2449008970011206 1.122464450240054
Ni 0.6076855652147336 1.1863596899222728 5.562367024371559 -1.5910546862526276 0.8174966483085534 -0.9435393243636396
Ni 2.630318221879472 2.7938501761410226 5.387177735628784 -0.5283218475452514 0.46777545342076216 0.9969246819633153
Ni 8.563716257589608 8.58801874112533 4.381493634138932 0.017515897396576288 -0.621960139127703 -0.2975108314328231
Ni 3.5578349472455515 2.687080142624186 7.811574971629259 0.07002862258331165 0.12877987248059114 -0.04428905172536244
Ni 4.904864174199994 8.51271658852234 0.9687757569792486 0.11736957376112045 -0.802108081667625 -0.18729586643861293
Ni 5.780268068242935 3.329384118566019 7.644463124970048 -0.267134790244127 0.158435747673811 -0.6887185756001751
Ni 7.537053257013702 7.186697129859365 6.503594354094186 -1.1710187049996736 1.5058472990463485 1.1252142450710494
Ni 5.3722145898767675 6.282818732397354 8.315881438770457 1.4838617959141929 1.9987622278472155 -1.2340667825000942
Ni 9.212474703754554 3.5381160729987062 10.963769851113806 -0.07925219806410867 0.3742351208687555 -0.3267386179496889
Ni 5.560254822376806 2.638353569592015 2.7074444638933426 -0.13656800106644224 -0.30196269655658964 -0.8748631020431643
Ni 1.450113664430835 1.9634498418711233 12.478128880026297 -1.010408061161731 0.8227905497176411 -0.8464295292928197
Ni 6.8237594629222915 6.856340506092009 12.847811936061758 0.41153025777478797 -0.21912560935470005 0.6166644379464025
Ni 3.555197033328279 3.677766487434737 3.368923828980625 1.2090980283698984 0.614968024080586 -0.5771877200080188
Ni 3.570987099613229 2.317987343213477 12.97267413024312 0.3050804162499649 -0.7482815227654727 1.3038004995508061
Ni 6.875526184972596 4.141141323626258 9.780856287032394 0.12111875639090754 -1.520108436951053 -0.4588007607259776
P 3.6083762553839316 8.926925199362145 4.96370275058171 -0.29698864038076594 -1.602042552722699 3.1868468871902405
Ni 7.780929334096009 8.58119945302004 8.260556339223236 -0.9813268275250584 0.1796018402284649 2.101513794584845
P 0.10602262457360956 5.1439789102046705 9.272058818218563 -1.4492323787657815 0.07517288578841247 -0.05015039560214588
Ni 2.4836333703307147 0.8187111951527942 6.619570894268397 1.8097077268462831 -1.0589810849744279 0.12313424415903954
P 4.289687681804581 1.15840902756479 1.4228477371752826 0.6615998650065121 1.1737340470483077 -0.1253587626141841
P 2.129956465018109 8.803495149225938 9.207040788171065 -0.9702556573125611 0.928348218445498 -0.50106224049835
P 0.3118715823066397 1.9330202887757781 1.3966977784670016 -1.0492111500718575 0.6297683223182121 1.2668858859126442
Ni 0.26474365994277294 7.42294009432999 9.107603594085967 -0.15899599105265522 -0.4412599236287368 0.5352301446293105
Ni 1.7747828709581148 7.915388109439536 11.09646346916588 -0.44233567319141887 1.5010591336290857 -0.10567285414948252
Ni 6.647935952322813 1.3834642436486848 8.686003211694995 -2.068326252089283 -1.260505693417913 0.09147599382381019
Ni 3.7063906597285445 6.993596218532217 6.613889089611122 0.16869547772860624 0.3171368331938667 -0.7058626914796295
Ni 2.571049347482882 3.599470957336969 10.203031023730174 -1.1837402663314 -1.1248290938174885 2.002004903154229
Ni 0.36319958746786585 6.039073615580444 11.224856913360615 -1.025588368446595 0.36026040385621827 0.41257643965111523
Ni 4.033314253681579 5.560872206485104 4.464297003657741 0.8367413554707783 0.8899135686183834 0.16844530939101315
Ni 7.106063023593802 6.614559793256046 3.6140879938161534 1.8545886465193737 -0.6265233330183533 0.12894570863449406
Ni 7.703082810622457 0.295735406748856 6.254582763747401 -0.8357589369528511 1.4041303442208204 -0.44293062646294046
Ni 6.0261646751342175 5.715751428925815 5.823892803507445 -1.3390634365181584 -1.4267064297491234 -0.5097327716891544
Ni 4.126296042113098 3.850559203320755 0.9718290020239214 0.3986300047733522 -0.8454427398995181 0.3554033328742331
Ni 8.361822299871552 1.434024260396407 3.616811967336401 0.3863578722742185 0.8755017640684277 -0.7455942057412966
Ni 8.427611124623954 2.1713399088834047 7.907521139211074 1.6594897390965742 0.2582004638689747 -0.09970429527087346
Ni 0.17527160662388036 1.2253484317917467 10.210999955879553 0.2838274204084596 -0.6807898076714017 0.07623886515908161
Ni 4.168399767438074 7.763857728071107 10.129812074777456 0.6429022885970089 -0.047860314016388544 1.2507879519095169
Ni 1.3134472731849103 0.21699274088780565 3.3874472230904935 -0.6285179948508789 0.22485017054330306 -0.0792056610968894
Ni 1.6631392447075937 2.6306456225429633 3.2314520321025118 -2.5668477284436504 -1.5555901747974306 -0.5601191945615063
Ni 8.99965491818056 3.995607051552056 3.9081284005585917 0.331597488703887 -0.6586878335660398 1.3410632405570067
Ni 4.367983211902349 5.784963929187867 13.368055332071245 0.2000850477834812 0.588555081304696 -0.1934253763751185
Ni 7.377814928596222 4.905434786784936 7.4210944900183655 2.3912503813888883 0.08896454025586613 1.0199980188430113
Ni 1.3668229356386574 6.318196712663754 6.98353098670603 -2.028837964186674 0.30563860274628013 0.19497318047821258
Ni 1.112872272425491 7.091451599697421 3.4368716272511346 0.2538493859891306 -0.04431836230140109 -0.6868362709757977
Ni 9.06145880914304 5.247053993376392 13.444655862162593 -1.3235118619368045 -1.0642870705683736 -0.3833676792976429
Ni 5.096805151747915 6.789157889943601 2.4802424348874124 1.1591353232985264 -1.2508514581576007 -0.49439742688366467
Ni 6.218283384470891 3.254568389805929 13.425078237916285 0.32415491638291266 -0.14249850761826424 0.25019559128662716
P 7.315982974719729 4.457344884426121 11.9513683399524 0.7611164697466117 0.24714909115081954 0.373824258583582
Ni 3.1306425615221505 5.780361611289648 1.8383004705363541 -0.565391241593723 1.5662821072936381 0.11546670031145274
P 5.775628333126031 1.6217558008422979 10.54588032138589 -0.2108613124633788 0.8127557911894584 1.5171274999458584
Ni 3.20308229689576 9.102991921883076 12.58708127282292 -0.1858766174935831 0.31319198961350575 0.8307524848771951
P 6.170791579655315 4.677853908439824 1.4994763301806464 -1.3767627508411449 0.5514517486944955 0.6884853765434465
P 2.7100075433732456 4.412004569684917 12.502881305616704 0.21429964872096643 -1.1979651516815304 1.0180717483545756
P 1.9321409841366874 7.934040592953866 1.0762333318894168 -0.46606155605344896 0.8425222238186134 1.5732716512375937
Ni 1.357290899178726 8.068171967633901 5.547909946502251 1.2267993023044033 0.4354530871389726 -1.4080397065775556
