# total energy = -340871.84445857344 ev
CRYSTAL
PRIMVEC
9.22093975246213 0.00000000000000 0.00000000000000

0.00000000000000 9.22093975246213 0.00000000000000

0.00000000000000 0.00000000000000 13.49577739460218

PRIMCOORD
 96 1
Ni 2.2030485055527667 3.006210807809847 11.199970226120557 -0.18570872445715111 0.7117381764238 1.271848372124242
Ni 4.605582823681935 2.0143604135332196 7.954627252782774 1.3185177511563226 0.2958707247262389 -0.244648693326469
Ni 2.889824105103952 4.575126059378531 2.212538696839798 -0.7529478178928904 0.20121119096812445 0.5636729733510357
Ni 8.020521010999111 8.395748716054648 10.162820120674285 -0.6384308830892166 0.35267256420663134 0.8951498773166583
Ni 2.9878703584609307 8.315572644114562 4.582774828978795 0.7309715707321154 0.4653784139434953 -0.45488625616291983
Ni 5.910742311964339 7.485051813341527 0.742483907616283 -0.47792025516424785 0.5483204021543654 -0.3240549004699387
Ni 4.535180947976063 4.760568380573131 6.508865029577218 1.048725725795007 -1.1988704371046193 0.12284036706770456
Ni 3.7802349401611575 5.747983502784988 10.140173492418407 0.7965246740425765 0.07437661513936224 0.7450568451805878
Ni 0.3029982390726643 5.248411423938531 11.104609110446033 0.5109982686651393 -0.42133875922477765 -1.953640652918229
Ni 6.226559501607572 1.701669122496965 2.5687860193212724 2.5079751224771583 0.9184206749191409 0.009025600537378005
Ni 0.3160163619438561 7.166874063098331 6.659356300388645 0.8132368445909348 -0.017022759810241653 -0.8916788880489225
Ni 6.015464525768082 3.3386533519910886 0.23610493097728202 0.9118219386557006 0.1325172280358363 -0.06414619566060566
Ni 5.4599490048905155 1.8028320535210791 4.878628683860639 -0.011555566048083325 0.7466311316462431 1.2403521012881733
Ni 7.587680873800773 7.312878424581863 8.001929752086449 -1.8426528143137362 0.49563001373918514 0.0067031230517884555
Ni 3.0187973906963586 6.023671162228884 0.19492236944780425 -0.3543345252900866 -0.9007710801581776 0.9571425169693708
Ni 2.94745497912644 7.853981616483886 9.290196478575378 1.2586200463594261 -0.3268841423886177 -0.013080487333041988
Ni 4.456959715282821 0.9466770099828408 10.356646120374686 -1.0406000113640788 0.3889426022822592 -0.8427921896505486
Ni 4.467407040125617 6.946060216663687 5.836114479528145 0.45911957751797705 1.324870689957544 -0.1856940691691318
Ni 7.006199186323634 7.334851924229158 5.692856113930037 0.14774870027361003 0.19689919385633184 -0.7257589161829243
Ni 0.13593693936229168 0.26353169444808017 12.32036236600491 -0.7992143050595977 1.00846687827496 -1.5505446419537232
Ni 7.191309553683866 1.5169921393093821 12.994234182338966 0.03670918249557548 -0.20222163451050978 0.2655988132155748
Ni 7.772256426650076 0.5909396054747172 4.429611329800693 -0.8657169167675219 -1.9296807996685217 -1.7919969398300817
Ni 2.7591172828209496 0.3922772228263497 7.911548866021453 -0.5229017049709446 1.1903161197767047 -0.3965723509133751
Ni 1.3470686598715567 0.7422035910450376 10.168313034539116 1.6313096771179325 0.973648227933878 1.072599961309443
P 1.8513526389780925 0.09682447882770166 2.611892068902125 0.4582870543143527 1.1128384971145158 0.40131706468721207
P 6.786298212933507 0.5149498402236254 9.043020887221873 -0.8892353116044363 0.01580148580863085 -1.0004488930664899
P 0.008777412637121016 3.2130733722611264 11.943938705051659 1.0308807271937859 -0.05384301396238468 -0.36445567288448844
P 6.433145437863544 2.7209057081090786 11.422097134388927 0.2729061455102655 -0.3251555897332851 -0.5123059317329692
P 8.723101301442224 2.4486390173471584 2.8504165744943673 -0.48855048118458444 -0.10025451134738864 1.13977980159005
P 6.128909748663869 7.140068790972991 11.74243350664951 1.2409318850510433 -0.429515381498299 -0.35497730108040804
P 2.3099468611595992 5.939659179313861 11.75197441310568 -0.29313867050705644 0.2488442194650553 -1.0215149697081696
P 2.44487687389097 0.2155164164944962 12.225946396664357 0.2900813717379714 -0.2518920051524436 -1.9932495255591025
Ni 7.178335691323923 2.6921640386165837 8.794010328839493 -0.9657847660254012 0.5547605013527542 0.7922497008163065
Ni 0.675165514194111 8.429921519115021 8.76077068489129 0.17359754301591393 -0.6814685789059812 -2.777481755387571
Ni 1.7090550953116868 3.5166635956717496 4.443943436599597 -0.9185302039138117 0.9232350655886488 -1.097029040886085
Ni 8.414273584200437 1.6971508619736015 10.58947577351952 -1.58863244996438 -0.5488742177753063 0.9567313975738814
Ni 1.6096533637976993 0.9740170966191092 0.5182610797214615 0.08410566950166806 0.3389027641160486 0.8734623650408957
Ni 0.49930835996693007 4.46656793459985 2.3621927063134263 -1.1593474393093326 0.6147530798563026 -0.07054490009809786
Ni 1.7743116865848305 2.402211585234642 2.28208210304623 -1.7627079610579772 -0.8803765756622257 2.464040882988053
Ni 8.183962169726886 6.865404655851735 1.0402262109780964 0.4830061543275875 1.1620674093436567 2.128282320927941
Ni 1.112543275889483 7.561244439269177 10.864505979952568 0.5325847365866635 0.1504229046716635 0.9393013750228919
Ni 5.0008015263183925 6.487447552602493 8.10479486860569 -0.09621427983974398 -0.33237370474827915 0.24109362898535897
Ni 3.156576673839401 4.016152686059614 8.310146121016604 -0.533943564607403 0.2783347727250045 -0.06678183351123983
Ni 3.717477223585629 1.3700380210219596 3.2817951927274946 -1.4424662636865415 -1.43236568491743 2.336605183240182
Ni 2.0494553105779536 4.9809027381359074 6.254658471592969 -0.34579306347797867 0.8632969944721197 1.092236761703764
Ni 1.423418041776549 7.972452251594434 13.399013155405264 -0.3439670660128334 -2.7587903496256554 -0.271817540431777
Ni 1.7476355076173011 5.760505539092595 8.949481829260447 -0.22670907812891278 0.2495805834104476 -0.4760780597491865
Ni 0.5360316749880438 5.565491882340338 13.352695452476887 0.6458174053612749 -0.9169985977606336 1.3033112186192135
Ni 5.839058725620207 6.164567123039063 3.6248851561461386 -1.5716202316771 0.1747871924486409 0.28105988496565143
Ni 1.4734416404280684 7.29990456222192 2.1406734579807476 0.28146226261039264 -2.2289515512152454 0.3788759620748765
Ni 3.5321086699097766 8.258845422196746 1.0158810856030287 0.21073481418784354 0.29064315777871236 0.6836581303581323
Ni 4.099039714313718 7.515231949449623 12.152502532904082 -1.5371419953945722 1.2315545576012017 -0.5970458923845265
Ni 8.777597055917887 2.870331038274586 0.5629678844591626 0.04508352260219978 0.3921505676965956 1.0366423122679116
Ni 5.375402207464565 8.01970034735303 9.838232895145804 0.38273261681680537 -0.5321409641810254 -0.07394518402889846
Ni 5.927081817367195 0.032617230508759504 11.713335908879053 1.6024037927168597 0.015837995473521112 1.522083558399553
Ni 8.302589560814777 7.186542327784725 12.20622926099679 -0.7459353911307992 -0.29314612670622414 -0.027080401156559814
P 1.1323221918540012 5.810206404849588 4.332441065728856 -0.14921731439933655 0.1734301642001142 -0.8463284849385811
P 4.832888211766471 3.3430978449957034 3.0911946777843844 0.33923340798259 2.1657790323218187 1.9852593082647745
P 3.870517162169826 6.693240488031916 2.6751191313156926 -0.15588984132350572 0.12423673319459895 -0.6071261594386641
P 2.6545333831148596 6.903339602368297 7.118266800806787 0.2623311982078966 0.8106587994511135 0.9780286163897608
P 7.692255552567018 4.844608026307684 0.8643312508975569 -0.2190765012843195 -0.8460032403886786 -0.1880970221836696
P 4.906498974537914 0.5472424936498903 1.620033375779638 -0.7286519214600031 -1.951377567915665 -1.7241483556172241
P 9.330669027736901 9.430070759250889 6.089551089035455 -0.5637372509300679 -1.2295897205653468 -0.655523062684813
P 7.260254520894448 7.84822775002148 3.1208713505770205 -0.45460034949138484 1.2418919349714679 0.4625879956825517
Ni 5.149489181296411 5.277798559220078 12.265070844420745 0.8597293317255194 1.1536786710593292 -0.7400923020864609
Ni 4.676086129726086 3.443689077749515 10.451332263252656 -0.28673071009818357 -0.06224743597599602 0.4177407574608741
Ni 8.954427019298567 4.81763677726516 7.929025313307024 -0.42676892910141334 -0.0009577359275789956 0.448248439131428
Ni 0.7330010930811268 8.354070067961585 4.1988739079063695 -1.755861370449789 -0.7650862530276372 1.0946967932084826
Ni 5.308531951718791 8.881378733857584 4.047909602880966 1.0990941509452297 -1.627803720847203 -0.41665472348554694
Ni 5.112116712110308 8.757145011344788 7.611996492168341 0.25628627756539735 0.9526184038467722 -0.9190865906379139
Ni 8.639135423226419 2.4515436133978916 5.2211119094375755 1.4364820210786486 0.8966858543452106 0.9494567182893391
Ni 6.867377936978264 3.600647915767241 4.10497062282112 0.23661785260219248 0.8621762506041151 -0.5648600516806014
Ni 7.389873272275906 4.668838471009017 11.935706249959294 0.9394463852411885 -1.1084092576985682 1.8746951874612616
Ni 8.709795485247911 -0.02651204623831321 2.1191610053256333 0.4573123491059091 0.690287719859508 -0.3505254359566415
Ni 7.067896494817149 0.8208323892793672 6.620569339030535 -1.4012034003820126 -1.0485493481181425 0.22419145391338163
Ni 8.099175627865002 5.9955841794652835 3.5709020859257783 1.7392170770248885 -0.5352905655536007 -0.3059301658447699
Ni 6.579490974121289 5.691237838987486 10.09940310689994 -0.26278576924681196 0.4277526331709214 -1.3953086321641324
Ni 3.9238326363455105 2.522240559178758 1.433710454829973 0.6573896835799065 1.2165460000075115 -2.739320928047134
Ni 3.543920693849426 5.288162895604283 4.399866422053214 -0.11349286441453359 -0.25651330597453886 -0.9806395716500464
Ni 6.611100355905143 3.0951559935411943 6.638235737676884 -0.14951556236604574 1.8920899858989413 -0.925038951566607
Ni 0.5391667945348672 2.9419408570999686 9.300830988497003 1.5726155057108335 1.0377514861716903 -0.9643380062765458
Ni 8.878391149348259 1.1728758852861454 7.900036522626721 1.28192992472996 0.5959452031211802 1.1966019527854166
Ni 4.921713525279851 5.087967070659925 1.3488768861748863 1.7185461789390983 0.6912732237012288 0.6772853940625692
Ni 3.251155853815187 2.714266631421688 5.988792035176489 1.0842853680671714 1.5870319382464795 1.0482575279093365
Ni 1.9271303226127814 3.277205008873351 0.26993748135742773 0.43112977717327045 1.7706382716486473 -1.9791403398512304
Ni 4.1420000730450415 1.325961928569561 12.92207202921695 0.4921050313050622 -0.2711040593045202 -0.4681698606457033
Ni 8.730007785385078 4.9271169960282 5.624540936910773 0.03810709128436663 -0.42740553424414784 -0.20876869160040817
Ni 1.762462778885807 1.331439166836658 5.172688143848919 -0.9873930883237962 -2.2981396801751326 -0.4918350654731272
P 2.994721516764724 2.2517627307464956 9.405409355639184 -1.2406102400455665 -1.7728625329934757 -0.2823174115218363
P 3.989651704949113 3.8854274218969245 13.068798390290235 -2.827137470741486 -2.2332386086263734 0.8438993066717981
P 3.9310157484836736 0.6609947738424694 5.968372263892841 0.05952155240440073 -0.8305339411084858 -0.17555492385260088
P 7.810320466324448 8.869207093264034 0.11336592281313228 -0.5165953031369426 -1.4683634431682777 0.5624357585098249
P 6.580053451451748 5.201089560661186 5.679805717769392 -0.530280513933519 0.22735828167713745 -0.4069971457911249
P 5.2914455501886035 4.423303284853688 8.630171747604457 1.4592301134084418 -0.3896344861429612 -0.7209604663530164
P 0.9576130446373482 3.2008556269683592 6.871793845069364 -0.29276611765898614 -0.5801182633912526 -0.06773982654913495
P 9.010969822419511 6.546212602225744 9.301168474895276 -0.8634885416576354 -0.6953880172005508 0.7846472058787003
