# total energy = -381166.9069650796 ev
CRYSTAL
PRIMVEC
9.20028119201893 0.00000000000000 0.00000000000000
0.00000000000000 9.20028119201893 0.00000000000000
0.00000000000000 0.00000000000000 13.46554150318776
PRIMCOORD
 96 1
Ni 8.283602067496274 5.611987584056423 11.008726306973422 1.4963141627449326 -0.45660478151592326 0.06947403563142228
Ni 4.23953562194026 8.56167136934309 10.316773150809476 1.2106664012982826 0.14275998880976706 0.5913017908118978
Ni 8.119459848920007 3.764561899827245 9.403863278990961 0.31512983006616696 -0.9467349484828019 -1.045467109648393
Ni 0.36849518657854075 3.0124389039968698 4.12418525515344 -0.7220912375233499 0.6465488842106606 -0.9209609248424913
Ni 1.5341561061493698 6.3345132749621955 11.169882114241473 -1.0065591197292858 -0.9620952329889559 0.6930015192462452
Ni 2.89197962100718 5.1080789772720125 5.9019197286044465 -2.110181497562172 1.1176713997267849 -1.6325234949203757
Ni 6.8670623574165734 2.562913159944611 4.423134595398264 -0.386229060005838 0.3924120488880984 0.4302586874222267
Ni 7.526722526236609 9.235978385984069 7.31258321902131 0.8687526182700522 -0.1959499425691851 1.912917207056938
Ni 0.37399695479268835 5.964220353418697 5.755374888060288 0.12481985939157858 -0.5539747722266654 0.5262443961909323
Ni 6.544160084821361 5.509054836932872 5.524454267763709 -0.42841186402147513 -0.7494670584331414 -1.4422484912487807
Ni 8.757986971606437 0.8111345200818204 0.9271850282751563 1.2106736003871341 -0.21007249801349628 1.3753522436468635
Ni 5.72483823441551 0.16686734189571487 12.09026537455556 0.6164970591306028 0.11904876123575626 -0.7077977037188132
Ni 5.952094382672466 3.1319321574506302 7.160046235270005 -0.5125738406823753 -1.2460679207260281 -1.7019404520616173
Ni 5.676380352837057 7.424673006117337 0.059059365714176526 -0.14098849873164107 1.3604383026495086 -0.9900608649639465
Ni 4.721299151648661 4.016318397171617 5.390363848007997 0.45486877266142306 -1.1471969199897276 -0.4118269630796004
Ni 5.228133447884742 0.42378059690568826 1.1556123723409093 1.8926983089069018 0.35617440671230277 -0.13803815785406548
Ni 8.70363170971817 1.9003457022354933 6.091824574861743 -1.7947745025752186 -1.5215076312914246 -0.3488012541766832
Ni 4.858300540405971 3.8113545304913834 0.8561616167655323 -0.26573559590375523 -1.075071048557755 -0.04006112968694391
Ni 5.421725766884898 4.209883115327889 3.2007723422090546 3.482814285395344 0.7993752561174943 -0.1275809670764835
Ni 4.171057928264841 1.5978496535516167 9.587626937484139 -0.9041703356477137 -1.5486381689596296 0.992170969328414
Ni 0.509691903606171 7.57914572905302 3.691147335209165 -0.48673116858765847 -1.8789596191645705 -1.768738226412457
Ni 1.7436189103826438 1.4764611421511769 10.549430784214469 -1.0865265986928643 0.356908713775166 -0.5652086932692717
Ni 8.74597140423574 0.40904174627180123 11.856854238112543 0.31300635596526094 -0.89623693973325 -0.21259577865598225
Ni 4.006529297874204 0.5202197854915374 5.4074386500625735 -0.4249082217435908 0.7342276157755678 0.34730795746060833
P 0.40281499589164227 8.108235505740643 10.223887110859586 0.2930484247860953 -0.4895976915021762 1.081853875807543
Ni 5.030318199770383 5.444165252962333 12.369190302562771 -0.231746126332188 -0.0741434160826336 0.3200074698734424
P 6.9846511526423605 1.9873527624381586 8.515082984923692 0.9292185368655933 -1.6767588105896671 1.206860140178315
Ni 5.4173004315822135 2.997479246611913 11.979834398176944 0.7072829688659238 -1.041021929392846 1.389383010708317
P 2.792671784713687 5.222999690922376 12.619690041482306 -0.28784862575271075 -0.28106682694418694 -1.467546603693937
P 3.841494652012366 1.0199523845963459 11.755916111973654 -1.1746298193896996 1.545563643799364 -0.25638192260299714
P 0.20222862305136072 7.374687877843986 1.385146510246398 0.5503194348622651 0.888275004573696 1.3794585525057532
Ni 3.337751650291258 3.224560589524272 11.431167342922622 -1.6013177587415326 0.4081685403914067 0.6708159842881415
Ni 3.339987318645836 1.6935969809841147 1.2608985514196085 0.195887721872682 0.931993271397253 1.0150334757488841
Ni 1.421001846507562 0.8623874471175619 6.528283159391337 0.4647603207435222 -0.6584029553357693 -0.4187619996365368
Ni 1.0725871938825304 3.5315003740734214 6.30312559529767 -0.4558861581823439 2.2624635669297617 1.1072332351125964
Ni 5.684807810502874 0.3050022053085152 3.4320701740387105 0.7139783786082284 -0.2613035282743306 0.8603574522278215
Ni 6.347393668774581 4.5309729325080745 10.635219727173734 0.4016132557713922 1.4603575421446657 0.9252179003466324
Ni 2.1435643385385124 8.786609046713817 11.579934971427548 -1.4539292700208186 -2.015863920524509 -0.30805441127662425
Ni 0.01461648689266933 0.4908607678524632 8.894178735609826 -0.7142208336363378 -0.05811593030612571 0.2525833747925134
Ni 0.9714209007675357 7.487216518357765 8.075070331730009 -1.5061586596391803 -0.6295819173390189 -2.117628697868837
Ni 1.8394214395029094 7.162704196536002 -0.017206366077088302 -0.787197997325012 0.8633607578305196 -0.7233526207342769
Ni 6.892372331257912 9.018870147995013 9.981480859394878 -0.3765550272511837 -0.9563817275439465 -1.6548257579620018
Ni 7.39811179401994 7.6665944027578234 4.732249326445448 0.4886006176962295 0.46730519865256287 -1.3531163150667986
Ni 1.639664932035397 9.113918254049125 1.6615404408694754 -1.9726472759277187 -0.955448931317032 -1.1918891206907796
Ni 5.906782997296752 5.784115646796368 1.4445021250182595 -0.28705621175840235 -1.0194660575989412 1.7896760050063887
Ni 5.251078949433378 6.973702817901833 8.879299120672131 0.8157524119239371 -0.5401283532618762 -0.09281168191609822
Ni 8.133646682676222 5.592142577304054 1.2096272238212777 0.6867066873764689 -0.7969525056086146 0.006421073034995393
Ni 0.7374881083751172 2.5429853506605915 8.24586711376663 0.34602960496881696 0.33346076716487083 0.635108503584203
Ni 1.6708814864678432 1.6907172929389171 13.185619584529611 -1.4014155163928188 -1.156207351018454 -1.6024757836053756
Ni 2.3619422153462164 0.05084535457439231 8.368241895321848 1.6828680088111987 1.4593872078115964 0.7319179938057846
Ni 7.58122499262559 6.909687260654276 6.921409339051676 0.8175773809478177 0.1257454565296415 0.13981556146946242
Ni 2.180531068780059 5.401199939316731 8.33154841343475 -1.1780424446156745 -2.3961118232462475 -0.012800751309094083
Ni 1.328456216965571 5.351049205980079 1.5838974269684147 -0.7674897202628074 0.6820535048751737 1.7252413315710868
Ni 4.863719506088469 6.353889067368541 4.132022974788277 0.04785954268544016 0.10269500246808119 -0.7012858707422245
Ni 3.35145086913886 0.11474958841828474 2.9529526452306256 2.758810404230313 -1.2695788593637747 1.282224316041927
Ni 0.1302355018932901 3.1702881301676555 1.394249268559237 0.08826288620315122 -0.6995604034106856 0.7149317436604332
P 9.14596283379808 5.234840452948477 7.968045299486638 -0.6704840548700195 0.18332916848138103 -0.44236806909125104
Ni 6.54508931323211 6.956765100038545 11.049446751983151 -1.7135276426785844 0.8676182475552928 0.6164343242134673
P 7.193515938591488 9.018548138149704 0.09616226011888282 -0.22524817731267013 -0.9614884526428924 -0.14666060941575385
Ni 7.024966785275128 1.8226401264216299 10.80842698290953 0.5778083843111533 2.435816083814405 -0.6466607271981766
P 2.3142479571152115 3.247165680665008 9.550192832952828 3.0337428361419883 0.5646222246381825 -3.053641631948444
P 1.6445870825279874 1.8352813129203567 2.867648557095584 0.35519353085627214 1.333154270122575 -1.5390870349360848
P 4.8432948816145425 7.756922764507825 2.1934427435488466 -0.30819685039175954 -1.019972050701082 0.5616171192632715
Ni 7.226968161378513 7.9012383768943115 2.2068135123542323 0.4699014986248294 -0.007975047785676587 -0.29079510997554436
Ni 2.6594241107245575 7.27545364380085 9.504450874412527 0.41598289422950296 0.7624020213272548 0.19096663042198078
Ni 6.293581223482692 0.5631041366617459 5.712095844822543 -0.49733619779701443 1.4728664732449537 -1.4606730165025554
Ni 4.8171476821754 -0.03687656748486008 7.985927886238876 0.4767768855884241 0.11110328113643446 -0.874260692572475
Ni 1.5429607753482648 0.27576555141065867 4.233822247256337 -1.3285195995640409 2.0791945622623547 1.0898093832091942
Ni 0.7382038902598341 3.7351578008098274 10.703408532016503 -0.2672319779436237 1.1932091250537837 1.4613733850036896
Ni 8.015193061008747 7.085743843506998 9.109641043275284 -0.19111781128786443 -0.44775067355940307 0.9461207119375706
Ni 3.7171068489098986 2.6068813042513184 7.480296986796125 -1.885783069844307 -0.3835623118069523 -0.7328783008365249
Ni 0.2539930857270797 4.625634626747814 12.931377171179449 0.323007947262663 -0.02016207677017173 -0.48061965637328197
Ni 7.240750182757765 2.1696655365711828 13.3281393020074 -1.596406180372528 0.628060595598486 -0.03154306491360374
Ni 5.06004430863311 3.4924911813844823 9.264454176618864 -0.2200859163854403 1.372781911816526 -0.3043702775568178
Ni 6.40455501645769 2.336061824064616 2.0229955722014177 0.45128594040617115 -0.21650385546113682 0.7687464754880438
Ni 2.8906455802194686 6.702745333495711 3.0812395275457276 -0.40315128968247343 1.3399180712089698 -0.27379266188027684
Ni 2.625640677810929 2.7943094347841186 5.088304812685613 1.2643410080036033 -1.602404821158124 -1.174868674873383
Ni 3.7511570899810693 5.482742032430427 10.352658847998914 0.4382129092722969 -0.7884557809915131 0.016608040870326232
Ni 7.895589404179451 3.968053721500349 6.364744479267993 1.5840641138674074 0.5852152182981857 0.1906997499138393
Ni 8.113682072267023 0.6797011415639784 3.5905054581279603 0.44544979334036827 0.10012132820363402 0.0193542361568957
Ni 2.6649166786574106 7.843727418522009 5.28000003368283 -0.07614039190800435 -1.2811058861667677 -0.0003748668409154834
Ni 8.684642329126195 7.036669543081809 12.903099186592486 -1.054120414448017 1.368259341355824 -1.3877488175390036
Ni 2.4311283306813167 3.636217975768117 0.5598637975898014 0.3124599965434877 1.1772883400584693 -0.29637877471090895
Ni 3.487293022453055 8.889302586523709 13.354114456186334 0.14419337882218392 -0.4719362696666711 1.084020801551875
Ni 4.2715710014079225 2.322546610842905 3.4605634452079665 0.6524027718882764 -1.8671986219739003 0.339461464832996
Ni 5.417346432988687 7.6206021965663115 5.926346475441506 -0.989477995877283 0.47001257028139704 1.4733457268742174
Ni 3.526688626956366 6.043867188585713 0.9360789402026085 2.3776857553305764 -0.3336091198172771 0.8290321597519786
Ni 3.4432972773024635 7.0902151802161555 7.237755491196386 0.02598691098206492 1.1433217533050375 0.4940606123695363
P 6.983786326200671 4.596948149671372 13.007807588005887 -0.3457647813432045 -0.2132627228160198 -0.25051800762305243
Ni 4.316836385377163 5.011687630148895 7.551704970063861 1.8597323955038425 -0.3259343768808387 1.229938105043701
P 7.6719949678777315 5.403472408796488 3.257032062325296 -1.9895317103878836 0.14629422721527063 1.49124574708309
Ni 6.690582561624301 5.012920467842366 8.18671298515512 -0.17735521028613327 1.8829767107437636 -0.014849149197690554
P 1.4791476242891886 5.354342906683533 4.000262066256349 0.3587185132903951 -0.9179861584848836 -0.19658680482223562
P 8.877351421122073 2.588232334067243 12.179205413858213 1.8121471895257115 -0.25262271267088104 -0.5428537226128393
P 0.18572607849330636 8.12273514906087 5.709847296074152 -0.2445134533001854 1.6668906595463358 1.5380593650025187
Ni 3.2582336190623655 4.246895846975909 3.0161061361208814 -2.703896782911569 1.0353500758190493 -0.4167516540747274
