# total energy = -340895.56931503647 ev
CRYSTAL
PRIMVEC
9.00806533871279 0.00000000000000 0.00000000000000

0.00000000000000 9.00806533871279 0.00000000000000

0.00000000000000 0.00000000000000 13.18421417241106

PRIMCOORD
 96 1
Ni 6.409796805954693 1.9440035011744083 11.495856646480648 0.5356615757397742 0.3865375923851923 -0.2267921247610223
Ni 4.533335776765927 0.3746102953110375 5.991420826442235 0.047149918212925246 0.43065669419159386 0.31763614142778845
Ni 2.436465411148152 1.5519094523455081 4.7696398440323176 0.5705966970540625 0.8707182266368553 -0.6312047976544226
Ni 3.448476482797538 4.280182123763456 4.592390849831209 -1.289854064673043 -1.450157461683212 0.8564771433368088
Ni 5.22128170708649 4.433670544697488 2.857401482756945 -0.3997096109907761 0.008143712153056943 -1.1841393015420318
Ni 7.175644483105322 6.181739622270973 2.7940117287741533 -0.12885674846511355 -0.3926223651266916 -1.4365498982021068
Ni 5.14430779095988 4.431814883290574 11.570347039064123 -0.28294373225192565 -0.5617652148053616 -0.33829521243903676
Ni 5.63841817684365 7.891182116772381 12.25580764422853 0.07657105168751975 -0.7042436678189677 0.47346016251036527
Ni 1.6951917355415127 6.703009324377297 0.24871718094953363 1.3551731975958274 0.14525318754526598 0.46439779519778085
Ni 2.63707502052669 1.7280801811562878 0.37441572110526394 0.7275694870291017 -1.2160153243150218 -0.2683439800608798
Ni 0.36127385495697706 8.887474114853488 4.542317718459298 0.6398079659424014 0.9762126462269446 -0.15504626237628782
Ni 8.403470777991844 2.201832339954494 1.2592680452491094 0.3926868998160398 0.9836678169534091 0.17911615884129797
Ni 6.847345551187908 0.6248984828108907 4.797827881287248 -0.49303062844312506 0.814400782992049 -0.4674005865798466
Ni 0.6350172423176222 7.323466831102709 2.4439177833905803 0.1200581763368771 1.0984704013183018 0.08321992446260507
Ni 7.4411662094655275 3.93930793299142 3.702588593924746 1.3894406034191298 -0.858314967876496 0.6224956999161989
Ni 7.412889893172792 4.061682497131852 12.68289712509491 1.4490701421563044 -0.578293808588004 -0.7744085588698275
Ni 7.811613877902123 8.80046521422541 6.85588339527273 -0.11596138055968415 0.37491183522080596 0.701748669311256
Ni 6.7686240704353695 0.6443856300030142 0.3466925000085694 -0.15433483813156001 -0.8702155759688239 0.26637785747344445
Ni 2.160170038949746 6.326319066838801 9.023091435471127 -0.27520908261182925 -0.10600838311203035 -0.5715595751879641
Ni 8.968870990935413 4.894216880085325 1.4558663632465845 0.16653935061755187 -0.8421717824577304 -0.31651282645662265
Ni 6.323031123083832 1.9137093783032804 7.1383682089890526 0.19582087319048858 -0.39862100591228766 -0.173781634002262
Ni 3.6181523966841174 4.297576697437006 0.6465971099806717 -0.18943476715848664 0.6175429838966139 -0.5051724060119815
Ni 5.885635514957013 5.4839388687505854 4.887413989335317 0.020231753665842577 1.115562323803582 0.23997879865462543
Ni 5.313227027379563 2.8349191539250205 9.483154037764054 0.5720843373431824 -0.2762352098834984 -0.48777555069177286
P 0.32778006736868437 5.534122799323007 12.369706519933207 -1.389487140386349 -0.4381172642346971 -0.13748562778470516
P 4.038793003758217 6.146905434598463 12.452832944510897 -0.28065082245269085 -0.12778485555717348 0.7132664401428683
P 2.4363392982370025 8.55993186040297 1.408970376429132 -0.25568309676375967 0.247415971658961 0.10786960469048519
P 6.185342848303816 7.755511648570757 5.813064741042537 -0.30719386304854196 -0.3927786881988977 0.7142833114431569
P 4.650530703484149 0.909319129713358 12.5536791339116 0.27058341091435983 -0.49478797745386405 0.28095575528761935
P 4.208342804733648 6.024458805937373 8.036331771859906 -1.2407933025906501 1.3283843595377574 0.6240792423532349
P 4.600986345532556 1.2324114000133135 3.9853904915319585 0.35976135273261267 -0.1850474367240684 -0.3828436884733729
P 0.08189141885493256 5.622311756476841 3.6550197046456594 1.0102656220465958 -0.5226217118366806 -0.008454044304624151
Ni 1.4347685740177802 1.2767671124776117 2.464933599227137 -0.23537729532687204 -0.2519531974076822 0.5259374064734749
Ni 1.916348741372338 6.61881994811992 4.700053442079544 -0.5829773301066025 -0.5145805866997589 0.228764932216677
Ni 5.971572455840319 5.468706230696742 9.212416641721308 0.5009347137815502 -0.8101988290955595 -0.7461302807504246
Ni 8.666127939655938 2.2826076595457536 10.179610787974191 1.2957570604210393 1.3669077124239364 0.6772527410524207
Ni 2.59258418708616 5.17900685765616 6.789474137874416 -0.4153912833920911 0.2186566401380815 0.24251210659944042
Ni 0.47033179648652995 8.997867952434717 9.01206916703666 1.4201506309084768 -0.6445048571974384 0.5873566901212207
Ni 1.4082488304160552 0.9157689043121472 11.436184520957244 0.27829003552999815 0.23420152985121603 -0.7578244292589013
Ni 4.011633687535663 6.932048387154968 1.6154091047223016 0.1988195508074963 0.15634338392115657 -0.2338994252297649
Ni 5.6579656780718235 7.746269373796514 8.20042268539558 -0.29578099322590995 0.7987278523414825 -0.8511721861841277
Ni 5.352565247593127 2.994127696186191 5.11924555228844 0.2553082299228442 -0.9043917076299006 -1.0224577932374135
Ni 0.6844165704213924 7.46827147729759 6.91401243924757 0.6038652292992052 -1.0573155243465466 0.38045204831274476
Ni 5.146289565277944 4.5182652838835615 6.991166516675824 0.21771690193263152 -0.8959566894886698 0.3450762399166122
Ni 8.126301623480472 7.085608872609656 8.89235648612799 -0.2413872489663778 -0.2961216643947803 0.34563519774387574
Ni 4.74272824959952 0.37828648667104564 10.344518733012812 -0.014413861432484854 -1.4217601414874417 0.22223664417985595
Ni 8.03662633558809 7.067142339191335 4.884659323033209 0.1852335845929455 0.4583199644348171 -0.4625373449502744
Ni 7.322584040724662 6.063688929369952 6.848131054463068 -0.9354195234699826 -0.3130570066975383 1.4795320581905875
Ni 2.171231942870574 5.526348839157148 2.50509335497619 0.49763007488834937 -1.2095844810880136 -0.17083257867626708
Ni 2.390163956626119 5.182961398227204 11.323881874385114 0.2667758642428115 -0.19319680530408015 0.7127707314533724
Ni 0.9850589409237194 3.529891375009627 3.647294388031244 -0.11382685071518461 -0.1881895818974759 0.4204414442214888
Ni 3.6569771571880016 2.639660335205255 2.6000987149776544 -0.2769232370894586 0.21656453349574314 0.1024702880517848
Ni 1.2970802992377646 3.5031013894554386 8.126367382355571 -0.6485412320503411 -0.33318925867103905 0.5528139191493446
Ni 3.740968356013574 2.598502485845105 6.947685487330997 -0.6025583375623236 -0.16293697797827422 0.4724348065696444
Ni 4.056881198443089 7.03749679700612 5.92300817536966 0.3355341047541318 -0.4721357872719869 -0.11803497525926122
Ni 0.7457768073411852 7.08596919521294 10.846085995171551 -0.30104764094148795 0.6628975007720133 0.7956129608615846
P 0.35347827543492116 5.4716969083040015 8.017017579517358 -0.07784400486267239 1.0215015999717312 -0.20960275746592932
P 8.545978367590786 1.5775824378295151 8.051810330090492 0.004974570396455949 1.6961032765545498 -1.8823640168604292
P 1.7998384276003574 3.228958944811656 10.40748690954976 0.4380198194248844 -0.9916932583610468 -0.1822377351894152
P 4.019326575115782 6.030079838548609 3.745437257100807 -0.45208658193059564 2.4892569772423645 -0.6437268413808332
P 7.135495537034369 3.905347527631874 10.464943051062967 -1.4181181738594804 0.01965171279265648 -0.24454893452381107
P 6.49752635178934 7.755331487269115 10.204937863759046 -0.9695709725407108 0.39959648245167956 -0.45809859245263035
P 2.1745288946906256 8.518521785220523 5.782530102833716 1.089910684673749 0.5752272538475384 0.25310608006520285
P 6.846859115673475 3.9351822391838147 1.4984916264086097 -0.2278748163022398 -0.0746866901806133 1.272522772483447
Ni 5.2691505649328105 2.524699408627397 0.5436799664175915 -0.4433427742996946 1.5225653831319776 -0.10440838561476211
Ni 1.359037770872501 1.4084920481732721 6.822870638359822 0.3846951398598149 -1.8115517220335575 1.7399773522296806
Ni 7.135441488643876 0.7860635768078953 9.363415233466645 -2.419152507115795 -1.4685092247175227 -0.23209913879623253
Ni 2.6861419510289304 1.4479383651678215 9.164201874175836 -0.4991344273480177 0.6540680754058412 0.34478004883243196
Ni 6.234265649764743 2.0629910328439687 2.6597573284034373 0.7981411266000771 -0.49808516014789705 0.6927541791221294
Ni 4.2894874549932736 6.6866957185136 10.248840470549714 -0.4039868982098913 1.2109983307164045 0.8137945168666177
Ni 8.174557828125323 7.057224459535934 0.4140331913363735 -1.152282562042751 -0.23052768054405456 -0.47791022786191883
Ni 7.424086918069851 3.6875775542719214 8.288203577201193 1.3918353289035514 0.07645946581031993 -0.1275467714044384
Ni 3.206123499828513 8.266160841945275 12.24495742983713 -0.5544743375709031 0.08039171098519057 0.08971195994485194
Ni 0.2154729167640153 4.849482828887578 10.132371593877112 -0.39591903360009234 -0.8341553399111569 -0.016769249038538863
Ni 8.513189010691914 2.3204325248255238 5.742212705945727 -0.3333720641058065 0.45647262681343315 -0.6643576302573073
Ni 3.6974503936019114 2.3504564057441883 11.315549414184165 -0.6431288027855182 1.4489246177173756 0.0012166460159204852
Ni 0.9895719815298551 3.351540694448977 12.635381383399809 -0.22546543552979878 0.10718826235274444 -0.5488729322237258
Ni 3.14512088309248 8.410992512335403 7.955328548222068 -0.0848543747422345 -0.44954967444135474 -0.583138281164499
Ni 5.649912467888419 7.803110264464614 3.6419805304393087 -1.32263485864849 0.08742033569719783 0.33510678740872607
Ni 3.1234114462446008 8.545041528822248 3.717684309389342 0.21386538939702526 -0.8946204871757496 -0.734806113986857
Ni 3.476203307120265 4.203019038270122 9.232113676829846 -0.057468269419797796 0.046356989997984675 -0.13846264698599378
Ni 7.145818779618464 6.003605135272294 11.160951199632018 1.252769758226236 0.09873293249653964 1.762073669908088
Ni 0.46791493262500045 9.0112179048864 0.3792917867342088 0.6974860373801601 0.06277785455816931 0.3347522322827848
Ni 4.630821057084496 0.42026406995366733 1.861360809691628 -0.422137343866673 -0.6184145878682898 -0.8971491671348742
Ni 5.863394602269288 5.633130442640452 0.4669825978890023 0.10816399600245244 1.0444337832878723 0.2318163174484911
Ni 8.015772664923011 8.63497805060201 11.424806433952034 0.2861560685416362 -0.1623073148140753 0.40683979427765415
Ni 0.16917596627452294 5.01185320199257 5.89098360319626 0.6942688159944431 -1.345960677858624 -0.905634578898066
Ni 7.783310537414141 8.865584516703967 2.4078332762846735 0.4373765294139306 -0.19553676629116645 0.5945064137921245
P 8.429846392552253 1.628459989413259 3.4732891980662033 0.0401086950954277 0.878223533874965 0.8799981092768844
P 1.8366363734607674 3.3941578503524283 1.5553946727257757 -0.5522310500626813 0.20895252547644017 0.19579130550413376
P 4.716487756015341 1.0114525716142946 8.335178834991368 0.055543027372626924 0.6045859095153137 -1.7968401268549956
P 8.474544411489672 1.5243898135196692 12.322493449224865 -0.09379332910307718 0.6466044200389445 0.3810696272920856
P 6.20783598681384 7.7069761939083605 1.475208480590886 -0.22271538358848741 -0.2850767194345284 -1.0096845527321452
P 1.7834527572160035 3.340073427599454 5.919290546910275 0.24896788952711318 -0.20417772979561613 -0.818523546911171
P 7.070268137774827 3.9442984010469075 6.080942076421714 -0.03338320344613606 0.3402261109131624 -0.4366311666074738
P 2.3779490203747806 8.291986964535678 10.062785191924336 0.37438810150685203 0.8625115224563468 0.4755869790453809
