# total energy = -381173.45976441517 ev
CRYSTAL
PRIMVEC
9.22073441256138 0.00000000000000 0.00000000000000
0.00000000000000 9.22073441256138 0.00000000000000
0.00000000000000 0.00000000000000 13.49547685889749
PRIMCOORD
 96 1
Ni 3.2520977417989694 8.01110324372779 6.998700709837557 0.3778398075008783 0.22363172475516968 0.8251263969396693
Ni 8.953655947387146 8.528036062547317 1.6971508768785657 -1.1928417144120358 -1.1684830830620134 -0.3196408305626431
Ni 2.937652253101037 2.9482468770677817 2.112514538708638 0.3561659220718705 0.02850273542538317 -0.3872371895553783
Ni 5.57584271110376 5.953643866708134 10.528834025924114 0.26813237827070596 -0.3055038769406287 -0.8212005795227019
Ni 0.7127129866492048 3.2510926817359795 2.4449220182570652 -0.3409701881680386 1.6036494921985025 -0.9680889886785455
Ni 4.9379891797516935 7.369782716195138 12.4858261237298 1.689613297954832 -0.5430979774131615 0.2899001089651007
Ni 7.837218632096052 2.236562924391326 8.609763120917068 2.335787058214261 -0.4110036958473567 -0.2518431541923792
Ni 6.3198822212208645 3.851131980809873 4.38661046297519 0.717324669372642 1.095467867046552 -1.321495345727408
Ni 6.305350343612867 6.585835867063175 3.3705362325979604 -0.6717819477458365 -0.05545612408577545 0.04055041061853661
Ni 6.050655214622947 7.846586898371258 8.327249035871736 -1.5714369120217 -0.23075393762224772 -0.015374939794173521
Ni 4.752938258612792 3.050965859652233 0.43396464958300024 -0.32061116489571234 0.035814181485131866 -0.05074277777050616
Ni 4.9175652527836 2.0572380793911096 11.89226807895201 -1.38000002683152 0.5475436718893408 -1.3402834249681885
Ni 1.4939526281252609 9.1712652821262 13.516125181255417 -0.23822299230578328 -2.0907295594851476 -1.1554589028882036
Ni 0.7343614271619314 4.296760859564268 12.431911566901293 0.7801493180083467 0.41486934945035003 0.03652791972270483
Ni 8.76027870297412 1.334221843986082 6.148444792531487 2.43129171358149 -0.9560279437489534 -0.4843477559571465
Ni 4.105836330534316 5.198216749455319 2.141961876480784 -0.05394842919199741 0.025069284263801988 -0.3599932662377606
Ni 3.255481751368852 3.6470494636158284 11.272097150194398 -0.7639809357786003 1.2339343706872878 2.1971529186474097
Ni 2.441198685656742 7.6376819370217675 4.810328110282956 -0.05503394894669232 0.9109320798515796 -1.4181739667980804
Ni 0.6928293947241498 3.5494572094260763 6.721962492897332 0.7031059546700988 0.008943325236216855 0.19493744214427072
Ni -0.04302947972429094 2.0098896076163197 12.96463212737083 0.09439779545629548 0.5433538021777093 0.5010514418650726
Ni 2.8827427790175175 6.427312999146488 9.729401875234494 0.587869110981265 -0.515358602516364 -0.960671870278868
Ni 1.0882864127928606 1.1779027316203545 1.739701800481121 1.989342734305529 0.45811401907159816 0.7659385737256035
Ni 7.387440422806378 6.241662730263602 12.57678590357727 -0.26358178278554606 1.264242534752526 -0.35017422326480985
Ni 6.039986824780018 1.2992291564718996 9.490572864138025 -0.07436787338861385 -1.058716004238499 2.369131952223294
P 1.7075048396742643 8.448184501579512 2.7146829053838566 1.9808989744135497 -0.9417153837810233 -1.5714654512667903
Ni 8.649408591071476 3.3844337236707864 4.244570580091534 0.02780133848298438 0.08505543500944707 1.2797190331215704
P 8.945698453493934 4.518076929581503 0.7902003512853534 0.24102780874443003 0.4043129140907424 1.3618297836803965
Ni 7.050634652890556 1.8761612948315531 0.589700089453432 -0.31055018111528454 -0.4386086020488188 1.0203289198198686
P 1.2915943882869871 8.02479603449421 11.51983339083993 0.4289944759978225 0.07746425292575046 0.06927914601179683
P 0.8095030369354692 2.46553220406252 10.982227685220195 0.8614573701602195 1.6411837416985349 0.23790648950662902
P 0.528376672435824 0.7540274097522472 8.37510372597183 0.6632934506588513 0.006453468934827595 -1.4103917517495
Ni 0.3540485434735352 6.88386844831045 13.188940325740726 0.3809472427816084 -0.36644596384163985 0.8852781267289012
Ni 2.108459259665493 8.593152889747623 9.200244206584586 -0.964738327038758 0.6298806795263603 0.8691755647400837
Ni 5.356868707655326 2.3379264590009203 7.706416980448835 0.07551921338423769 0.1007057399521943 -1.2326835289993223
Ni 3.8823349464351677 3.9103659793846055 4.07232725920486 0.0004211466978186295 0.31020333929882704 1.1950513204688453
Ni 2.2085964365835484 2.0630471421404994 13.388579370968214 2.287006032155816 1.8887411240313665 -0.7466545286850108
Ni 9.21423390500264 6.340877833729374 10.772143391925232 -0.5554747538109595 0.6963922900953491 -0.27804860894315336
Ni 6.783795816534053 0.37569329569245274 6.794365544517587 -1.0625662312225248 1.0871662891593923 -0.21928938862607397
Ni 2.420055541395867 6.152747187259845 11.967788660914437 0.5372350908744813 -0.6408171239332061 0.3228796492149149
Ni 2.381134820974954 1.2484874543927043 6.352577101691955 0.1389233886724962 -1.639694815857834 0.6798582969960678
Ni 3.272032969837352 3.269395839763819 7.0685800464189095 -0.05727209424859169 1.111827539351498 -1.093961971924987
Ni 5.143842077974124 8.776258235902203 4.76054259837378 -0.419637974483587 -0.050347599214616526 -0.05391011975489425
Ni 0.7343586609415744 8.536076543051236 6.224626501159201 0.6411164003411798 -0.136929498170919 1.0534354725658504
Ni 4.10023012394443 3.8673328113665053 9.265940095912924 0.11184581572941382 0.16394099376275637 -0.6826965377758114
Ni 5.115045724059291 2.075928508268909 5.26833766928117 -0.04779372244451124 -1.048328747466904 -0.228764932216677
Ni 8.669629661880066 4.538353324797232 8.477764617928786 2.320538873805939 -0.050445558245061514 0.7586870343695128
Ni 5.363609064591523 2.490612601964648 2.5410361887028055 -0.3180845418191167 -0.7618939713425846 1.24474817347334
Ni 7.060076685041945 3.969111279029627 2.0649973274920805 0.2680850699725383 -0.1468022771999407 0.07509652402452228
Ni 7.5145205860001765 8.544227672369427 4.104109286958189 -0.7265973529238196 1.8063737773770439 -0.07893800925779954
Ni 1.6350390870592548 5.673748470267288 1.9577076268046567 -0.26934439630093615 -0.4126687422546054 -0.755672415912905
Ni 0.21590903129304143 7.469136130678752 3.880084165138143 0.6882791740699115 -1.1554797288238101 0.9485442337773987
Ni 9.339036546769295 0.45695378489534805 10.667850429957731 0.04395069454933721 -0.06861837249934634 0.2527615522415905
Ni 1.3035997846357263 4.549427426959164 9.996140205584696 0.7226345116213296 -0.84192341389235 -0.6780456692673613
Ni 2.793559834712597 1.4161388494870037 10.936315803884064 -1.1384094036050847 -0.16049005909967845 -0.11187332653323957
Ni 4.685719103941279 5.891800400263437 8.006785173750744 -0.3019804371684025 -0.13326310506292535 0.007857548371205822
Ni 6.4752147149926484 4.064398349588668 8.847202567320943 -1.4263601021532983 0.744241548368144 0.6636397782546765
P 6.832730254646772 8.051112010822399 0.7788818996585657 1.1337150834532088 0.231916076251149 -0.9687142809673703
Ni 7.089112778054373 4.085818115885229 13.261289897100749 0.30634437056405306 -1.008536555170631 -1.2337654492095913
P 4.629601713635268 0.4430977871278745 6.772799168542113 -0.9055415049636276 0.029378196051801014 -0.2928764179846053
Ni 3.766292002465211 0.9209153280280554 8.855610955132322 0.9026700969531034 -0.42436031965992077 -1.0623343177173767
P 4.103236083398875 6.365543298577975 4.138428860852204 0.47933333346169055 -1.0132951529015388 -0.22810261604232973
P 7.570886936138305 6.598191651323782 9.226844181536078 0.5813554782324634 -0.12999703271714386 0.5436037134049864
P 5.980937240895743 3.736997728886144 11.00113480135928 -0.6444773463936128 0.6790322015503467 0.2010582103300279
Ni 5.654495576583595 0.35803558908121175 13.005563889991173 1.3952608096453325 -1.5070197220878947 0.23946663490489725
Ni 7.567954742560041 3.0773648225911274 6.447571874966623 -1.978316301288038 2.109589115393812 0.2802319897477174
Ni 5.987788246646215 0.15706230356826859 2.218507804122151 0.2664483057000637 -0.18841326787250778 0.5939605685909836
Ni 2.0062935211524118 2.4003969353931693 8.759994704350817 -1.70807613264571 0.11312982464816 0.873875027098282
Ni 1.0810204739888616 0.5772290460112891 4.125391664310359 -0.5620858313695739 1.36781068385418 1.4334008110501637
Ni 8.574868173188827 5.600047139226217 2.7867623092223583 -0.10016040897168556 -0.06827487311699854 0.09395659415381884
Ni 3.496023052866211 1.077156986223791 3.6219699877871525 -0.20184779611085885 -0.15289990545724635 -0.3803103805285579
Ni 5.985400076404799 6.1809534141652165 1.115302242871333 0.41353906067470064 0.07859579542703239 -0.2057445600621037
Ni 5.605339840842328 6.597361785216727 5.742096242844396 -0.4550729182524292 -0.10016092319231783 0.6221249468403415
Ni 7.800178941517798 7.682227305501613 6.290161027633391 0.664022615515392 -0.38920768301818776 0.18251438588956953
Ni 8.40588899232324 -0.1567432661537783 12.862282896240744 -1.5680062890735962 -0.8792216361221762 0.0017056698371970625
Ni 7.910873859464507 9.086093357338715 8.914679902559095 0.45306154424935524 -0.9738839980937679 -0.7538952694078243
Ni 3.9459856768463415 0.3481297539833234 1.0005806301584992 -1.5393626571949746 1.101028648963781 0.1502616965034509
Ni 1.3212390497779216 4.991082169134214 4.245501874278341 1.1690782934438513 -0.12905086675379066 -1.0669980417416334
Ni 3.11385126909801 5.807670418477033 6.0407641327002946 0.3268779717410306 -1.100344478412563 -0.6081844254998493
Ni 0.34998496576931903 5.935386812352908 5.943920602153797 -0.24978524322208598 0.6906160497332042 1.5624218530072835
Ni 8.320486549172683 1.422279858679216 2.6431429145149403 -1.6636053039268444 0.519063562171777 0.1994805814302629
Ni 8.205282692044305 3.8510028905265536 10.713235807352609 0.24489474789900403 0.38358030952908134 0.14804823379189988
Ni 1.8984109272351692 2.8486906064246647 4.847845434909493 -0.0926155067448921 -0.2617925520956072 -1.2864129002019782
Ni 7.16991407467803 1.9550262372054144 11.704154951878076 0.8394793232272316 -1.157195683073652 -0.8008536404352337
Ni 4.04843725812963 7.804733984372081 2.5697550884476468 -0.29889537048517556 0.315064009825238 0.6114996059160114
Ni 0.6717766136615988 7.001617228167132 8.349934809018281 -0.7920157304286295 -1.1040219272641503 -0.5913372720355234
Ni 5.09570062303037 5.154611895896802 12.805710001649304 -1.60688728240951 -1.2764028242641436 -1.3575656090874038
Ni 2.916887158955599 7.1756124886131465 0.6082577397541024 0.03145024808948132 0.014237997976252897 -0.19136849384608975
Ni 3.3299484033753175 8.771979815083604 12.20669973654816 -0.375505760051063 0.6670362055307351 -1.2729480329463239
P 7.276736284125146 1.637464140238762 4.4462870568070185 -1.0958445336596805 0.004839073259856182 1.1213940999940106
Ni 7.304435370631761 5.612310716141597 7.20331895170738 -1.317997874097111 0.5842032320939036 -0.8507662089949606
P 4.818829627513016 8.865348972861895 10.277844710138925 -0.7499090310665666 -0.43280202266937073 1.0541641232017587
Ni 5.403331988915923 4.198864321135262 6.383495146620494 -0.5865804740768285 1.2319345666484396 0.5531995846235376
P 3.064114627081805 4.572562249876972 0.10954509235171081 -0.4137498911339261 0.08093112842842837 0.2652979941457044
P 2.373407845444813 5.156041109747843 7.861021036193313 -0.8815086323841399 -0.27114956783047495 1.8666275799617789
P 7.61195608770304 5.828555382171269 4.954662111915895 0.07828057817945873 -0.4259706015698342 -0.5345210343774278
Ni 6.7862300904480835 8.190796918108921 10.860782312893305 0.27662807444654297 -0.026392373950599707 0.28913520577461815
