# total energy = -340853.91539394436 ev
CRYSTAL
PRIMVEC
9.36359477537394 0.00000000000000 0.00000000000000
0.00000000000000 9.36359477537394 0.00000000000000
0.00000000000000 0.00000000000000 13.70456744041975
PRIMCOORD
 96 1
Ni 5.981595516440436 6.835461735941266 12.000925383993563 0.12502734741669436 0.4667603818926865 -0.06916061815606153
Ni 0.3137019656276199 0.27520541788955916 11.340118700629263 0.58275235857999 -0.4657393968273398 -0.41976961496544485
Ni 6.706197308260501 7.589980213486795 0.39903146964877484 -2.5239342169095758 -1.3444020751222525 -0.7575367228151534
Ni 1.6847260863170068 4.377724072138887 1.257313560507392 0.021340413348989052 -0.4053243860743922 -0.2773700948188901
Ni 3.859833001469171 8.247042395248087 11.725258340875126 1.1367518133970036 -0.3264205724886378 -0.35440137397227994
Ni 7.486924487948621 1.3539570962537673 11.087844726665107 -0.3002552269471797 -1.7512179581405065 0.23887656672938218
Ni 1.6342094917977945 6.429615441919722 6.124297639171158 1.9915417988393767 -2.629240174637943 -0.04511771827424488
Ni 3.8406563591011733 0.8274412183159053 6.530952947792601 -0.4557349773164603 0.22971546905540438 0.3235442793821073
Ni 8.23904588519815 0.35621081378300834 6.890711627685587 0.5686076916484918 0.6552996338200971 -0.05913717248178848
Ni 7.848443523683982 4.9026003846086645 5.137225854893522 0.21472748028700436 0.0324501501089054 0.41349535192095876
Ni 8.924339305601784 1.7511607921768422 9.484602515941257 0.706777489984415 0.4592072521357769 -1.217567242183174
Ni 6.358433393442419 4.043874459351492 0.6024883415692024 2.6395122459879126 0.27570350574974456 -1.4623475759915008
Ni 8.970192829857684 3.513248899609277 13.44359130567015 -1.1985400503483938 -0.025648039585407442 0.2497806152363956
Ni 4.576457010429112 6.477379139536498 4.477625202553146 -0.35130396599387886 1.7926805961606673 -1.87589537841695
Ni 0.150187380498778 2.6175648652571395 5.249959792126796 0.5544535116352968 -1.3548291839928472 0.03817136886339877
Ni 2.8936130066882613 7.6012820725386385 0.33624201128594206 -1.614954889908993 -1.9080120564458367 0.8910484535537752
Ni 5.168077027390631 5.10005987399164 2.086944923671869 0.2286258355356514 -0.74871603919973 3.013810101773803
Ni 3.5214233179624324 3.7256807772473444 10.679585434236223 -0.30336471911043883 -4.904687555421882 -2.9543078326431123
Ni 7.846729985816138 2.788918652041493 2.2188246034099492 -1.226287138554675 -1.0741863319599565 -0.1947078426319679
Ni 4.32342458527755 4.368491567561326 4.038421101678092 0.76765889885082 -1.6789162232523018 1.5799755456203306
Ni 8.156590068453724 6.007701219039057 9.758625311794157 -1.420489245194818 0.10048668196285275 -2.4967211468298935
Ni 9.082293788075296 0.239465512491898 4.290694139282757 -1.0979595231201542 -0.4095474230168043 -0.02555290876843986
Ni 6.722986233927404 6.926841058631347 6.009042085829632 0.5349108136166787 -1.6820748234859417 0.29851561854825365
Ni 1.294310996700962 1.348563665587768 7.885662877076831 -0.5002736831587836 0.12129719095030078 0.5746335861275974
P 7.651808030652757 5.423197534206287 7.574652008625266 0.09617622751295694 0.7621875913236036 -0.32015607963616477
P 8.01556496557071 5.628953168676199 0.22995303642663983 -0.8079581126904988 0.2933348456782625 1.9285939943622463
P 5.001592309957528 7.090142153796327 1.787500904007994 -2.0116604239661227 1.9061374651309428 -1.5892117195066178
P 2.8352309924477996 5.943569957526159 7.94984189292375 0.8858113735245517 0.549509280256144 -0.13742700663262783
P 3.607268756062921 0.004654643027896289 13.450073722423747 1.1209577837875404 2.8564873846585126 1.5137521557157219
P 6.5029042992509325 4.206969555428533 3.5755083785004165 0.11064613899435785 -1.6480128488052264 0.7594977031962663
P 0.6637833701849978 4.849995708425358 4.7113836039496855 0.49138949329527626 -1.0691210016219073 0.41508943588095615
P 3.1009698158871415 0.025604750271137407 9.143153409527951 0.17793242294584194 -0.021176634077615143 -2.209634596054188
Ni 2.01818242811834 5.510381966378369 9.880403545347377 -0.3185342277620256 -2.066821385408982 1.3701820122998338
Ni 2.509724342721872 7.569221123579641 10.051821004577093 0.5397812543351026 0.3853888234927298 0.4517266274880156
Ni 4.614033116787889 7.485136041321527 8.312052898322683 -0.9816641562598191 1.2005323981880742 1.312358416423146
Ni 9.399925654485068 7.627060049315541 6.729532323126364 -2.5680085815209712 2.374558265445188 -0.22838235206627763
Ni 1.604798440197267 3.3232053773920507 9.086265825034525 -3.826714502725984 1.785071930575474 1.856156762337442
Ni 8.222856229605247 8.993114910188181 13.07315719122455 0.5132952922294322 1.1658736704636243 0.5527270158624932
Ni 6.560293772431332 9.084054143917669 5.164182708269123 0.5124190602720659 -0.37191367182443047 0.8069978056597585
Ni 5.109891648643201 9.149786580159537 2.4556804820014757 0.2287962996752447 0.2745763341238368 -0.27587319855838943
Ni 8.141018410124632 5.520429103712774 11.913490007477993 -1.8634754074860422 -1.4264128097681048 -0.7098391596288743
Ni 6.955849475650907 -0.06648058747487602 8.934268461640372 -0.55178882031894 -0.6145383927423351 0.16435339870982663
Ni 0.8302465513498174 8.678657302451628 9.114167465136166 -1.6345945185167914 0.5909377226042597 -0.5281824937539097
Ni 3.9776551161744997 1.6672910726015715 12.056606937463062 -0.147628629755978 1.228946173444077 3.870385718361689
Ni 7.262366754906961 2.337190742979331 4.866765906902451 -0.998393810309674 -0.41028841494788687 -0.717864343926196
Ni 5.548154708230178 4.76058274066559 11.229426963445041 0.6214497751501877 0.7599347907336848 -0.520179163833459
Ni 0.6370306431783543 3.3881325444719805 3.04248292938373 -1.2803309556739564 0.5124851376233109 -1.5498555863064984
Ni 3.7124500176448145 2.766904840416902 2.3075474742251285 0.04841695785080694 0.22516564490119284 1.9412469072395666
Ni 4.649614777431634 1.6036935359983298 10.044186865650028 2.557701028947376 -1.2150511606295398 -1.8242642845042194
Ni 0.30864375165926433 4.095627048398328 6.95594498431895 0.6080309306411206 2.6569664369086174 -0.19568897559831458
Ni 8.036530054565802 5.207797396982938 2.466163962858512 -1.6491397633208178 -0.6687827559081967 1.109439755845612
Ni 5.446522249117753 1.9178515086978838 0.8833268981543608 -0.765649581730275 -1.2630297453913473 0.10851777979744537
Ni 6.447125364394408 2.9298126645958193 12.189596203197532 -0.5747487715492231 0.20427388905384822 0.8211357877230375
Ni 1.9293031852682263 3.6642649582572577 12.790760532446992 1.0975260351271614 0.8777568786511915 -2.497034307194938
Ni 0.2721968948461814 6.266604618196837 1.5779576953985046 3.1361794427423604 -1.6466041413831578 -2.350735194883661
Ni 2.866318127536546 9.30843396865611 4.314143390006476 0.6996935865544401 -0.3000415682744768 0.27841242004047534
P 1.291183556002275 1.6430768161740121 12.597745941566012 -0.30176677849569966 -0.24586482512175722 -0.10679051269369351
P 4.1467241858017285 2.909072301878478 5.931391665991092 1.7771549897212424 -0.696907796279187 -1.120544607509522
P 5.773021439903743 8.595958032239638 6.8810221796766005 -1.2436837367645677 0.4168632399519272 4.290277460727295
P 4.184309655755412 3.788098500892399 0.5646650363049008 -1.2041933919794294 -1.9476936913061749 -0.6215433633052586
P 3.5158894333728394 5.387100875842697 11.544906139385867 -0.26081013357767985 4.901838516008861 3.174415089184791
P 6.91954681819938 0.4427931668026193 3.4686538425087763 0.86426527192266 3.2150534315314436 -5.176896931975439
P -0.06040548709970178 3.6490303893447913 11.261961710306293 0.009098619867158524 -0.26711679252199805 -1.2377450026826298
P 2.32825787343877 7.073175319826205 4.301233801709231 1.757857060723579 0.671698644003411 -1.0773549594959253
Ni 8.243652773892027 7.961668113290343 1.8090437268088007 -0.8131535408485092 2.6292540585950137 0.7694573855121394
Ni 2.529228710911588 2.0722759158917397 0.6147209419547258 1.770959659543808 -1.2428573842085306 -1.208341352709532
Ni 3.8066103280220522 7.934794595909408 6.118280593084403 -1.1598050956720412 -0.4321811012559202 -0.44509549532474313
Ni 4.50255015583409 5.734396610915467 13.781039347980016 -0.6591804569317422 1.9214776950324393 -3.101482148470491
Ni 0.40927898791417355 1.5621753561840224 0.9893602468727225 -1.8040078482480288 -1.1212521750995077 0.6173794617355561
Ni 6.21163095250225 3.624666315398732 6.721090105958889 0.03395707367173507 1.1455470430911303 0.1566783986630721
Ni 6.044949599576115 1.3864019526039195 7.3807319581168525 -0.1398916661230365 0.879807076312001 -0.014092987757956373
Ni 1.3780589895424518 9.565193104580361 6.101465449351761 -0.2652774253204141 -1.0548140980809317 -1.1499770538380258
Ni 1.057412045572867 7.903033281987413 2.7563586234739943 1.675652722009682 1.6127511973894548 2.05691081116349
Ni 0.5140988147326854 6.014723915218744 8.193947066691695 0.12532559538340352 0.2826118028338036 0.7780911499277374
Ni 6.498681317948214 7.128495438532322 3.217298437204924 0.5165294828960136 0.08223390640025192 1.6890286290959557
Ni 4.6749901196275685 1.5863427946370507 4.139889697879658 0.6495354776428104 0.11371217951419126 0.6055616431650216
Ni 7.329653547903265 3.74675822938131 10.002114361017272 0.28522944296230873 -0.3587218557245048 0.05749989398868162
Ni 2.864904224705702 5.801243314951177 2.496108739368695 0.4685892075713091 1.2628243142487605 0.7440505154032605
Ni 2.4421566418783804 1.3364939917536132 10.593109826198543 -2.9777444663994976 0.6192183147165078 -0.7237174602728632
Ni 5.79808778346777 0.42467741973749973 12.657113942350103 0.3909215803855009 -1.458115025967392 0.07366313401210539
Ni 4.605802516865296 5.679497853980129 6.541326874589234 -0.4949779819774831 -0.9946950213018483 0.6681314954774429
Ni 2.7148713435228773 3.954910944147221 6.931523792443962 -1.9060567324916786 2.7157662806556453 -1.0982878529938505
Ni 5.391717128131479 5.382634441072417 8.695493046093063 1.5157308767086477 -1.4266341817502914 0.928716400418194
Ni 2.67432697757882 0.020556836257178666 2.0055949474858696 0.208494354893099 1.4548970332507267 -1.2298925965177465
Ni 3.2429687326404046 2.4303116943219756 8.289399553165996 4.669441386356236 -2.667922678809805 0.5158746229208341
Ni 2.453093320728879 3.1159422041422333 4.287830751960426 0.893233634130552 0.022793086635115582 2.057002085325715
Ni 0.7646967052086227 5.73888177287556 12.929916661786718 1.6048321996526942 0.9182988046292959 0.3500140435378617
Ni 7.853537319312982 8.183173314392565 10.816481191765579 1.197178394114177 -0.4297524372097696 0.5789129302292417
P 5.814127621542175 8.522968809945429 10.702349269812803 -0.9216944605744062 0.9917012287808469 -0.8134857273769474
P 7.415377259269974 1.6752126738922581 0.01105466014631736 0.8978235674940794 -0.047202111607099355 0.407295393757834
P 5.4834335402381855 3.2158704889817207 8.90828448577553 -0.35553240225292965 -0.16043400905076238 -0.35242470986188335
P 0.3070734767934864 6.915932470565568 10.94498810461843 1.4258525663892605 0.9711578574118563 -0.24827780543862404
P 8.642523189708413 7.251355167297214 3.76298627571333 -0.32888548908936266 -0.6005477348901981 1.6800693630201387
P 8.561144186378206 2.5208202026857767 7.378635449217344 -1.6665661863273815 -3.080034005899044 0.5264133176686289
P 1.4195490785720402 1.3854281387336695 3.6033828641768277 -0.2343506538345706 -0.6042838048938625 -0.8771884077422313
P 0.5832957810898641 8.279449797218616 0.6098518726034764 1.454412123194508 0.6945572937691393 -1.1408087570751964
