# total energy = -340891.20189010294 ev
CRYSTAL
PRIMVEC
9.08609792278692 0.00000000000000 0.00000000000000

0.00000000000000 9.08609792278692 0.00000000000000

0.00000000000000 0.00000000000000 13.29842274685067

PRIMCOORD
 96 1
Ni 6.399411568239182 2.0197487427430723 11.695218394508109 -0.4669658130352732 1.1273562311147165 -0.5172288229558835
Ni 4.769311055662981 0.37176678914065203 6.265977674849675 -0.09723809311856801 -0.1202612934866187 -1.0873575792345918
Ni 2.8259945699892994 1.5376040340970765 4.79682103482715 -0.5538559872606139 -1.1649295613828001 0.7678234494531422
Ni 3.2584474082224926 4.498490816218111 4.635484642836314 0.5788324547002934 0.5372538599275586 -0.2842804487854782
Ni 4.928608527244121 4.63125688139856 2.5238681796014215 0.32282411338663114 -0.6611092985233389 0.275558495531448
Ni 6.908532902091909 5.996533979264294 2.614855457189054 1.135038944470955 1.4714497954030854 -0.1383322920557166
Ni 5.26759267450337 4.467834321287997 11.406735689000808 0.21244279801788574 1.42593561302137 0.775059305079949
Ni 5.929315025650486 8.17155505213799 12.502006661809858 -0.7349868625390955 -0.8635173380130419 -0.5363367474299279
Ni 1.6942574511362294 6.581242563064744 0.5533097546570018 -0.03958676115368666 -1.0098421613559319 -1.1657379162167083
Ni 2.789759210836573 1.5259465702573205 0.40700358611411874 -0.7795821326509671 -0.6346477618977006 0.2836158186182857
Ni 0.3703893366713558 0.04182603530284396 5.073201966298466 0.6417504343807529 1.1877257333417093 -0.741972035607677
Ni 8.699739019767652 2.2554966435897668 1.6768648421868444 -0.04528715397257362 0.8252986608514753 -0.8937152017526607
Ni 7.070601633588189 0.9417195496552385 5.118349879060245 -1.1309753159245426 -0.6789273005413663 -1.7724922941382504
Ni 0.9954547337147218 7.335997472477848 2.7019738742131887 -0.27088782952865603 0.2910221383846859 0.17290874447900542
Ni 7.600312065695698 4.040687764334943 3.7078267385734422 -0.12900227290404234 -1.1700643115062044 0.625951005454651
Ni 7.942430916793385 3.9893058796788083 12.924058643568095 -0.3170463303625895 -0.9996847612069558 -1.1318849722230055
Ni 7.625580504462932 8.796351500678115 7.205471130474719 0.4234519489130385 0.8026667823845725 0.45508783065076464
Ni 7.100413121396637 0.8721463880282738 0.339225837468242 -0.0430675206134355 -0.29142965823574973 1.3377858553573154
Ni 2.0286622049619347 6.166543960484617 8.96694026634629 1.2702961971457734 1.3747138387319162 1.2842259198529884
Ni 9.165237996726638 4.6890172069085585 1.6966398260534423 0.3794565171686949 1.0852279344860989 -0.2471166952509873
Ni 6.2342535633948755 2.169614844514651 6.990462248501167 0.816744343523561 -0.5396465285294513 0.7168775545328945
Ni 3.637901036340879 4.760061407815069 0.2539982374550609 -1.0451518924008194 -0.43789357825966524 -0.22564387008919204
Ni 5.903601368077213 5.562045855060637 4.855826155774442 -0.2300671959678683 0.7862073512769686 0.22519752658039283
Ni 5.442145704764907 3.1094263135725795 9.408807210802687 -0.33136428964715836 -1.2767180415117172 -0.11806120051150634
P 0.2985173922295367 5.573185411309694 12.505890060130287 0.9035717828317663 0.36554170685981563 -0.15602122469504742
P 4.296579544630382 6.34362292601307 12.334487180073928 0.4148356679989371 0.23968363601170975 -0.008706012414430168
P 2.388435344633781 8.466026404891421 1.421787176279591 0.8640307873143507 1.1665038478484555 -0.06506870747487503
P 6.282337194447088 7.597004725993695 5.9192876078067185 -1.2227662698856103 0.9180998012446124 0.35404938994949997
P 4.7307950858915655 1.0241122870667019 12.607916038278264 -0.09599933561546048 0.46651561287173204 0.4477702139434288
P 4.164840208533247 5.939982104799258 7.965834888234105 -0.17981447045990323 1.2363110984495804 0.9639556832364626
P 4.791780976220828 1.0087840396016445 3.920893921386778 0.9464724388500343 0.5581055065655871 -0.11743025179572679
P 0.008151138589746773 5.786481563794708 3.7803165376848664 -0.45248870246502065 -0.9224781328179661 -0.3958239027831248
Ni 1.4862130633428599 0.9977535165295763 2.7473080519856588 -0.1665519490230422 -0.18362690222745795 -0.40274197005919676
Ni 1.708195525594675 6.599587395093168 4.946973348688326 0.5543444968612583 -0.1518336689762611 -0.5086480232654079
Ni 6.133506907856906 5.66261987473504 9.29706092492613 -0.8988304114920391 0.2906958653935187 -0.7507261276512233
Ni 8.53878787833551 2.3768505695786843 10.631065490411762 1.3655532552785707 0.6732335925906986 -1.191224233413271
Ni 2.476634098719916 4.973121321749939 6.911549486655275 -0.606218302912414 0.43205434587006886 -0.08444505511895779
Ni 0.319629849733868 0.10492716926569469 9.50277381995155 -0.39886937447766785 0.21442948943061135 -1.4123249642164708
Ni 1.6149085565823798 0.8913080602743076 11.385006285436678 -0.42591532285186645 0.8936128718468416 1.0352868266812816
Ni 4.066183355554237 6.951691867983444 1.235705704771068 0.49380941559067854 0.5499288842920659 0.5529489020653122
Ni 5.502286587972503 7.940413803019086 8.127064972877378 0.5436327668707089 -0.5470243090507612 0.2671157640807335
Ni 5.169053940799431 3.1347129245359784 4.831489950670465 0.4513229642916937 -1.4212749743209072 -0.5569749925055698
Ni 0.4403104958548775 7.411675583406397 6.839086037228289 0.8604649243399632 -0.11770407428240375 1.0066542505462532
Ni 4.981271551729877 4.21531348338114 7.0212750243182995 0.3950949950369002 1.0173649520955381 0.2528343144610549
Ni 8.183012621819932 7.0555823134579345 9.043459749957272 0.6655632205296343 0.5885116296612702 0.4188656150939367
Ni 4.489350201547189 0.47782517761760906 10.519850741273025 0.2869142868638994 -0.5275631150023559 -0.022022012797045944
Ni 8.0351908921169 7.465910502860413 4.7244111933788515 0.0008613195590307747 -1.436752758241532 -0.4090972228532632
Ni 7.398164555557825 6.09345538750956 6.942721163346663 -0.6267105093284949 -0.7979503507455097 0.4241055233366373
Ni 2.6379123396830257 5.275788334973721 2.4644505498011875 -1.472207499504716 -0.2521290608639142 -0.01234412338764971
Ni 2.6999794756840956 5.0223861455528676 11.074248101870493 0.13179834759194076 1.5959973749698835 1.430693953641962
Ni 0.8654999072809774 3.6540197743391074 3.850718351456948 1.06595160275499 -0.47186787832258087 -0.9682548248324485
Ni 3.464810867870612 2.446967988480787 2.729966325185535 0.6650418008085256 1.0762121041407335 -0.7683680091027025
Ni 0.9196766757072665 2.9785865011856063 8.3513961914835 0.1404421393098678 1.885058790083773 0.2197465307681506
Ni 3.271849402894075 2.5274072148045277 6.993161728241457 0.9766268509462277 -0.8375779924394606 1.1102985043014812
Ni 4.01553744484278 7.105673972186364 5.864059577832292 0.32003086691221017 -0.7009894225477282 -0.17102823962684094
Ni 0.730233347908245 7.364636853633663 11.14233659507079 -0.47743663065961 -0.7982557978010704 0.7745085747828016
P 0.3264680471507038 5.493763827971185 8.049388828980502 -1.091228632154224 -0.97434011179458 -0.8504941862804964
P 8.282941528530483 1.75853250897133 8.053165919953369 -0.4113695638272077 -1.4061679434761396 0.5376068723916031
P 1.9638056368495587 3.129851862061879 10.386666715580786 -1.419831042785529 -0.6907988551679717 0.39959571112073117
P 4.224063395834518 6.469919689358829 3.591133072291002 -0.40333229534502796 -1.1126158395807484 0.1482842610621059
P 7.160499488015738 4.033764157596131 10.481324776793718 -0.19290138555084843 0.20013492718481016 0.668725677418016
P 6.513896404077783 7.7371305306209095 10.258642684989557 -0.4178320316230998 0.9181108569882058 0.16855406705473552
P 2.2513624689622618 8.576804112712392 5.87504376180414 0.9325378310468133 0.00343962180916827 0.24233598603289233
P 6.878548778419893 3.978729661510861 1.5171103398721586 -0.7013275226134373 -0.2721648964688667 0.5964391120384631
Ni 4.877899013846086 2.913557297209664 0.6292231955258852 1.5597160240403463 -0.8411268861329837 0.2318209454341814
Ni 1.2488660092336576 0.9382486601877509 7.291020378360018 0.15866509007579768 -0.9439465871043872 -0.8772632268442248
Ni 6.6816621190717465 0.8462382879560367 9.45583049420868 0.5682189408505053 -0.29742881324197806 -0.8266281782961764
Ni 2.6466077355479096 1.3917358154817665 9.378326986175372 0.5923906530007024 -0.11433901446491276 -2.0159485098185153
Ni 6.325259921788481 2.048787912214514 2.5958918618812175 0.11688286393268901 -0.10375943917685357 0.37812237173830365
Ni 4.318340749537798 7.046768798317978 10.245703172710371 -0.7155074136582451 -0.1254333246058614 -0.09054114071436666
Ni 8.09505010628394 7.119039622465616 0.28573234361775135 1.8913507937400718 0.12286504965805292 -0.5023673324630187
Ni 7.400635974236246 3.8761021836698295 8.31550428683829 2.0442337299164537 -0.05084793588980275 -0.9275650604225701
Ni 3.1612897614270823 8.396554098953171 12.475888672871916 0.638197941142804 -0.8468833290007867 -0.25852056621255476
Ni 0.30849937958289286 4.802111869740549 10.29110458760865 -0.22016356370091114 -0.2962754163638252 -0.06889733719234585
Ni 8.764050421995082 2.416093427196694 5.895802770093065 0.6201223145880159 0.4071948636242278 0.3378360134144311
Ni 3.741028249576445 2.8311373015039534 11.745991510592722 -0.5171126090929932 -1.0283793009281708 -0.5907598022654987
Ni 1.3873926605983655 3.3769573855116097 12.526542761071648 -0.909553197226182 0.39784530408852775 -0.08898510908115642
Ni 3.1321688170728983 8.186092809069876 7.922057159063156 -0.8298621118524417 0.3476026058828917 0.4761485079758058
Ni 5.892062023512529 8.04446779825906 3.7375482740108743 -0.9891270402957674 0.686674805697269 -0.5119004687644345
Ni 3.2567119634887485 8.454596093503726 3.555400174362235 0.26337352342948195 -0.3106540536830005 0.10369310471529239
Ni 3.324339791516265 3.9483730078174673 9.040653962869417 0.5764894083894136 0.4586305536967004 -1.1329722917499134
Ni 7.493904771052376 6.067305597228331 11.381588095338069 -0.3668704529735682 -0.05425516179913882 0.41458961342640205
Ni 0.7681687160121929 8.768666159820956 0.04275645174648466 -0.7746206748806337 1.412709087028767 0.21132976745936508
Ni 4.7552639480275465 0.28719974845806356 1.346079989837179 0.25740470744055666 -0.3843243867839575 1.0185116641054717
Ni 6.156213066964895 5.772134614922553 0.3343411511391283 -1.106190909891011 -0.43637379918102914 -0.800040400505319
Ni 8.045440010753879 9.259279111879776 11.447415058725648 -0.06796531229637973 -1.3884401871790732 0.25568026855028225
Ni 0.06718170061166945 4.825008836908268 5.929487661514052 0.3483245716505807 0.0848237786146152 -0.08219122608777459
Ni 8.26022628332441 8.841463977657375 2.6396968493464144 -0.44037032193493186 0.8166150170345484 -0.005032420217584882
P 8.729723143439667 1.7391700339576743 3.757136992866782 -0.9307766253813325 -0.7798484989384762 0.26118577174954377
P 1.9589990909639539 3.3929943486270964 1.311703646352118 0.48664889328649735 0.2683982303375829 1.6936504441386833
P 4.683620064647596 1.1744872103308965 8.288587629878904 -0.27527747395591945 -0.07908404791736057 0.8065386066351529
P 8.844644111986224 1.8238524680859096 12.70000727678291 0.19260905112141022 -1.2552776122497544 0.43157406379954066
P 6.650451372158603 7.975177214282459 1.460126875748207 -1.837580027776519 0.3401068117264788 0.6763027184343255
P 1.856580593378818 3.2646441271147086 5.694105021810271 -1.2855554372976892 0.19646442031175843 0.5608738133393437
P 7.025661792472497 3.9541335940017266 5.947333666757751 -0.7083792872538961 0.4176160589575517 -0.23422826932409338
P 2.3076326743867424 8.245016155134426 10.047210999831059 0.7772414003329324 0.646513660097351 -0.07258044247088791
