# total energy = -381164.6161841168 ev
CRYSTAL
PRIMVEC
9.26868620697531 0.00000000000000 0.00000000000000

0.00000000000000 9.26868620697531 0.00000000000000

0.00000000000000 0.00000000000000 13.56565915706739

PRIMCOORD
 96 1
Ni 9.273320258533985 1.4495112529651304 6.069777857453244 0.6840183419110284 1.3721296229445077 1.752072592831318
Ni 4.253946819126936 7.784917599467097 13.033518617726628 -0.28666386141599015 0.48400271391290195 -1.054350785291268
Ni 0.44617044139245765 1.9832856061572481 3.7229864389787877 -3.8647963971993695 0.48027152900524384 -1.4614314919351346
Ni 6.74314510861408 2.053625663570556 5.129175853974514 0.13090283236086486 -1.9266939491260562 1.6761414887206423
Ni 4.813905210030557 0.08852151170530202 9.495608372241476 -1.046966834122371 1.65716957560383 -0.8891851750927912
Ni 7.530992680123973 5.719492898726013 4.940341208342114 0.4529653849911231 -2.178414975918274 0.4473994608675715
Ni 6.878560609840648 3.71191406678404 3.702895635388184 1.283019558249713 1.4179981033418483 -1.1046708737020587
Ni 1.5174229146685572 3.836809609496429 2.470889854198106 0.37982032826601686 0.6393968465469118 -0.25560082146259855
Ni 8.391098927031697 0.20895325528074982 4.539625329548234 0.13194618602371472 -0.7301344195428006 -1.5425680515061497
Ni 0.5067431575879312 6.950096327737065 0.7932521422672648 -1.061818811533539 0.1050683877962642 -1.473564527753243
Ni 1.0684477689180463 2.71305559172014 9.139034610120527 -0.3814444941330011 0.17638667572527686 -0.1819369161195447
Ni 1.6954187589912824 9.63998947335418 4.722260151171705 0.29210097327116147 -1.7286141046980619 0.43641442261097746
Ni 7.3620338045689335 0.1563488283668971 9.481255812101205 0.0409126790539618 0.24511611988119078 -0.5319517309883548
Ni 8.00845049769305 3.383292807647286 10.809537287633557 0.7488913884353295 0.15288473594859475 0.18566861524783507
Ni 7.065287556295846 0.014542568201539055 6.794075610851579 -2.4962588624814943 1.6668747187067356 0.340479107464233
Ni 6.717304012281454 5.4921042271591825 9.800496234222805 1.120764951050444 -1.469029873107683 -0.3462638324668101
Ni 1.634625448071018 6.5049954926992655 11.965331298882809 -0.5049281512116593 0.4157574084822582 -0.4793027373340713
Ni 3.9904844219766824 4.579157201846758 12.68858447137846 0.8263926652466026 -0.4521331188978149 -0.9548822601802845
Ni 7.046184794623843 7.785130779243156 4.867385527763432 -0.8233754756868334 -0.2257539133044951 2.043840351132777
Ni 4.313284946358455 5.753740693184067 6.067688695647872 0.9465971373533568 1.3512005861013245 0.38380579527632613
Ni 0.27614659382571943 5.91988188822077 3.1148790784809317 -1.5870987869286732 -1.0876758818059589 -1.503438946715172
Ni 0.9396501094351993 7.576557540084945 8.91505218062767 1.5323209198568448 -0.26811952275489953 -0.038340033230779134
Ni 3.068379934979669 7.547120193617075 10.288412836979017 0.34336465654214415 0.5536317870649498 0.9095907353323366
Ni 5.222070331694785 2.0629499616016256 2.6283462905319146 -1.5778173616267472 -0.05072195183489974 -0.054349521285158006
P 8.226273885395006 4.212645554687128 8.782244887617745 0.3859318404803934 -0.028028624002442055 -1.442788937133283
Ni 5.839216514697512 7.463081018420546 9.07169482633809 -2.267655395543346 0.4971022274093374 1.6834570485454492
P 1.7556652174425278 2.4830624194110325 7.061874826141731 0.7608925266612638 0.6536127330359777 -0.3760786018353975
Ni 3.859035918321981 2.4152341758808453 9.935027502813027 1.0343298620846508 1.6737979281891302 0.40908770977156644
P 1.8155316597712343 7.706625009538225 6.725162004200678 -0.3838849852536937 -0.2759955830688666 -0.0667214125869496
P 3.8806504938771047 3.981577214811814 3.005160082086707 -0.8263589837951898 0.45963122704707293 0.7637860461589749
P 2.471198501439095 8.14071464570832 0.733914015035746 -1.2010851853677507 -1.5541925231189555 -0.3178176613109752
Ni 2.291330382561423 5.260470497443017 4.372184664746167 1.774130601072622 0.5588364711943408 -2.9932083663630515
Ni 3.310524354524097 3.027282581630004 0.9441509833158032 -0.6133271460430534 1.0773834987410156 1.7449678634657366
Ni 0.41504248661358656 4.10029981270443 4.6785240029418755 -2.6249446325863826 0.8495058542252982 0.8366403111165398
Ni 1.7622459844425868 0.3901662604847716 7.903081295599004 0.02040247491575196 0.19526140114259274 -0.8158871377295884
Ni 8.109442099429167 1.7667876405412193 8.21686894979647 0.5160000927551048 1.6635353699208575 -0.6237912787991708
Ni 8.917764198126568 8.308552010267574 6.977103424757871 1.976500588235538 -0.9148936356024889 -0.14892420863894998
Ni 6.231170704695398 -0.049211161000160264 3.358829964910306 -1.7952882089868436 1.3167416330925064 0.5502821538664264
Ni 7.921445343003535 9.07015993195047 1.9321159718231267 0.5993187475791033 -0.5528386017396931 -0.9280299158741308
Ni 5.018298271840843 5.846696344231381 3.859335296877054 -0.18417788963492152 -0.44807668944025414 -0.9041183993638557
Ni 5.934748860429355 3.0821439335643 9.011246310533886 1.918212394017606 -1.4583415401559015 -1.2125934431176666
Ni 4.051490912673005 3.1651357472523687 7.455740219175409 -0.8696087956227604 0.007341013746103486 -0.6155323812244883
Ni 4.525482241709656 0.7928693455389516 11.72159729970386 -2.282994854113894 -0.11244822520010313 1.4171149294059464
Ni 6.762924484357919 7.092518955515809 2.677155190563339 0.8134114224955862 -1.807832107090125 -0.6051605510718611
Ni 5.612133709765894 4.170074480276887 1.6828874956334234 -1.3053511318673776 0.4594803032915054 1.853387427122421
Ni 4.909947333487756 3.573078420454624 4.995472279036553 -1.2172180863738715 -0.004178813968037965 0.07508289717776746
Ni 0.10178129377612534 1.5359324804419627 12.08167091762653 0.1396731223543272 -0.41791173582109964 -1.154446145352973
Ni 2.8778528272990846 7.481525703392542 4.80918837576812 0.6380321049889012 0.701658680700611 -0.034142707319979905
Ni 7.334097985219387 6.644294573324459 7.861828228325957 0.8210601972900957 -1.286768997989816 -4.35424702160072
Ni 6.298915530052343 4.959126980955804 13.448830823100359 1.1332106330129643 1.6913086833793838 -2.636094221445299
Ni 3.8463656246753883 5.987293040884757 0.9789363615569606 2.075536910905109 -1.4254072513217257 -0.4364761290868483
Ni 0.5293754348565852 0.9459713532296223 1.379505795113375 0.7793183374666192 0.15912480332103565 -0.6956908931529503
Ni 1.088199338604139 3.650453410477854 11.42970506224476 1.867005789236804 -0.13373798781681484 0.6289252575916265
Ni 6.2580498938505675 8.5944909707631 11.224918081283063 -0.544186839601966 -1.4133963429037786 1.3466250509155
Ni 5.6341653761872195 3.9863969314879135 11.154647539014121 -0.23523151377762713 -0.799095005872914 1.0339783922825032
Ni 7.4945018636743495 6.725868278067446 12.012254948199006 1.3232614364888953 -0.259796604711501 -1.3675535735380513
P 0.26854256390058073 0.629402166388892 9.595492366010681 -0.08099283490429922 -0.3984610832956557 -0.007100615600523255
Ni 8.109228919653109 3.597742393675972 6.542947980917775 0.6857651493988062 -0.08137721482691146 -0.115789116647878
P 3.2708358414336 5.314766459536463 10.794981743271737 -1.667592827819683 0.6088824800081385 0.060763138120985674
Ni 2.296409622443159 6.726062920471673 2.2821506760306365 0.840485653004559 -0.8356836036302252 1.7442921775549507
P 2.9555800273871067 2.240788238263786 12.594072607965922 -0.6880452036822343 -0.4735771477042037 -1.5574660516639047
P 4.058507307911096 9.591421559156561 3.4298188303377035 -0.4104303398423899 -0.9773369896393749 0.3620411499057249
P 5.249283193542917 7.655776998605375 7.033902858917113 1.036675479498692 -0.8426880599725165 -1.2851597445211673
Ni 0.8081320906361309 8.31899781929443 2.747710281489888 -0.5476668277307665 1.1303816482046016 1.225183106857219
Ni 3.401959941081256 0.6350023064190831 0.783538559427741 0.3740116920040398 1.758394678394604 -0.09666859376834319
Ni 2.4180240503414336 0.8764997716866041 10.194280062820425 -1.281547858800193 -1.2383600105588093 -0.07800058504519469
Ni 2.419877787524549 1.6587611061951788 2.889675036184402 2.363863761845819 -0.9188544200224498 -1.8635409706166552
Ni 4.376330547956204 4.725639514056525 9.133432616353153 0.38395131971525487 1.5850043662934896 -0.43424672553569726
Ni 2.2125187462212788 2.7710219534361538 4.866761745201313 1.21239263996077 1.1812732928481462 0.9667008500817675
Ni 3.4694081684889047 1.2375364060759027 5.976758252473113 -1.3327554920222595 1.921017724676885 1.8301595669427322
Ni 5.734248646703611 0.3587722944201234 0.6367383312910705 -0.31292999420137074 1.3683359602300305 0.6675164876012634
Ni 2.38442506389747 4.7391810641791805 6.398039491576474 -1.1894877103381385 -1.6103258757774137 2.8983264321814857
Ni -0.024165317919090264 5.459960424403965 10.41358273279451 0.016145499411610906 0.027744259992803832 -0.775503334595903
Ni 7.650076756767295 0.3034336051611758 13.118616276854716 1.569185396983362 -0.5774905959604183 -1.012221974442018
Ni 0.042906600840385334 5.667986811093156 7.044090071606923 0.5555829972540497 -0.0892671590979495 0.16794163028171724
Ni 6.137149154767792 4.554205899362027 6.910332738290651 -0.43767400604969137 0.5796336104453501 0.6259954855393413
Ni 0.39872218445344 7.145053867285295 4.90966927291029 0.24615073179329222 0.7928757644360798 1.520032589407795
Ni 8.151160454735177 7.387745139298742 9.708073532615638 0.5552780644191211 0.3320302053659314 2.1528628384807824
Ni 4.730774366053753 7.910943921861187 1.8096858995642806 -0.9170525909270206 0.8292409333286751 1.858202332012561
Ni 4.96661607917559 9.169529513651364 5.53151931401517 2.2067739866769416 -2.245592502206036 -1.3210652001685248
Ni 6.5170169783317675 1.5992283365594326 11.127204813755284 -0.4600086649911497 0.26830129974840244 -1.0269831919115926
Ni 6.5539434230194225 7.558622632838305 0.23104794876630033 -0.32715873620624303 -1.076908873097442 1.1444458396071515
Ni 0.6852747319565768 2.9421775075531835 0.31231115253111463 1.5312824512900014 0.879249404036318 -0.34016594709918835
Ni 5.221273224706047 2.608134067155817 13.319455724484971 0.278439673733985 -0.5205414322688842 -0.29385163741368103
Ni 8.813009509908726 5.008334434481599 12.839163542762911 0.2395370831315165 -0.47721243046394596 1.0350166037390303
Ni 2.034198497891508 4.976116482239055 8.773413683677383 -0.44836285322210523 0.30319836873590367 0.7451013252652781
Ni 3.5456523788304346 7.059652195259176 8.132137403762046 -1.2129171450056724 -0.41739365853410054 -0.5787663773490483
Ni 7.842262959226768 3.35126949780897 1.072106119248924 0.18972170227128615 0.054913878429060266 1.3856052888334394
P 9.34190853430925 8.137516949067447 12.284043405907221 -0.9650656284711896 -0.1511960353922622 0.4314637634739215
Ni 5.134611011395408 6.3799238449544795 11.19537229118998 -0.18464763018248845 0.22549808853994713 0.871633539362273
P 7.921083864252828 5.533896731952515 1.605902717287239 -0.23658879913646996 0.13972840107229484 -0.7175516977817836
Ni 2.0847962543046386 4.978007294165834 0.00958660184248046 -2.9255898958831295 -0.5332789344402106 1.1713370075710408
P 7.262552998637054 2.517551199702891 12.808966164049965 1.5123735302006405 0.36159274951439657 -0.3138432500442595
P 5.444083165430582 1.5572782641055347 7.225327175394326 0.6090385459700285 0.0680514442522828 -0.2382448466826542
P 7.325107359881278 1.7753704436990427 2.617032932503362 1.4563394221242079 -0.044376469232846154 0.7550458380724997
Ni 2.031686684008387 -0.10030942645273183 12.203856296577205 0.25575508765227567 -0.577403949783883 1.518894876258926
