# total energy = -340864.20035471534 ev
CRYSTAL
PRIMVEC
9.42129093748916 0.00000000000000 0.00000000000000

0.00000000000000 9.42129093748916 0.00000000000000

0.00000000000000 0.00000000000000 13.78901160569916

PRIMCOORD
 96 1
Ni 7.189754666683812 1.3790791695281066 13.145602838357437 1.0184070202068074 0.05206869567078129 1.1195886713541556
Ni 6.357590866643652 4.642925308230588 2.9316542409998725 0.07717166138599613 0.7462300395530825 1.1917068294766444
Ni 6.084863331959717 0.8626313133196397 11.2624374886696 -0.6969165380299353 -2.5999794780006122 -0.6289070027591814
Ni 4.354454796123106 6.103291377345989 13.736006887550408 0.7440263470335444 0.6953959876203508 0.11633624740059965
Ni 4.723336027745835 2.502068804450067 10.478173416826207 -0.9810630323407104 0.6689804737412994 -0.6312233095971838
Ni 5.186825864567406 4.570362524199371 11.922669321088248 -0.13774273810083376 0.7027272311744414 -0.21411170107987643
Ni 2.7238271542977404 7.003203681666657 12.152780587622765 -0.4991997333683145 0.796241595584519 1.8120386889723052
Ni 1.9062192490028715 5.492688080040458 7.303694819085153 2.4582774981417144 -1.5223756357186748 3.0029335640706156
Ni 8.380549333632866 6.131574093220009 3.185620216592692 -1.8219788309041527 -0.4318437725211595 0.3105396395923233
Ni 2.310025206723201 7.3055234916871346 8.697240381093126 -0.18747224411547714 1.075493223696838 0.15633387083945977
Ni 0.6992388039486984 7.401997512523237 2.3553566909668526 0.405055962904354 0.7404332303656473 -0.5515386519813468
Ni 4.938047251852746 0.11298577561318748 2.1666670728706166 -0.6079771945850496 0.6146044700935803 0.11487200415024733
Ni 3.5822009861705215 6.281664681690708 10.271103801928296 0.5969703019515848 -1.3479537970292526 -1.1353364211067156
Ni 7.217820692862595 6.502782383743766 6.919919468366741 -0.8037697856407641 1.8643809500194473 0.7901982176039164
Ni 7.578458294775209 4.061141740391625 7.294456301035165 -0.040409514165298144 -0.00932873360009361 -0.09549719916806133
Ni 5.0392224969463895 3.2797963845301688 7.52481534752554 0.3654658593165577 -2.536793332260431 0.6602325523453403
Ni 6.295372660237243 4.158350621933314 0.4538556245454968 -1.2877953823718016 -0.48286937163940713 -0.8369820107266747
Ni 1.6032211060233905 7.698702233049738 6.28300438928474 0.8846934578700246 -0.9993248067643757 1.8334384948043199
Ni 4.863835741879507 0.5720325315532832 8.068005538513624 -1.5196579796771956 0.6517173157854775 -0.651893950572658
Ni 4.736949793381399 7.444393322460976 8.11439220736017 0.9437655814418326 -1.6341849417831984 -2.06108551136647
Ni 9.170656490214787 4.55151994200482 9.513122305858975 0.41170457856912324 -0.541909356421699 -2.201534078434241
Ni 1.408464176460509 3.6388041030829537 5.691373687990904 -1.6807381069523895 0.20408182764770014 -0.053475860430953065
Ni 6.996580514025273 8.936518563865294 7.891920665776434 0.2271417947909572 -1.2336911443282303 0.7071893807108531
Ni 0.05740581091391975 5.936233043609096 6.306735679429668 -3.0015536530039535 -1.1213200522229656 -1.6733248452074534
P 0.6798262336427621 2.4903204544517643 3.785538827664802 0.47818430745891194 -0.26566694744934893 0.4049245795328123
P 2.8252473529599125 8.508085351216685 2.700923053511154 -0.5234341804356469 2.793484301463415 -1.3185113233984196
P 7.95670428974863 8.67896872913907 2.387815865184296 1.483292296563968 -0.5285457906305995 1.7244491746870947
P 7.3739691715088425 6.24787051052478 9.174629448670508 0.8186994103674029 -0.44314351380469486 -2.3259186500606135
P 8.824744366287215 1.5929707413095548 0.8023821567525622 -0.21025993143395402 0.8134471608295282 0.23415807820779028
P 0.39813057196333107 5.232057483125426 1.498465770312783 -1.8228314087124349 -0.06823990611400506 -1.2549503108173226
P 3.094620908013217 -0.013599633698917342 6.517803690269262 0.19732522565015695 0.5364146518557149 0.7403316717907766
P 3.4271830624559483 2.2738286063274686 0.9958172791744958 0.13058144446570413 0.6080826098146623 -1.9448364243630376
Ni 3.929827785077797 0.178494838999874 4.583674808519821 -0.7187740002246589 -0.20196863795943926 -1.7266053017981489
Ni 8.131554031222969 3.7786443268398155 1.7952599931047077 1.1340102460961246 -1.1960417094065723 1.128161243514515
Ni 2.2016992016867265 2.124067763045175 12.863093177127201 -0.07315097026237724 -0.275048645774565 0.32576442696187763
Ni 2.9445491621247135 2.440726778115706 4.59011426098481 0.8709586247824355 -0.4105450110433833 0.09751474381872238
Ni 6.56601808958868 1.6448443700911541 6.959300465153352 2.0346643410604632 0.5550055274840248 -1.6140622028913942
Ni 9.203847698750488 3.7254611385956946 13.437791934061012 -0.20326807349715317 -0.2821934843494624 -0.6977346630558564
Ni 8.093397802279002 3.526398679001358 4.733919906164514 0.95770044635537 -0.05515479079527275 -0.9778614946842772
Ni 8.26814390955127 2.1981191110697615 9.034215468285822 1.6659560635472082 0.6846855431813821 -0.4679279198382264
Ni 0.03795932396003316 0.7551965624209669 11.830888987476808 1.2377046363629975 1.101630029993206 1.4549214587307588
Ni 8.618389827383588 8.531450153137929 0.19054467031328948 0.9088510289528348 0.4234352367424901 -0.9405727855361478
Ni 2.664171539069791 6.883930136375149 3.8495056256988645 -0.3110518033420514 -0.6794664608742879 0.9575312677673574
Ni 0.10418346334100288 6.187969941728301 13.156896139995741 1.717357815057952 1.0742521522008852 0.013356366702247966
Ni 5.539069096112346 5.165627959598536 9.235190449972905 0.0984871350343207 -0.3626121919178465 0.4451266056729946
Ni 8.426553498060862 5.927216868029004 11.000914695487653 -0.2349137254268922 2.811951507029667 0.6782919809502124
Ni 2.215039749880469 9.304655513491339 11.220821761634713 -0.046988710044712625 -0.28637332675876487 -0.24114710793111369
Ni 7.785048365956268 5.908798243933831 0.7024476956964306 -0.40913733206257924 0.5548409768817025 1.5471219894254193
Ni 2.6167259171039117 1.3005527082323143 2.5963194005872126 -0.0478608282370208 -0.9690423537307505 0.5261482369327003
Ni 0.8499615610520234 4.85047635110357 3.569906201288577 0.4622550378231652 -1.2330637951568764 0.5062329860660121
Ni 2.6034890031122395 2.1922590680072562 7.121555824688853 0.5042933458411379 -0.6801503743151899 -0.18074546691460483
Ni 9.366958511517621 7.416685305343889 8.175559939809233 -1.3472020064648926 -0.2630526497549534 0.11835482049252519
Ni 4.818406276208443 2.36425415827912 12.961271509522799 -0.27321056412456174 -0.6258414764599802 0.7894384566197564
Ni 2.3746175784861228 5.605168874450833 1.659783711384104 2.3287494346411894 0.3051020135165197 -0.0018869326100677182
Ni 5.996859051820066 6.881772660713872 4.318332623927041 1.0999590700486863 0.0003946643352573848 -0.6687994680787449
Ni 6.446037947464875 7.981962771180426 1.2463209302890668 -1.2492733150372033 -0.897972434367118 -1.0127786182764364
P 4.837682237793469 7.388939603062413 11.530564606910733 0.1397757093704625 -0.338699646966307 0.9717918914514296
P 5.952239817183368 1.1523746418543634 4.578751241792386 0.11746110503366222 0.7183891060814144 -0.07577015305277919
P 7.056754300263571 5.194589008431562 5.299875704960055 -0.8889044106275789 0.7863963273593231 -0.8747998529053966
P 4.205344021926525 5.043499763104552 7.555923508599635 -1.3718969381084114 3.434607900893446 -0.8696170231528766
P 0.8664572996342432 6.9745441141487445 10.322868143733167 1.1568377855136012 0.6982589109904426 -0.5638845751412095
P 1.4757793013505434 8.437199557000783 13.14556138467661 -5.978170433556911 -0.38080788899026674 -2.5057158941293363
P 7.884226297337289 8.940503769999442 11.602626178255575 -1.7557991497532859 -1.094698078760063 1.8363487264725795
P 0.7838947572323782 1.3723146825202628 9.82447807617085 -0.3210981318344599 -0.3118195347460114 0.6251300522152524
Ni 7.247036116555247 1.4706070125381392 2.6676084260620776 -0.26359438119103634 -0.36549516989259634 -0.09741498501606448
Ni 6.933231752687191 2.972360813443871 11.121541138180731 1.5618564674221167 1.6704387819089102 0.8173891761964116
Ni 8.449098647656642 1.2566965981744964 4.836895559986847 -0.12450772746779848 -1.4348421714823805 -1.0401796359972086
Ni 4.344072533333908 6.384319069486622 5.75007304217248 -1.148501240623448 -0.37181134191861126 0.9664733074519936
Ni 1.3631854514470023 5.226564870415714 11.425423940394248 0.4499373967980767 -0.6681890881882557 -1.6278970518919578
Ni 3.018949097919899 8.754122368222038 0.3371182908173742 5.128151644250936 1.1972190175441253 3.206754424747445
Ni 4.2616362362327465 8.692243328295131 9.772493276154302 -1.0418894195994637 0.8437283283115727 3.149368173518492
Ni 5.544260227506945 8.70424605315306 5.937300475890419 0.34646463562370655 -0.05312619040101819 0.692531264478046
Ni 6.5883277069070285 7.912801073235325 10.255136597776634 -0.4908765582145998 -0.1606533241504201 0.02055417000226783
Ni 3.109007219518757 4.143333083924257 9.20439978640879 -0.6525030449115666 -0.6160576576003389 -0.01569067126237943
Ni 4.3881170692136715 7.056264393126514 2.373929824236022 1.4771874692178109 -0.31569881519575954 -0.7469149814352491
Ni 0.3759283573634914 0.44980635363188776 2.504621974337429 -0.8423399326044784 0.6434761588226079 -0.05267007670020607
Ni 6.674805737888922 6.963916897791019 12.790521913933997 -0.22127196627374152 0.4258289337856473 -1.5185531766487912
Ni 9.338449684657265 1.696793369201532 6.909935726190958 0.37649486343720967 1.552602038703384 0.27131308999153275
Ni 8.88963821936525 7.944456611322172 4.64737969466138 -1.895328033220265 -0.1727465078695283 0.19478214751332906
Ni 1.0066366898706072 2.935608356873399 1.5665421355234772 1.2367209322934896 -0.018474147544787538 0.3961871996598144
Ni 1.3459633313211827 0.10018600952842883 7.880820500605624 -0.2257505708703854 -0.3114310410583411 0.6737488416642203
Ni 2.793601236164164 1.4668196535170341 9.382650613969243 1.1208896495537666 0.05067747175020949 0.10983675571918504
Ni 1.3629404978784734 9.011106925482425 4.666573691013859 1.606239621523182 3.1567343840755764 -2.412510833429561
Ni 0.49844847956712174 3.1270678345522342 11.225717064488858 0.2513448743997219 -1.344467638252865 -0.6130702928372409
Ni 5.429028416096167 3.617389508418846 5.080409555236349 0.19620576733373307 -0.8129074862759741 0.16130227058832866
Ni 2.573463348385222 4.59612975535042 13.268986892954686 0.07570973212848897 -0.9884863213879751 -0.0019470964240418077
Ni 4.820950024804708 2.824361751596769 2.5555449948473132 -0.12150827851984236 -0.29641965525117336 0.3893346955143553
Ni 8.630053385762016 9.225610881185196 9.63030055601045 0.7915166793050239 0.06934573758367411 -0.32291718732106967
P 3.1315523691145373 3.448211384185068 11.299626151017874 -2.2818296301611993 1.3528278372921023 1.7392530724691466
P 6.281476255868762 1.9548802175203002 9.273937393868671 -0.6877716383058735 -1.01973576632056 -2.135272121982213
P 7.500600745147323 4.78487590119324 12.387607210351469 -1.2941696613292615 -1.1040486667370277 1.8744097950103589
P 4.627785293437266 4.9262423741078605 1.7662066156189293 -0.9681010728634037 0.053658151645088234 -0.3206273628456285
P 8.585518942745193 9.146114026906384 6.515556712342562 0.712981819022914 -0.9005905887162554 -0.30090314494382375
P 5.38883718827519 0.19488129060536546 13.716136442497143 -0.08254989497877395 0.16126190426869647 0.5406975955017849
P 0.3273832707265593 3.795141007551145 7.574539037678742 0.060060198516690116 -0.07487798025581298 0.2525108696833651
P 1.9699825471492327 5.672634739998423 5.272242116042635 0.3284476302209956 -0.548749519271984 -0.19134869635174787
