# total energy = -381171.13555290666 ev
CRYSTAL
PRIMVEC
9.17599438435830 0.00000000000000 0.00000000000000
0.00000000000000 9.17599438435830 0.00000000000000
0.00000000000000 0.00000000000000 13.42999530523065
PRIMCOORD
 96 1
Ni 3.49798074036916 2.8323632987342644 6.455570666841328 0.04127597593065149 -0.7865079132365228 -0.3260960992696836
Ni 1.569636387992991 6.157027861080569 8.184386696227461 0.0844684521577255 -1.1603242014003048 -0.05636552327392228
Ni 0.6443181239502993 6.054788933955905 3.913379831979191 0.5261718910817841 1.8780314509233464 -0.5263739797902613
Ni 5.886372736823785 8.087253292263107 8.53453345804312 0.6340875185188564 0.3971750174943805 -1.3810896603512732
Ni 1.329904364114067 2.1205630784044818 12.722637050097356 0.27476351043397834 0.40998168234074556 -0.1457247278650458
Ni 4.026380365075117 0.09400622514869487 5.94113415247513 1.2906729610299126 -0.5103215543130889 0.9679663470577523
Ni 8.314395852130628 4.281729931043988 2.7892085981179218 0.12763316047065762 -0.0435935683202346 1.0170137394037064
Ni 3.016608085822411 6.530922095827355 10.517633720474127 0.018941316989193185 1.6656842979430604 1.7813248048282162
Ni 5.95488988534648 1.3739491361656186 7.391439488989201 0.16472620866821308 -0.4502454149567988 -0.6226430241273406
Ni 1.3535509011092437 1.0989078866920339 3.373815775157583 -1.4869584325616456 -0.9248821142737684 0.8123559846478784
Ni 5.592575755251581 3.6116896602155824 6.721847006676653 1.5448612184157007 0.3930399122800844 -1.021313395220325
Ni 3.5809959596921574 0.4825141482224183 3.6699342832566706 0.4328578156079707 -1.4047263259336067 -0.03145513318548777
Ni 6.6437317682443915 4.320470978460999 4.466212376381329 -0.272371356052718 -0.7274830979628826 0.6583875287168015
Ni 6.616891985275477 3.996962127742352 11.248440177543571 0.393886833661412 0.7574122814221472 -0.9920066758364077
Ni 0.2947999177357942 0.34463933011037806 0.1277546141337785 -1.1850307030080494 0.6771108161579177 -2.490204942977931
Ni 8.959844458563584 7.198356384309377 12.24294452008449 -0.2463484496263951 1.7521810933847244 0.3862023205329607
Ni 3.0126165283552395 5.9609735694861 3.5629376031510214 0.7539572329940112 -0.045178396308851225 -1.7914446668710373
Ni 4.244732322520684 8.061716500467384 1.810134607385729 0.6634155780590123 0.4934553746853695 0.40246711913125527
Ni 6.278417088053481 6.818800561155132 11.529395355264494 1.171663280562208 0.6840597366719252 -1.1498400140395293
Ni 2.039181186045063 7.800200666411297 0.1679931838005418 -0.3914663971453774 -0.2997970563638386 -0.46634694850435165
Ni 0.2457881800360125 5.923737385114184 10.341055476521202 0.018796049660580533 0.7209465823959454 -1.8326334824045212
Ni 5.727655565537184 6.052348119504715 0.1152376404763782 1.2572303651007508 -0.6501353160103385 1.6087983833892938
Ni 3.848182558149882 1.7654062237679604 8.532734045584931 -0.5366265107562048 -0.6566016404609725 0.26550445372955567
Ni 6.87219567127346 7.713285649562901 1.9595702605618834 -1.2069408728175797 -0.33900355135997096 -0.6146214393744448
P 9.02960036630023 7.40037507211916 5.8291952819055295 -0.13315203340635778 -0.7117170933778775 0.35010377503819057
Ni 4.746613324053937 2.6013209413413447 11.121459099718948 -2.677355027867298 1.006843483738924 -0.569542030537303
P 7.198530728198747 2.136428372337218 5.6998642319720725 -2.2303638581817395 -0.3566243497655277 -2.608926402781255
Ni 6.674664044616429 1.6752153769982312 11.28526527737634 1.5454201762429642 -2.540782398815166 0.8375880197417898
P 5.763854862567052 0.7917047776266392 9.43752652825218 0.3017320686030223 2.053162399864651 0.7443901581308664
P 4.932381326175533 7.3262238631715375 6.634095139159279 0.6340960031592886 0.18780700174707657 -0.1593088943073837
P 8.00515567235785 5.900182608060781 1.4539316894129828 -0.19396530803898854 0.8307018341449178 -0.20842287822521524
Ni 2.8534313813655903 4.198109096105282 12.44983382560364 0.5231626719418152 0.12215388252364123 -0.3808256296020796
Ni 7.085482479933098 0.845772488118172 1.35759751454148 0.6470517919890083 0.4858528797477633 -0.19757590820838228
Ni 5.363689756490352 3.488648754290738 8.938064318784093 -0.5742412357851852 1.2969107144095084 1.0168491888013844
Ni 0.3032987235429082 3.970691256412437 0.3954734202537927 0.7210424845438614 0.417394686975365 -0.1396795501122304
Ni 4.484271650521883 8.597007296800575 10.515310358748406 0.22736239544219555 -0.2784281037697592 0.8850040471319082
Ni 4.169837858044692 7.4252787203166415 12.685623842383952 -0.09254377296669224 1.7159190257288963 -1.191755937547025
Ni 2.3478065742079557 4.60344946289804 5.4783906013073524 -1.0077174017034451 -0.24916097937452572 -1.5167426058026137
Ni 2.637584470330455 3.005156445089008 1.2368781351435192 -0.5436307099881799 0.5173545499004704 -0.11591998579878746
Ni 2.567433994844182 4.5623501849774355 9.877089682928995 -0.32411377873233216 -2.8368598402355727 -1.1116177373335372
Ni 3.5174980799845037 1.2440445865960736 12.691680916140458 -0.690455870006256 0.5021246203245934 -0.8830093852993826
Ni 8.899411360911184 0.6838739996502636 5.998950256588133 0.7369298451980792 -0.299456128084652 -1.5373386847864103
Ni 7.417084557516217 6.5788024334450625 3.9602508102373837 -0.007628720189851378 -0.4796446940545223 -0.7363320637130802
Ni 4.691061855303918 3.976031685023688 1.133338052044499 -1.1423105384317036 0.23420872894006758 -0.19338835248959596
Ni 2.3781515869526393 0.7660386043130153 1.3602034968878636 -0.07150957800421233 -1.0593338403281563 -0.4083996825656064
Ni 8.996346563401309 8.244401368545372 1.712525886922984 1.260273779912765 -1.126133671561525 1.3322800950477378
Ni 1.8202970209372065 8.931031836846527 11.406806825852597 0.7817547148222536 -0.1521496575547831 0.7654626625304495
Ni 5.091162729421376 2.1275735379560206 4.724430358130056 0.7218063592930795 -0.19473355366358078 0.7174221141824547
Ni 8.090474066219377 9.164175496906076 7.933003912541484 -0.40257844789813896 -0.6064484166453491 2.6334588407049804
Ni 6.0901256875330985 0.06479261248608556 3.4975329518533025 -0.5312307936619303 0.326126952507619 0.3195498135107335
Ni 6.901503796676097 3.959413959568405 0.9483656086180838 1.6283395387460151 -0.07850092172038092 0.16868107955090306
Ni 1.5351713538626521 3.7450260316074777 7.375833875691686 -0.13876963670345133 -0.06716184255847787 0.755798399967808
Ni 1.405918299879703 4.053522955851887 2.9569219140960525 0.17424006169591927 0.12310801890679444 -0.5281405847723807
Ni 8.395952088379419 6.388877705961101 7.74096870639672 1.140805157530771 2.5381066517552155 0.3535814491741459
Ni 1.0380710452958282 1.0157825554389077 8.065289632600066 0.7319159369232555 3.1699305710508763 1.4157059648735617
Ni 6.380656015178145 6.096181843690187 9.364762729624182 -0.5446136427267395 -2.0118000348677807 -0.4510013192862168
P 2.1083865341310633 7.994071071391543 2.481003470488354 -0.5656735487208322 -0.41190563883633574 0.5174170277072896
Ni 7.155899059250517 8.547126592452193 12.934051955944804 -0.9483971666765731 0.6688912564616029 0.26281945069822477
P 7.874654683166774 7.516579862381837 9.812827442906363 -0.04808914219774299 0.10966089226295307 0.3961272929561565
Ni 7.937069795561493 1.5048171651237912 3.6492653563720623 1.3651969003804165 0.6245649237404017 1.1302358666553567
P 8.21698349794328 2.254257313569296 12.654184133533903 0.7246037195325585 0.010896592307845749 0.7117152936056645
P 4.6619923057498935 4.061038095083182 3.2382138508032865 -0.8817901681803008 -0.7826201481463425 1.8783505248256618
P 4.994823966552786 9.353457904797617 13.570741158336007 2.123681074710504 -1.4946326612774516 0.2184859188881721
Ni 6.314414513211447 2.6578358894799914 2.7547472343852535 0.030303278969231684 0.9920593834512142 -0.504761543726808
Ni 0.47789862315118276 3.8483936060159625 11.174413762116762 -0.3930707655180198 -1.6003227418181147 0.05731580300233355
Ni 3.574444299849489 7.269626331085293 8.323924204484447 0.17577141073878116 0.3138733319512465 -0.08078277577602216
Ni 0.1676747768025858 2.1477240211696054 1.7757815203843539 -0.6867336839596625 -0.030422321045599218 -0.3798750927633522
Ni 3.5994397079887444 6.0333446355633065 0.9632554943697615 -2.083416827873818 -1.3601891627531801 0.6568330397454881
Ni 8.621130985492975 8.558991152923578 4.082584247011151 -0.5960902133394766 -0.40772682486829775 -1.0929474146175435
Ni 1.6995409375625359 8.332032112939604 4.772630937944555 -0.2478695142566118 -1.1021763894149792 -1.6517460905954136
Ni 5.68871264624827 2.3701409440357635 13.352423152068896 0.6432882111815179 -1.1865509963073178 -1.5063463501699543
Ni 7.836574307330536 5.151779346957324 12.767802211037969 0.9364687906701032 1.6398753072997565 -1.1842583436183993
Ni 2.939915126487647 2.6687828505336375 3.8386551233954807 1.0176714275923633 1.2511965002018453 0.2288839742930445
Ni 2.9456134188718166 6.756238632853574 5.7180354532415905 -0.7036451150030204 1.3769404140695898 2.369181831624623
Ni 4.61643349465907 5.313331900444744 5.521849944930385 0.2844262303347231 -1.4197652225446 -0.3001318139954379
Ni 7.40281588657035 4.502155663173649 7.971923891844955 -0.28500935653170273 -1.2205098697512657 0.06158794801512619
Ni 1.0711138003286693 6.101779200138404 1.545456725736107 -0.06258733581391801 -0.44868938332358854 0.013620676107228155
Ni 2.038300290604032 1.0749126619181157 5.780551501572261 -0.32089604312598285 2.290154347976811 0.5175342700114441
Ni 6.763129804480806 6.135344986839357 6.047594036921401 -0.3722923953200879 -0.7150829245263169 1.4733079316577466
Ni 0.6666350593891699 8.284739038949251 9.43704295335903 0.18672868108123325 -0.8945904052687624 0.06822345105377282
Ni 8.548218535759304 2.6616989830286797 7.042756298244841 1.3663688092013306 0.982497707904708 0.9444335540431348
Ni 1.5051842048908872 8.283601215671252 7.192098356280386 -0.04762017298112444 -1.4031494683647898 -1.452902628528517
Ni 5.531041538297893 5.832078379276071 2.4988250863797132 0.10036584011427231 0.1870906924063423 0.8592320803741267
Ni 7.448337993684464 2.4973110473404407 9.33517565399855 0.5272013607875631 -0.3826493130743797 -0.6978537051322239
Ni 6.8484206703598005 8.52576487800719 6.100668904842938 -0.8237565131753363 -0.0018959314711322187 -1.2954004484125692
Ni 2.4494490617110882 1.9657824086199878 10.58579025242565 -0.39673741573632965 0.5393781053594129 -0.23421078582259666
Ni 9.065322511632873 4.981023271309965 5.628054736738524 -1.2925516661098644 -0.6453474077033918 1.838291966241879
Ni 4.662295113557748 1.50000894417483 1.813841709033401 -1.288214729297407 -0.6858885623505478 0.44211018744417413
P 3.597283349357054 4.744154157614392 7.786415570358579 -0.25911217704996664 -0.23736784339433958 0.06149333141879086
Ni 0.5870874482658146 2.7931175716374965 4.842399692073049 -0.31970922190673323 0.47760529502699034 0.4061288842535587
P 4.889327561495141 5.137859363790199 11.77014132650002 -1.4210016660548623 -0.23287021263430216 -0.4784517021876857
Ni 9.216276791845388 1.156936873869953 10.65464599513349 -0.4723625585708123 0.9048485926616608 0.17469154741104106
P 2.800972222653357 9.228389104159566 9.418213813306993 -1.4349522146976834 -0.26889651013024013 -0.4854175919825576
P 1.3162504847780858 5.782619770659849 12.256105648533145 0.9258503917243088 -0.497896955396491 0.5629965161093013
P 0.3040997878345958 3.142071454210091 8.929120477259374 0.2709135405602689 -0.08196291212705238 2.8328373493397403
Ni 4.89410825446157 7.391180725953398 4.468172368737624 0.7293214367232019 0.8345289212004918 -1.1485794021595508
