# total energy = -340894.1377103895 ev
CRYSTAL
PRIMVEC
9.08028302567567 0.00000000000000 0.00000000000000

0.00000000000000 9.08028302567567 0.00000000000000

0.00000000000000 0.00000000000000 13.28991205715334

PRIMCOORD
 96 1
Ni 6.355680491731879 1.8310844591062303 11.56239646015143 -0.10175577848326346 1.3068341441708073 -0.2366060255276506
Ni 4.6320157799724875 0.560503166048349 5.839068689398696 -0.014179891044807836 -1.7156236059756647 0.774823277809743
Ni 2.9967022213563532 1.9025281253889794 4.823014991770211 -1.1940244218662275 -0.8009135471388916 -0.2694256431608328
Ni 3.5416372422799216 4.389100050384776 5.07487207598281 0.08567069999594278 -0.45024927161154066 -0.7082047093492448
Ni 5.302830763488552 4.568517361274564 3.038964582309556 0.07844152923735523 -0.333884999186483 -1.3382800213849146
Ni 7.438331708630518 5.775868103981666 2.850407058598186 -0.5474048323186315 2.546936848452336 -1.3516703266488914
Ni 4.899847805986211 4.584625783235112 11.713342543838678 1.0578924798959393 0.7615278462524175 -0.5456276858135507
Ni 5.698985348209419 7.888432254381612 12.475093837055029 -1.2280773976858785 0.2518819778501146 0.06369856660022577
Ni 1.7683851053082658 6.457543105910817 0.5493770953447074 0.7402959334568348 -0.16250091888212015 -1.6136883644917435
Ni 2.648582333462601 1.469389548196119 0.3174040147449655 0.44713592279353964 -0.5408374635137588 -0.10968840306677885
Ni 0.6187885943023322 0.18022364001610985 4.832477554636664 0.40770959847711724 0.17830266180106713 -0.1940025890348272
Ni 8.785691334206673 2.075425793117733 1.4897856797675872 0.31570241474018534 0.6799863379334999 -0.3100909820906788
Ni 6.823787238580925 0.5624844837889307 4.743873969627283 0.6911420974400032 0.7511138500079451 0.005884226694918898
Ni 0.796336274931873 7.503355614864729 2.500510159330319 -0.24827394878388206 0.07845824140790358 0.7211797814526741
Ni 7.771423728235257 3.6449254608826513 3.816955961589289 0.20287598026505704 0.048921151180735103 0.653377734207036
Ni 7.742838997495795 3.8669656199589184 12.861883925965348 -0.4563564129505431 -0.22906652261749583 -0.8827319632682796
Ni 7.893299286045002 8.846810718770628 7.047547203248696 0.03337034793032963 0.5667850366174562 0.11070913102180932
Ni 6.748775021097219 0.766116185232379 0.33359143516721473 1.6025233490138595 -1.2727312889498277 0.29633223774368966
Ni 1.7746686611124933 6.373913699903684 9.158995386873583 0.19817446102432967 0.756434233779594 -0.10550393267178604
Ni 0.15364746786609068 4.660346262789235 1.4492113434155491 0.3706481748484456 0.03225963136465412 0.20408002787548724
Ni 6.384982564824715 1.9653636834312553 6.975023891322706 0.15846840068395934 0.2552056429067089 0.46664519647106084
Ni 3.4360426318068544 4.286220444514981 0.42760323670404965 0.4348761315895801 0.27817947809406285 -0.32968073129714837
Ni 6.188040307833542 5.675503736490153 4.90045527691584 -0.03290317848592397 1.0489026176925034 -0.12331345004938117
Ni 5.263540379146221 2.8186015514949085 9.602134079683779 0.45540227656738985 0.11033863505626804 -0.7329852587280343
P 0.28910712897514695 5.4731677914242525 12.301102903258604 0.2277280063117304 0.1421753199508906 0.7850935493874995
P 3.852600612325554 6.2551526791471925 12.716957161848363 0.35237045958518026 -0.42455520927954626 -0.16748834479438252
P 2.4911574678876103 8.39394976700149 1.3694455978053799 -0.571163625301126 1.4046985580194649 0.2553761070463021
P 6.4002192796216715 7.771396487386395 5.758333169569031 -0.9508366293560012 -0.0602867127051994 0.7923371183237903
P 4.49930744459852 0.893610622134111 12.470629061926505 1.1318129813344895 0.8342558700447632 1.002276690303848
P 3.991429058410576 6.0081054208153715 8.385349831015677 0.24684338698494263 2.0777038366494414 -1.1927373276236877
P 4.8151196857416325 0.9492073786053893 3.640505179140602 -0.28115784399609645 1.0393491696761132 0.8092256665490128
P 0.286007120374622 5.6973054958629135 3.64041256025447 1.0401449261045312 -0.7932819987355628 0.08120957890079562
Ni 1.7930199129627014 1.1045982607986646 2.654673387268202 -0.5831166838979441 -0.2408216062708949 -0.5497841311840854
Ni 1.875877494918737 6.6838419176925505 4.814615730037682 0.13391976481031775 -0.9249134817323361 -0.0370483110025491
Ni 5.892413535697361 5.8427171470896475 9.4694475369889 0.7474058050287385 -1.0193984375857992 0.08478649761877655
Ni 8.578007102480816 2.3451101968540895 10.300346092928912 0.2651056756292402 0.4001906643922527 0.10726925210232492
Ni 2.492165379295514 5.307643313454217 6.956896922461464 -1.1335142802963123 0.08581365333171027 0.4972719202179823
Ni 0.2998264030024456 0.09838123369434114 9.336494942003467 0.619542530825146 0.09778548098160579 -0.5576087694348267
Ni 1.4265850943505571 0.9614294394615892 11.41878542903449 0.2720368555314347 0.8902542397872538 -0.3216953990988266
Ni 4.184103582413329 7.017297148615454 1.5851804083983294 0.39858912423308773 -0.7566185818762583 -0.30920240883813843
Ni 5.582585201020989 7.927005296370568 8.107218040047133 0.44462061257085367 -0.16667201954067423 -0.27243563363175016
Ni 5.379105140302874 2.864529622676676 4.766746294360331 0.24969679727333774 -0.544646552847204 0.22349442784635704
Ni 0.8623127028479671 7.583380148539089 6.816103503145178 0.06661496891607237 0.009480685796925606 0.8103224991576173
Ni 5.174517285064361 4.6900478683320515 7.081981452267182 -0.5211034754199413 -0.7677537725574713 0.5647800903722854
Ni 8.018089614683007 7.236195529789607 8.9907313875363 0.5735786625005219 0.25559310815311465 1.3643566638673084
Ni 4.56175255047377 0.34188264153259074 10.313223750214396 -0.5039788999245126 -1.0830126720023348 0.5441102207277596
Ni 8.271710997873585 7.403790312273174 4.806482520595707 0.2687396728374017 -0.795285916539469 -0.4831115695572002
Ni 7.141306572919408 6.200053522181798 7.180911135051949 0.5571179458413373 -0.7424716009519148 -1.3340320447418381
Ni 2.4937181076806625 5.33100688149508 2.5652316921421585 -0.9495217671993196 -0.5843238168321678 0.372344588714262
Ni 2.2082794130189662 5.234192904638615 11.239358129833454 -0.10555355496279885 -0.6693944213502665 0.9511467043972521
Ni 1.3116287121518273 3.2755849517251994 3.5988947825035025 -1.0373149128549037 0.901105580679461 0.5296508507693201
Ni 3.8027770997564834 2.8863223017664827 2.7179466149488642 -0.5750652743483774 -0.9892476250340319 -0.909771226774259
Ni 0.8369423922742505 3.5692957841580677 8.135233437045375 0.6169009794372408 -0.24280341258761412 -0.6491765516414949
Ni 3.787758311750425 2.642761872089032 6.966265958413491 -0.489959188606653 0.24574604015570578 0.6871139501172165
Ni 4.2839685343423675 6.796255820664136 5.954717897186823 -0.2763066865513822 1.1461566516506712 0.3880972235628284
Ni 0.6961226401373972 7.577105673017815 11.45546523202752 0.4210569663183007 -1.1090816011752447 -0.1504308750914635
P 9.326721833459985 5.7338263939042475 7.834961192149884 -1.1861581317442733 -0.11268965178694786 0.5292921818783207
P 8.495085958544102 1.7963251359579888 8.110992713671148 -0.9253878502655933 -0.8966323753994558 -0.1289660203494682
P 1.7942729920103653 3.2707905623254416 10.162490145148272 -0.995288431911473 -0.47322310679889473 1.7225776686959946
P 4.00788253112338 6.060135442142285 3.862978467713779 0.3055946368822221 2.105629616525432 -0.38056260574868006
P 6.836490554433691 4.079989058061778 10.681687104038483 -0.10689824191615138 -0.15396382794538646 -0.484960706950797
P 6.333315754815965 7.880859298397904 10.392379300810052 0.0957674221103125 -0.330111905297296 -0.7574999560399471
P 2.5022626539404578 8.7797528291547 5.849846985265197 0.22647202241744221 -0.14899954196157564 -0.013150164228712838
P 6.979450529262824 4.017235222566089 1.6902238456960836 -0.24081903516773367 -0.777650462845893 -0.9412258457391145
Ni 5.471533340492517 2.6954819949204554 0.44770516710780545 -1.0486398509494197 1.2323978794381032 -0.10567028304632124
Ni 1.358927906059662 1.1370511920765682 7.185576584433759 0.2668864216787468 0.3726469504460292 -0.5023938148255799
Ni 6.760161695921645 0.7102143312538435 9.370850192560251 0.6863811857162502 0.34522716367217965 -1.2821610669041597
Ni 2.768868841755379 1.6120044722729951 9.153772408118394 -0.1876146832306124 -0.4504364479216823 0.11011314930902327
Ni 6.499321487782567 1.8858385653193694 2.5172160639092467 -0.20329327030813377 0.6780878353592064 0.6038821985800696
Ni 3.860327933119481 6.818892966068672 10.417908516335464 0.5926901865189921 0.784244828233959 0.6249901842032786
Ni 8.28278894307757 6.87604426698169 0.3866057591663509 1.0212514316341381 0.268046503425119 0.6157182719830493
Ni 7.394818992714538 3.8761185451766367 8.331685358757028 -0.06380501027110301 -0.03078664636355343 -0.07954710359670816
Ni 3.024987302758331 8.365937094088135 12.289673551104295 0.013550484990925048 -0.7322902895435389 0.413981547528758
Ni -0.13763166479167366 4.753110433448179 10.129942778927646 0.3835245165904814 0.6642231615619723 0.23086578060976368
Ni 8.589729747774543 2.308534817115031 5.899299114261445 0.24358322817643213 0.7648772223406247 -0.3684920477373912
Ni 3.6926060266745573 2.682152139543857 11.507522494203295 -1.3979884929891409 -0.6788979899653276 -0.1731226602620244
Ni 1.0718184393344137 3.240734825747417 12.636194401169833 0.6515998163710068 0.8026747528043725 -0.6292350755225615
Ni 3.2951711220571633 8.446025189743176 7.910302115876527 -1.3253579140066079 -0.25553628677325024 0.48389344202854734
Ni 5.49862890482751 7.918932924824387 3.528631553004784 0.49946969920024953 -0.9594511104978898 0.13345310958654436
Ni 2.9922982841236214 8.377296528063697 3.707725605821406 1.2885865108145291 0.3471603761391505 -0.3840189397283967
Ni 3.3933743822056037 4.146692816642495 9.100878851882547 0.1604697473847043 -0.2482834618655789 -0.042166606065720924
Ni 7.470475910287982 6.29412525358613 11.478935947407242 -0.48122155162333896 -0.5054526562565618 -0.45831353667691394
Ni 0.5149074332227012 -0.1385860025301481 0.3659998730586434 0.18941008456813832 0.3748876668510898 -0.08960808737713599
Ni 4.677780406061081 9.480905038020367 1.6030958066667413 -0.658144302357744 -0.4297565509748276 -0.9054196346737826
Ni 6.159600861621344 5.717772453641423 0.3415548433179483 -0.9260208558639018 -0.5737038752244765 0.6263382135907406
Ni 8.004886883267766 9.126047580174681 11.364137562131912 -0.30307058490878774 -1.0824467721965358 0.4083814277331612
Ni 0.16614920143727643 4.940472991922792 5.782440412783833 -0.8389296213713487 -0.06695075498893631 -0.3582757693260217
Ni 7.880723094153592 8.833099491509957 2.562335081879805 0.27708393103703893 0.08702669980320496 -0.0014562728305523307
P 8.577380562956986 1.6154822206444102 3.6593503983835123 0.272641321884653 -0.2983914342655635 -0.16608632224053332
P 1.9063236836637873 3.171116296338439 1.4372771275289935 -0.2639270819401068 0.0607004032038503 1.1282725722813989
P 4.784773380109078 1.0312931365103275 8.21418922141604 0.21859673343442354 0.6803694323045314 -0.5717542076972734
P 8.642286425512793 1.7171723094472202 12.512185884894174 -0.9194192913869844 -0.7999756087056545 0.8538258217568908
P 6.537267990247694 7.71178442979282 1.3040566641964149 -1.3817087819925107 0.14087871262665416 0.631375518904332
P 1.7036790089774485 3.391694529859098 5.92147952143339 0.7727607388537595 -0.9954902635096339 0.3898571436767286
P 6.870441732399019 4.013221737500383 5.946650973810413 1.4176327495826295 -1.3169172394384223 0.8641369738749117
P 2.2793961891153685 8.383071588022496 10.056143687246607 -0.2428473784516721 0.8469589194337285 0.09216042148534452
