# total energy = -381173.61164366576 ev
CRYSTAL
PRIMVEC
9.19151459860968 0.00000000000000 0.00000000000000

0.00000000000000 9.19151459860968 0.00000000000000

0.00000000000000 0.00000000000000 13.45271070760048

PRIMCOORD
 96 1
Ni 0.8178572761077022 5.677212411003546 6.006056303104406 -0.8157120456043049 0.18041199483458606 -0.04897437301617372
Ni 8.973942078015149 4.285084020622826 12.504267649842957 -1.572973917491517 0.6465105747735576 -1.549164730887061
Ni 6.693453819352155 7.560149288156505 0.23585150245382994 -0.7536893240446052 -0.4724412343275476 0.34032381283329133
Ni 6.214888429781695 7.334663056509316 7.720981488251864 0.20196940929038765 0.5718272270270539 -0.45688631731208407
Ni 1.6126879703010664 7.214998730330662 2.0879416572275304 -1.151037119671424 2.778107047676396 -1.9172826831144847
Ni 8.56991067884201 1.865114530700819 8.803574600864891 -0.2645927405485637 -1.7694211114120948 -0.21190235213338343
Ni 7.875473381703237 0.19402275865063312 6.790538271217076 -1.4663212159272683 -0.09587875087719616 0.7665049877520347
Ni 3.978602163944045 1.8462167770620364 8.986989432728306 -1.2206726205813752 -0.4579034457226888 -0.2998608197222384
Ni 4.755248366017289 1.0055884431407542 6.8560792839100255 -0.41220748634747073 0.23080613101642183 0.1332098832274867
Ni 5.007316457354827 1.5679528696396092 2.523109311484024 -1.2457370197491706 0.9668070366423285 0.06632392003821481
Ni 5.918462089873746 0.5002922913464098 8.814955534014473 1.4576571124943671 -0.2455200401878288 1.2812488395025352
Ni 3.4510919601097148 5.927644412775081 2.2750689417634677 0.5265598705488221 0.2156800740082608 -1.383902704320036
Ni 1.5285580388537032 7.915833321502797 11.40916304780721 -1.1354521207489736 1.8587970281737667 0.4936885737420981
Ni 2.7309276141212573 7.642808577297348 -0.01379186738083344 -2.0481996565427374 0.017224334298086463 1.4140188069791262
Ni 2.220145966523593 5.116291052267964 0.2265340642905838 0.18148363063221004 1.0131614555371518 -0.7143663580752664
Ni 1.2279311768577557 0.08098919097150128 3.6239586100296157 -0.5694098758348128 -0.19100236875592266 0.35906946887191066
Ni 1.5439354424712537 3.0262693553281483 12.925162720514674 1.0655312273881197 -1.8286251325760763 0.417604488993326
Ni 7.742646806881229 1.2041894951218723 3.8089598972811896 -0.7160044078993217 -0.5510892231487541 1.3472174330838604
Ni 6.624535844262859 6.391043803559552 5.4524909133557475 -1.1417482381703306 2.0791845349600258 -0.467435296472524
Ni 4.558742979322961 5.699428301346415 0.2728353990084847 0.8649365869580716 -0.5788070007789966 -0.20997042521799322
Ni 8.42575096674538 6.620298556117197 9.888347940697335 -0.8665201293951077 -0.020774256432873898 -0.6272380996971907
Ni 2.3153976304140143 3.8546454005332356 2.273306009298527 1.240203234415135 -0.302363274429118 0.5857273820479139
Ni 8.24205855114661 7.969134913599733 3.9642578865468248 -0.6106418859014064 -0.6888162775203039 0.18399405575888958
Ni 8.258042594715599 0.335028862151218 12.802944072479882 0.4781082028053379 -0.8128280391882905 0.2432001338054005
P 1.4254568216522314 2.5440641260490517 8.376397130090009 1.1495674771044329 -0.3194264005589918 -0.18682869699420726
Ni 2.338394799482222 1.5894793964012968 1.9848128654828117 -0.3929620078542974 -0.3473637503992082 -0.5015067842349363
P 1.2296040324814224 0.5977462420908448 0.3470715843387342 -1.0562009511261294 -0.37513886362994747 0.10484675870376137
Ni 8.543448308839064 8.173269257259134 1.6183205303350383 0.6168050772893249 -1.2196742612238478 -0.8445914476428164
P 4.614783642715792 7.670107375112127 1.330642673848 1.2909971771385509 -1.2284818322131488 0.11619303695451602
P 5.661200792891309 2.245551312368727 0.39592264515556436 1.7225933524252783 -0.4292796113384091 -0.07677056929283553
P 1.934850550573117 7.392891300333095 4.530241012271161 0.48581302764876333 -0.06336098075514894 0.03486287331545609
Ni 2.5531361507773975 0.7123331757062383 12.174972454384285 -0.014784871618658406 0.6677581712984242 0.9989327135322796
Ni 7.101060717633021 4.789431608129464 0.7859480146619832 0.2997543760513611 0.8409463946910612 -1.4982993114957615
Ni 5.613561173674475 0.7069156971095951 11.94585925114864 1.1299175640839896 0.7899182244696524 0.5013347774334462
Ni 3.882376199525554 8.404821888420717 8.093769091622985 1.32171106128264 0.9128110420418473 -0.24080720809319173
Ni 6.841409626902489 3.3959061075575496 11.494762702409652 -0.11504915315805993 -0.4118827560182003 0.9642960972950168
Ni 6.189685297253709 4.012914087258041 4.813864491749412 -0.5179533598267337 1.212238373771093 -0.5393536798793808
Ni 0.17033163024403652 1.9730964420570545 11.314307538188107 -0.9657755100540206 0.3310498437305331 0.5188468181752807
Ni 1.8274477046250739 0.8676789608468355 9.960507762921067 -0.3903523381455922 0.16967532514337227 -1.226364785870146
Ni 3.7247784933530985 3.0381999410397924 0.48545626792794716 0.3655316795574866 0.646801109430783 -0.35689508692841115
Ni 2.112513332715156 7.680990128180375 9.19623242009998 -0.3733231505774474 -0.8667795537040813 0.8011220636052719
Ni 6.316675260421715 5.488584152163517 9.349472429287928 0.18533899982255822 0.40750828109958853 -0.31596286749042357
Ni 8.33651055328286 5.364930708728426 4.272271049527269 0.14250647803806427 -0.46085172971773536 -0.24193592238099623
Ni 1.6628276814389846 0.2547060559748587 7.429865086221893 1.1134414208058372 1.8982089543124856 0.34087557157170323
Ni 0.29188113602936105 4.282280608726022 1.3005027789273127 -0.9487830892610821 0.2669224171230048 1.115456651463653
Ni 2.511480207445217 7.159123514197316 6.744462128602361 -0.08314921912566971 -0.16468095725257445 -0.5658602108103417
Ni 5.502068103811422 4.071372118942213 2.2061904901861595 -2.414301606781397 -1.0575572080437077 -0.08030300792612621
Ni 8.931835750476596 3.4047207698822546 7.2172175619106245 0.5516803197655337 1.3699871226802083 -1.4903723433392009
Ni 2.7617283789284364 4.531122478503631 6.884020568582465 -1.144700635930435 1.409667986209598 0.41979121223199956
Ni 4.656393628475893 3.492646796783322 7.473666329018709 1.3588529604402595 -0.36059156194339187 0.3105689501683619
Ni 3.736828568752147 5.938600697958655 8.605254809224895 1.3276194563472747 0.6292831551516774 -0.8149985644770481
Ni 0.3807253952205626 8.289119104955251 5.882157446234414 1.2965746712263282 -1.3467631191552611 -1.4772790004903527
Ni 0.8924436581371917 5.8225945945174695 11.046276543764737 -0.503699678121197 -1.890107408251274 0.7566136967802517
Ni 6.39788229028487 6.059266899208626 3.016003352877197 -0.4459611857591481 0.6850110448416009 -0.33706931045173566
Ni 0.20783025160597332 7.837448086565278 8.109469117396527 -2.0660341136209968 -1.1467523762531413 -0.09359972503503235
Ni 5.675677428096115 1.8117210234597252 4.792420688617466 -1.8398459409925605 -1.2454631972624937 -1.300900809405508
P 8.164224807074035 3.169702937785933 4.917154134996407 0.4614592813947472 -0.5874813886245431 1.8781818604582814
Ni 7.624342824836105 3.4437479400915305 2.8307731969166703 -1.1865540816311113 0.1454539907021624 -1.2943054155761773
P 8.661136459418332 5.562989461359016 7.767729530570369 -0.35589338513677415 0.8378790686196473 0.8741781601609977
Ni 5.889315797661402 8.709842294307393 3.4268759962299793 -0.0985454990760819 -0.6116392168176693 0.8724442081890265
P 4.652202297902311 5.370160680430988 6.249510107131502 0.28896525585565713 0.6707568489154319 -0.6074858567709279
P 7.6146365856130735 6.129434920258464 12.047305995755279 0.764672048308354 -0.6258602455130576 0.20196400997374894
P 7.2318192017114855 1.4321482441468976 10.55561512122315 -0.5813302814214827 0.1453470328106529 0.14199559983991675
Ni 6.761434259971044 0.5751810742001776 1.4906274163142261 0.00027459381762533355 -0.03793945535825079 -1.3461172580411462
Ni 4.279348515627397 0.36516232301181406 0.4655272263717172 -0.05485114351192489 1.3518531320836589 -0.15817015271725018
Ni 0.46949244569067194 2.793099017629393 3.4264053906918925 1.5148533591997007 -0.5097661960302512 -0.4595947173821827
Ni 8.718123848795985 9.121291245614044 10.212396619727498 0.5047507450935307 -1.3353929296451068 -0.15190797385762225
Ni 4.245367486832368 6.991387567624287 4.043777354363248 0.3075029096485285 0.8880037531901803 2.008652490377734
Ni 1.2749733476375662 5.599121304527331 3.3324111259735463 -0.5192103721622865 -1.510435175527347 2.207969292536623
Ni 4.226341051991765 4.048163545042444 9.86068883551746 0.6641192889942562 0.9637448527772371 -0.0678249300637735
Ni 6.652082812966863 4.7114875658839015 7.013462827796595 1.1317412475562896 0.4879719829732951 1.7581293405483593
Ni 6.7655980160013796 2.31975440824708 6.661190684601429 1.2099380077726904 0.31156165309893435 1.1926524812193653
Ni 3.4112467451174373 9.126971601522976 5.0695062438917935 -0.05255360572699982 0.1878712793261087 0.4407559874091248
Ni 6.820517314635487 8.011746774431153 11.303774062667658 -0.22985122330232027 -0.43327536276136347 -1.2166861251298013
Ni 1.5003676641405967 5.203821844049154 8.928240949188597 -0.6683281848692812 0.10042831792109155 -1.3070246629150588
Ni 2.9982811939321885 2.3947295913363558 6.195094503487377 0.22702738070027997 -2.68752734041461 0.4618889127329981
Ni 6.490689011340701 3.1905217179376075 9.13526510498031 -0.6104788779609809 -1.1934261261605963 -0.5666857920354305
Ni 1.9127173838599902 3.3549211447777187 10.418895940046069 0.18195465673135758 0.09979865475689265 0.35552031806807155
Ni 4.111529845424626 2.303246448356392 11.281819211334197 -0.35296027065037927 -0.5790725957355576 1.0686677161345723
Ni 4.5348450418420105 7.728160980162006 12.283938776934447 2.05000457096196 0.027684867509778124 -0.43154063945844384
Ni 5.589571321049366 5.596906149553135 11.558151981577874 -0.43275651414341604 -0.08255220897161912 -0.11018693996975217
Ni 3.933719999051936 4.68752528780204 4.084054570533066 0.37424926193614255 -1.1418310276921237 1.345695340012379
Ni 0.43008842339034997 1.3856207981743691 5.512800116043253 0.0864451162681221 1.35738588897643 0.3793022509790177
Ni 0.30635685208272634 6.534624450247988 13.217637628375293 -0.6359214864038015 0.921184353707207 1.036937217800511
Ni 3.0451946835101786 6.222002661939486 11.124961422072207 1.894001858209674 -0.5942279633197572 -0.3882969982784603
Ni 8.934078479994039 1.0864461954561102 2.0068348148715076 2.2717534768721195 1.2480083322818507 -1.6364266866295234
Ni 3.352476201943129 8.801757438464897 2.631780586421441 0.6478629750363939 -0.4414720396395429 0.4313310945507991
Ni 8.024559745526709 2.4959741226258463 0.3883598670942849 -0.9728180187230987 0.534477325623686 -0.5985505019545111
P 3.4493823384283853 2.5051380624983492 3.778220715620596 0.04281349562110046 -0.0946119683496306 0.9072474319111408
Ni 1.8638552932258612 3.7242637685458164 4.951000967680966 -1.2785255270341014 0.7672086986872787 -1.1582542062451537
P 8.339341539722911 6.117449185460326 2.035947098480514 0.769432702921791 -0.429521552145886 0.5685979214564788
Ni 3.8281922220447053 8.928894465863555 10.495010870922899 0.37990774577350056 0.20485110171355686 -1.0210940801206672
P 3.5236865409653113 4.262408554559169 11.988356218049862 -0.02861509263353136 0.23935222081422006 0.5575784304175236
P 5.929712503518624 8.864085097718101 5.744764527050662 0.6344819257437976 -1.1059078314329533 -0.6839972588651059
P 5.130712538386275 7.388341500697299 9.697681923111334 0.3773685242914146 -0.3261418649059545 0.24233264359878262
Ni 8.691845309081353 3.945724116878906 9.941593464556336 0.1622551214199012 0.9905807420231585 -0.2670612566937143
