# total energy = -340888.3718966569 ev
CRYSTAL
PRIMVEC
9.08838803523240 0.00000000000000 0.00000000000000
0.00000000000000 9.08838803523240 0.00000000000000
0.00000000000000 0.00000000000000 13.30177455790772
PRIMCOORD
 96 1
Ni 6.9240973306225895 2.1886928229161238 11.248459504164162 -1.0257770874186334 -0.2082668122633252 0.34917612101759865
Ni 4.9257789676277515 0.727142824840613 5.465272940057957 0.038026101534786125 -1.8098200840544314 2.1039226611366537
Ni 2.71195675235557 1.6525779130819331 4.706021749844933 0.8044891803052919 0.32151747876006564 -0.3026980320607174
Ni 3.7515683480941515 4.70518561816437 5.131598233831095 0.38519521942468504 -0.43947686358638505 -1.0231555906353862
Ni 3.9972820015257606 3.1688118319050633 2.4677981220820526 -0.7119340944846899 -1.124134124632993 0.5062844081292377
Ni 5.40400084697077 4.994159997677294 2.555896409533572 -1.27307247433933 0.31018894112112383 -0.17730507377448818
Ni 5.617832435886989 3.2666210617552993 0.3420460202591105 -0.32367977651870705 -0.1851399964378747 -0.4406899100578797
Ni 5.784976976509148 7.938834008864414 12.394633356074179 2.5372697576762175 0.15138912523967477 -1.402040037350695
Ni 1.919358449508603 6.709556847455458 0.3856893674681624 1.0127151120283526 -0.511307572375442 -1.5859662159861267
Ni 1.054616524049559 9.148098540266846 -0.11850712429930904 -0.21904641937733244 0.14996113454389656 0.8341082887233054
Ni 8.283511117400948 -0.009917248802506712 6.421404967041347 -0.40298262531509316 1.1511425349010367 1.183418621325923
Ni 8.699468451705501 2.4751042770603653 1.0626397528278333 0.4463615065213603 0.43633317575108077 0.7127416779876499
Ni 7.177127136259126 0.7801553910658893 4.555339006103254 -0.6087868349705386 -0.044723568159619746 -0.2654250066418719
Ni 0.8368805637206231 7.6699904083998325 2.183898698334633 -0.4597559255503953 -0.024482044301764292 1.1318217230852379
Ni 7.737126329316362 4.056092959187986 3.5744529371812748 1.4537734611692448 1.2566117576801454 0.1758526575986778
Ni 7.736499230555939 4.009269585076444 12.621761256388918 0.653567481620339 0.6848961165302914 -0.403974299804401
Ni 8.382211009258741 7.750331756836562 8.960235201903599 0.5166868344094844 -0.6354620302688798 -0.8830631213554534
Ni 7.307436440997342 0.6578720416222974 0.1626766891638459 -0.803263792538623 0.7719531553507997 -0.6056927694262473
Ni 1.9546577478489038 6.628143069254527 9.144690394829766 -0.017984352392562575 0.24415401307823761 0.40230848206620395
Ni 0.1811761025963078 5.253751619328686 1.3310416576437694 -0.2887325710195608 -1.166514903592049 -0.4703717533930286
Ni 6.974428822437363 2.1419421559072394 6.80622548463275 -0.4793382185576971 -0.34423626051382006 -0.431374803304541
Ni 3.417261090074167 4.420819051282375 13.55424166287777 0.3317119027945642 0.26986453047046427 -0.2579819201002654
Ni 6.043905145848789 5.797555305268926 4.6443143229805814 0.5350763926602655 1.1841349306666575 0.9119384096289068
Ni 5.567300999539905 2.916418213416781 9.161224898812904 0.23025205828516476 -0.34451856764092925 -0.6821087835931414
P 0.15898589486518572 5.686867829860449 12.243192640787294 1.0298368593103038 -0.2723849828994728 -0.038946042245894215
P 3.8904298257824763 6.313457640564282 12.702875117791386 0.3716676172518954 0.9643619175359456 0.35953663831631627
P 2.665342411164169 8.594997433574255 1.3708278930568316 -0.812988990246187 1.3052688565662165 0.03666907328625943
P 6.4879092450035385 7.885839619414802 5.752112457269096 -0.24776332769605072 1.2426311271303372 -2.0674163386805042
P 5.041801326693736 1.3781267773248789 12.550357428546384 1.3529664197524955 0.3943048950354371 -0.4465813358416502
P 4.127845781123278 6.583282786914742 8.08105364585674 0.4677361155423944 -2.772499214571315 1.4779063496617062
P 4.833686333723976 1.4009840727228853 3.5563752249442273 -0.4000225142455046 -0.17226776846089686 -1.9621911135914012
P 0.4658107769193525 5.832363830666288 3.426031384332249 -0.4010123889625997 -0.5260258524222231 -0.045502098196857126
Ni 0.7207873152295491 0.28623332174273036 4.264349731007927 -0.1056006061506504 -0.4096770066161332 1.0939187773918775
Ni 1.914014477463264 6.4415948206106 4.837748843084973 0.9021152528908979 1.401088472070703 -1.137302543694151
Ni 6.26716139294701 5.8960643409822415 9.09883947821627 -1.0308143927322246 0.5868406697167506 0.47545739544605214
Ni 9.240618328398735 2.1385430988579928 9.87604841394696 -0.22737756495084713 1.1597585587048218 2.1693163560511155
Ni 2.320110910969869 5.798091520151026 6.956202969478651 0.37809177561068436 -1.9391748552018861 0.7532974879228252
Ni 1.2824987605543732 0.25020604353706977 9.251503490505371 -1.4790528045613238 -1.2916142418972594 -0.8856820470355392
Ni 2.056093244444191 1.3412733646652704 11.383099425704424 -0.001324632348694493 0.27296605221392345 0.3702026026705947
Ni 4.306587104619337 7.134311741181588 1.6218318970455694 0.01900765145075436 -0.848337802059126 -1.0934536648300008
Ni 5.8267017650468205 8.150129937575446 7.867481075993739 -0.6696260777450984 0.5626262772540762 0.009353930411074213
Ni 5.798954916995086 3.0325496331367505 4.670492515292477 -1.1900052734045055 -0.008619366237894832 -0.08321375381501797
Ni 0.7715886766952489 7.622721703284513 6.859845155165218 0.7969777024195952 -0.1791264432539431 0.1515207657215326
Ni 5.410153685533175 4.891315800968014 6.97695357657715 -0.8239377759482067 -0.003388713966574809 0.2044718639972672
Ni 1.183926106126232 7.589903534822405 11.33933702061477 -0.8233999011668658 0.772567649006347 -0.22126245319204474
Ni 4.763378565454006 0.6252365497556172 10.427407276692112 0.9935102569651277 -0.503371862468133 0.1514264062355134
Ni 8.41482923318854 7.3428084464403005 4.556575935687217 -0.008690071574830194 0.7920933777441004 1.2954883801406851
Ni 7.296975706602469 6.403723508513785 6.987022601456456 1.7220917301985115 -0.3261315804933093 -0.5479977287076241
Ni 2.563661528097412 5.343862984685041 2.5062938064229408 -0.15678535655458162 0.3195279591338626 0.2682629903112993
Ni 2.2755323686528826 5.522059004911167 11.228519581260294 0.6660733273968334 -1.2263390748385332 0.9512536622887617
Ni 1.3586958041396155 3.481888615949007 3.7322118996891125 -0.3920664926232216 0.5680538760275508 -0.36185757314000905
Ni 1.54149054860884 1.2821261366532528 2.2007122158242205 0.28925836161604374 0.27363968124218035 0.15740293553392246
Ni 1.1297411378706006 3.824239097200497 8.302222290269901 1.3445468282302329 -1.0668499461995433 -2.14170373654017
Ni 4.347748413111413 2.7543086396536647 6.732386877689967 -0.9194416599844875 -0.13785612375024647 0.30640967658434975
Ni 4.273359958704781 7.041564743353893 6.009595572943415 0.09463253717492089 1.5851406347610377 -0.8197921292109493
Ni 8.41417486926462 7.384733179510281 13.216323588372047 -0.16966221251724975 0.6823268131412185 0.8393844495205802
P 0.20990722305027085 5.831945764826006 7.976675329281384 -0.28460620755601307 -0.1349248090360644 0.3049040385731007
P 8.896541053459126 1.8039631892030423 7.882525084372395 -0.534145396205564 -0.5256070197172497 -1.6390774939888095
P 1.9532217825714144 3.412907752302539 10.62751903533683 1.4555284961871386 -0.18324817873180055 -1.7503646090012757
P 4.02854605566856 6.50873074152713 3.862914731620463 0.036026811716570205 -1.4779469730916546 -1.1365754357201394
P 6.978564038901018 4.21062281749904 10.320700515154144 -0.10779761380196919 -0.030772248185850226 0.25140555243432827
P 6.434196872915182 7.997508640709157 10.004264662967415 -0.5426058682680913 1.404725297492342 0.2751949415444422
P 2.3871195944567476 8.699813810443125 5.719190681185702 -0.07391793033538882 0.21498973280945552 -0.2551045985524703
P 7.106355860209713 4.429716582970108 1.541688675463582 0.9205194664296986 -0.5874209677002529 -1.8385896999879563
Ni 3.253451987786428 1.963228097574677 0.33485528780626655 -0.8041821905878344 -0.27495017252348775 -0.1688919100101285
Ni 1.921312452892528 1.399375428076584 7.047533087643305 0.046032516779030405 -0.3788793045089862 0.25368843493123405
Ni 7.170528966692943 1.0241068060968328 9.170415985427617 -0.9603419977432751 -0.6618765157066665 -1.7829541129015227
Ni 3.1065563752544305 1.8895848909702857 9.045526086353748 0.009321020290609754 0.8983809826594464 0.828151042698606
Ni 6.620890535764425 2.2658805007750766 2.3967405618159243 -0.22689882554221566 -0.3377151715658507 0.0840763589256294
Ni 4.329135394831049 7.038901845719056 10.488129522315454 -0.6740494036237746 1.9397577242885498 -1.3065556936984404
Ni 7.512425028552821 6.581828644861589 11.065360298702558 0.7136533911686418 -1.789126817371138 0.9717106445915329
Ni 7.4798704233378475 4.163608587243021 7.943792633265668 1.75173243588308 -0.204589363411738 0.9361515165400006
Ni 3.861692343457031 8.623280496508091 12.911167334323874 -3.864466524663777 0.41635570418788936 -1.1917605655327153
Ni 0.12548700615444572 4.662352046311168 10.095128546836278 -1.3604581001438505 1.5005464556587256 1.7613874424743408
Ni 0.3446534787281713 2.5086949584882103 5.743919275638359 -1.0727606552570232 0.3523925710723673 -0.28893003174234755
Ni 4.1562379047111 3.0012855789939508 11.236700039148065 -0.5805561222596195 -0.27852580568988805 0.2807428679458649
Ni 1.2061653911516481 3.4560957712811975 12.679065359348566 -0.5530954549455055 0.2031775706658759 -0.1974985180032276
Ni 3.155052012727099 8.431470071309315 7.937634341670562 -0.07241512053761723 0.8858447978656486 -0.5360786086725349
Ni 5.4656928235758055 8.138442270823225 3.3696851974501185 1.7465187528926243 0.8662560771004436 1.2130372155233045
Ni 3.033594797737454 8.393771438581311 3.50100058672136 -0.3849535357275241 0.8860882813350223 0.6474264017196075
Ni 3.9896841092980337 4.62500786070862 9.213833031779647 -1.2517045501865154 0.6690588923877187 -0.3708479495640774
Ni 5.0697481192777785 5.213799066418295 11.362907754457606 1.9303809110593402 -2.4197580019102776 0.4596525672033116
Ni 8.203078885085898 9.19699406680413 2.4758458895074735 -0.7544089758194491 -0.06613905772091835 -0.9785130122253469
Ni 5.018425993189293 0.6170824481925591 1.3782231142359003 0.3058041817898669 -0.030167524722315788 1.089489280865614
Ni 6.327208371354415 5.906234246966484 0.07331875115878152 -0.3643636273913144 -0.25815109868827796 1.2766589061390077
Ni 8.180167059360897 9.063649240529957 10.954051177566358 1.026849494547206 -0.447182716871075 1.3712932430861415
Ni 0.009834544473233607 5.1325216140348475 5.581504332044082 0.39574522702638937 -0.23212999203416798 0.45440468854081095
Ni 7.462720635498469 6.525289784157415 2.638300822008213 -0.3907544586800174 -0.16005939932016308 -1.6937365760945864
P 8.598696407421965 2.0641092025121996 3.5245313316577325 1.0941851436793866 -0.609197440145396 -0.3024550628119759
P 1.9095248138741525 3.4024833714589953 1.49098274207012 -0.14136799355824686 -0.18633324541502747 0.557039270084602
P 4.686272683085543 0.9554349476366597 7.911416160452204 1.3307297198414825 1.6340972671653986 0.10463464269295529
P -0.2731024190027545 1.6366277924364059 12.237313362698638 1.1138990771685462 0.9041022014139396 0.304130907852502
P 6.601768567765457 8.03364407073002 1.1956592148176142 -0.0998189664718668 -1.0783710594652656 1.0869328329923476
P 2.3175843391525146 3.569800591449967 6.15805620586012 -1.067215299958762 -0.7556834716564985 0.352981867916934
P 7.173746255985544 4.243659107269121 5.710318596983899 -0.09825547863948886 -0.5608681569123889 1.775951970552077
P 2.8739027351377064 8.661488078954699 10.390322110142783 -0.5114975768990611 -0.3997445779937696 0.19878432669418666
