# total energy = -340861.96509381937 ev
CRYSTAL
PRIMVEC
9.40226680627853 0.00000000000000 0.00000000000000

0.00000000000000 9.40226680627853 0.00000000000000

0.00000000000000 0.00000000000000 13.76116786668480

PRIMCOORD
 96 1
Ni 6.821833370596513 7.158349896175686 7.828521837593209 1.0786546521439553 0.1304256356141302 -0.6031532908338451
Ni 5.183864497942839 0.9106443131929117 4.100553199129348 -2.1584159070885276 -1.0766455921337263 1.6266649792570695
Ni 7.528272675153278 1.4766353792499407 11.668713110081137 0.28743056437868564 -0.41069464924737015 -1.2058993189269427
Ni 8.432488658639322 3.9527317031246767 4.195958939027769 -0.633110756427884 -0.3579212142000804 -0.7956489563058425
Ni 4.641795618916937 1.4823425551049478 1.9426088936179695 0.33027722723056663 -1.1813792222983912 -0.8368773668280103
Ni 1.1147891473225162 7.1731208570788425 13.024739033457479 -0.729899163603543 0.09358018465100658 0.08867194871611181
Ni 5.515426028998801 9.41392545810094 11.91823046237138 -0.8318459750516899 -0.21558494319129323 0.5131561955484065
Ni 1.5448394215106018 0.460039743886818 7.582981644094842 1.1037923277518473 -0.44710918332066224 -1.3855608087487492
Ni 1.9771838487606672 8.634881850492505 9.414400272566636 0.39878529940429386 -0.369555456004899 0.5803661177360004
Ni 1.0787502592628093 5.60549974348145 7.180536424783693 -0.2426064660854596 -1.5939273798147322 -1.032402563154951
Ni 0.3696670373247803 7.857361410080958 7.019406020339544 0.3048176495068815 0.13771574151764024 -0.4609502029688126
Ni 4.66657059153299 6.638978088836748 1.7923917000715257 0.5886458412462895 0.8120554226883241 0.2528168309595581
Ni 7.798926322867006 7.074209011947583 2.8726576047179058 0.8567640784496084 0.5696189065218256 2.1564518413836216
Ni 4.264172383555079 8.649445961529416 9.536902404716368 0.24284300757629787 -0.4273998778171929 1.6961508419630338
Ni 4.931592281524891 6.4952926499302945 10.96686587255499 0.42328791253134845 0.3358981729617699 0.5075432202370033
Ni 7.00157650209597 6.228117840876125 0.9135355101870052 -0.6730340749853828 0.34613964818411996 -1.2352631168010404
Ni 9.320814811491163 1.2803160516510157 1.749484456225851 -0.31671594360636424 0.08371280493862357 0.023907402745216893
Ni 2.945118993316535 2.4192784265241465 4.692847106132641 0.0533943564607403 -0.767995199144316 -0.3657407102444991
Ni 8.107461702903343 8.563904139570843 12.044448370300186 -0.0021432715952479217 -0.8515632509749591 0.752777096642981
Ni 2.82625553835937 5.120267566339432 1.4621380243062252 -1.1527700432021306 -0.452985182485465 0.30274328347635604
Ni 2.565342638892408 7.8474796278344785 1.9098438748049076 -1.3370258372628392 -0.3200563208335069 -0.08561079329228481
Ni 1.8426750221021315 7.136564844353526 5.491710691833918 1.931386983726351 -0.3605169999517146 0.49808053216220677
Ni 2.8102810873253388 2.4270635033082417 12.571390882743657 0.024463275248686904 0.41713397711481065 -1.4182927517641315
Ni 4.190242360906115 3.9126592426732105 9.632252671241568 -1.5997861525883545 1.3076548402998898 0.06019903808739955
P 1.3402649037952086 3.245408585503052 3.3191797098456726 1.2340544412049197 -2.221591254195432 1.0101542932797118
P 8.00582320044432 9.316602596033102 3.6355217918793947 -0.1832245245827167 -0.33617945164761454 -0.5150672965281904
P 7.488209616968458 0.7237733233480174 9.301269379584426 -1.1390154126201995 1.8532131063280857 0.8560128021058806
P 1.4366287346650064 3.880719742871795 9.252293912844483 1.051097311350977 -0.9391198551397053 0.201386283093408
P 0.44800202189807736 7.680194499642905 10.754380287682427 0.21429090697021802 -1.6388422380495518 1.9627891521867165
P 5.274107453225142 4.427988075353741 11.479277181894817 0.8755575570070275 -0.3476062054273175 -0.07383822613738895
P 6.672055262902505 2.8779868094536845 6.418510919807156 0.38510265971087865 0.35697222002324974 -0.3949736389676875
P 8.881785372654754 5.879839079720982 5.1903135126363305 0.8666859655490106 0.40956644918019786 0.17882305308091137
Ni 3.8313390384393453 5.523577794182148 4.082773512899005 -0.4227508090809558 0.7426600628136372 -0.5435299227442575
Ni 0.8760392707969422 8.32515238259194 3.8661311859415988 -1.1695804298912502 0.349488767162011 -1.129572522039745
Ni 1.3363817676698084 5.824064833968261 3.566605998033521 0.0344430121692181 -0.1756762799218136 0.44709812757706874
Ni 8.164514656920119 8.472100408025064 1.0799875975536146 0.8248492320188826 0.17364382287281707 -1.0505540372529973
Ni 8.034857399851672 9.273380376254735 6.750457943795665 0.2782044177947273 2.3306307108243023 0.5496450345030598
Ni 1.9838124467471252 0.8654212910719679 2.8871342746749966 1.23139926297026 0.43321159940296355 0.24531460904524205
Ni 1.7847758640870848 4.534139665803543 11.764807095898151 -0.03684493674249138 1.037604933291497 -0.41387381830630016
Ni 7.885389566957031 3.204489921053314 13.490623226292357 -0.4865252232244395 -0.3648516227713265 0.46474515123487053
Ni 6.100482071136882 8.97701152926021 2.2496070030574473 2.193137112619797 0.05029694848233919 -1.4500679872931994
Ni 2.3976344087016983 2.115557007011308 10.241858971822827 0.3114418396916185 -0.42377950745578635 -0.7249950414337062
Ni 5.3352409909669145 3.867208685699398 4.816050647374273 -0.5501499991639364 -2.2077378932521077 0.8732903582394056
Ni 6.406469436911757 5.275837470288274 3.539206852796163 0.3356001821053769 0.774761314223556 -1.5806728287976715
Ni 2.544093516269153 0.7217198683122126 0.3599827026778985 -0.9582231516280595 -0.04774769969792422 1.2665922659316249
Ni 7.024301780582876 3.0330395887369157 8.503645012627285 1.1170108833246506 -1.9550131077857236 1.0444522952306334
Ni 4.724356922348267 3.6937086592538537 2.4505334413136266 0.41858973572473074 1.1776727199810815 -0.2857495771318369
Ni 3.3443580397009005 8.145691319091908 13.286076915376906 1.656700092166579 -1.1669525053500998 -0.11304806356763111
Ni 0.13736147435937424 4.278322794859503 2.1541457897858054 -2.0258495709823108 0.5680199374658218 1.477163815068727
Ni 2.4971103898318048 2.6802665441242883 7.428718655209997 0.2222775247201204 1.096465455073131 0.5888990949076761
Ni 1.3915918774236824 6.063653392678788 9.426606295128366 0.057975805183835626 0.30053367741954695 0.42313981698925834
Ni 6.6051863425057835 5.158008264662329 9.448280400204085 -2.062334553282222 -0.15906798194117122 -1.2262894525475203
Ni 5.288502323462401 4.185240355049668 7.584109916092537 -0.9736983644455232 0.5883951586880641 -1.1925920602950753
Ni 5.401978279630573 2.247226349142311 10.463235340037228 0.32554871140664576 -1.548074840256992 -0.8034023749990165
Ni 7.217621785121262 7.674205255788475 5.446435957246413 0.7492683121587741 -0.7263695531837296 -0.8856676488578359
Ni 9.263611421208028 5.28114034867744 0.29445736618509827 -1.2462730947582987 3.0076196566923747 -1.988689416992246
P 2.9276965932187955 5.884700051577718 13.09320069782428 0.2585498767885935 0.2117959084625062 0.10064840435169763
P 3.919240829326431 1.1779065633269024 8.61597671294446 -0.3568400653207596 0.9878173203454085 -0.4163773014544442
P 5.141629516162457 8.84606616166106 5.95371456922339 0.7705408483843051 -0.5826322880623579 -1.3016919378482357
P 3.456451862671896 4.2085767808686585 5.830771470767893 -0.4181086823232541 0.5357333095179742 0.9845666746185948
P 6.906378552290456 4.161621861231253 1.4561516011317885 -0.7298066038897366 -0.0858643040639876 0.9362399624887489
P 2.9645252716768886 0.26375144376782966 11.829539821312572 0.07358085871094425 0.4171393764314494 -0.5499381402634465
P 4.11073679413521 8.986413795907668 2.797892660790648 -1.9043009261428363 -1.236707562557051 -0.00571813343069983
P 0.3399596356254717 6.661966630789784 1.9007058118502431 0.11812984896591269 1.3588830423472467 -0.9044616416358875
Ni 4.789693273281453 1.9751247523648738 6.380681840177774 -0.9038602606064629 -1.3708111612434004 0.5096864918322512
Ni 7.309406712133748 6.076468682119273 11.25585111955127 1.4585222887081397 0.07155045854447678 2.2728683072028537
Ni 5.8609499260262385 0.08465142730705943 7.883456460934313 -0.14414787029622916 0.8250762604280242 0.40932399415208864
Ni 0.8130976771788635 3.335463495452405 0.3363087354862637 2.750552535096895 -3.2034780679890185 -1.9999842731797752
Ni 3.4158998866214096 8.308350532092932 7.2643275446925095 -0.0472321935140864 -0.10896155220308332 -0.666428396743407
Ni 0.14556589223594615 1.64057330051502 9.002308327675195 -1.066539614047976 1.9379960044024365 -0.017708987243988856
Ni 5.070350932708077 6.466653345722137 5.994048412687656 -0.2731822819897876 0.3470912134641119 0.5057205652059678
Ni 7.02890889124013 2.1560055581286726 2.3850306702607806 -0.05416491607817769 0.44023199658485473 -2.818132181919082
Ni 3.4746264441014327 5.767886290749699 7.493932776676766 -0.8250230385925855 -0.20794465303721607 0.8525916922394736
Ni 2.7345176226801216 6.902457807098466 11.117207176021182 -0.7560259425975818 0.4655694469083788 0.4167256859327985
Ni 8.68416853225848 3.661675136785964 6.527279161064945 -0.40839068370454185 -0.3236669210029007 2.4474765508714684
Ni 0.5309243723686693 0.3440881709103705 10.99674157482729 0.8848654646715148 1.9374871830868179 1.9459710521881128
Ni 4.785678505422989 4.925847496603295 0.13751097039906884 0.5149212578686293 -0.9090860277817763 -0.957292412283674
Ni 8.997564884151553 8.698685631962155 9.07752646085486 -0.6129214259642025 -1.4914352373860766 -0.8993250917402704
Ni 6.6777530364908655 0.9350958478362912 0.14663116904710316 0.41815547640078954 -0.8884812070472311 0.6337476186809343
Ni 0.2205781157760316 2.8322541844804485 11.552211504505813 0.4672666321051437 -2.105435755347071 -0.5685058759633048
Ni 1.089403027374379 4.014072090732694 5.312691534866316 2.4979905004606207 0.13225291863085611 0.03816854064992137
Ni 8.803295250681774 4.482239153909574 9.547883311933935 0.5915625006724522 0.0690228070266166 0.29628852898994784
Ni 5.479133279739613 7.51317263491746 3.9543818009213054 -1.2087743264818924 0.3109826406670128 -0.15274718192946596
Ni 6.642503938829544 8.197939714851833 10.149893521290709 0.06687593588694289 0.28676696265275775 -0.8059863336761087
Ni 5.650075889657049 2.6556043987080056 12.707695542331859 -0.9316590279862857 0.7228355718885422 0.9314273715914538
Ni 0.15545613652240733 1.1202894733112791 4.610665654273869 0.07200348692149534 0.6545807533762017 0.0805053537449194
Ni 6.978860625875711 1.9692577379768599 4.4618108491646415 2.2351049724111505 0.3356986553564541 3.327246346187631
Ni 6.994515399843729 5.075935879096668 6.048060673670643 -0.11471902351215081 1.6211201381794405 -0.2819862534346627
P 0.27529178585091973 1.8498207447541999 6.687005807098629 0.08648136882269623 0.04508223705061913 0.17582231858137462
P 5.799440297618568 8.03460353865219 0.08761126084767924 0.6967748702457484 0.6884694357038466 0.20698126068268224
P 8.87943480599289 6.455812532277617 8.317071134408451 -1.448519668969473 -0.6768547342830536 1.0063513745938542
P 8.808494704137818 4.607026036854638 12.096107243941317 -0.6547162505128015 1.8994585104488706 -1.2682043476137514
P 5.044052792895137 6.708987366293721 8.86330615778584 -1.0068123733906726 -0.47086669075157617 -0.7365873742569959
P 2.2730637778895257 9.535966879184945 5.396937724480869 -0.5051402672224655 -0.6604919766543141 -0.18776843519965727
P 3.5773932185581496 2.656817291105528 0.6978070835477325 -0.27089271462466247 2.321266496000583 -0.07022659752673066
P 9.197005764277433 1.3636671454807316 13.308893395850292 -0.39605478784700826 -0.6939371436866372 -0.3203378566296677
