# total energy = -340865.18041978095 ev
CRYSTAL
PRIMVEC
9.31148727765969 0.00000000000000 0.00000000000000

0.00000000000000 9.31148727765969 0.00000000000000

0.00000000000000 0.00000000000000 13.62830285041723

PRIMCOORD
 96 1
Ni 8.553578842400672 4.713754244085861 2.7522763965212595 -0.7406342906328599 0.6830130405749656 -0.6236681229577453
Ni 7.22599353265897 4.122456174022964 11.550682175965862 -0.20215864248305832 0.2014580168716079 -1.4099420658065913
Ni 7.720386953810895 6.397084928252824 1.0547997007634866 -0.35410826821189334 -2.47918648038024 0.7738328888720156
Ni 0.39699619455983465 3.896838835393881 11.99026259564961 -0.5336381175518422 -0.03504362186769449 0.3344514132129143
Ni 7.732873658354915 7.319080471754098 9.325138927331677 -0.5872828994604918 -0.5009485977386211 2.9379430181318438
Ni 7.3206820475792815 8.102213804319527 13.437275179918297 -0.4147839888253953 2.014968662403749 -0.6041755614507723
Ni -0.07162209844272292 5.347363712693147 9.101307531977422 0.15103251323120442 0.23989009559556104 0.10643955711217798
Ni 2.2243653454836867 5.138386001968735 10.738912295186653 -0.9803678060458988 -1.2305371720802807 0.12916039574846142
Ni 6.4259039816187755 8.512831773732042 5.359820620477628 -0.4543308978800821 -0.06620924883722147 -1.47358663924043
Ni 1.8806783471840816 8.550878511067513 13.481267301930394 0.027226182705804725 1.252555585332901 -1.373759188128131
Ni 3.183150575527408 7.854584109581523 1.5053276361313523 -0.2641381695096483 2.1404156138563653 0.557699272266104
Ni 1.1593826021479854 6.023191464971265 2.851381349894388 1.8223161596389128 1.2205291530249753 0.29152196083923987
Ni 1.822686403932661 0.9496134149983374 8.348044519700405 0.06686359459176872 0.20704990913708857 0.3210989031654083
Ni 0.011580696824308288 7.965753957121458 1.2148595126646262 0.32511213808985945 1.1657574566007343 2.5744021437521405
Ni 2.727893335731572 5.703705022309175 0.7124274844785091 -0.749849895693857 -0.3612626198684875 -1.861387671719078
Ni -0.2384802272622733 0.9760766620632921 4.481026653711951 2.4747168746446606 -1.6915537095106545 -0.02378861777916548
Ni 3.906606585630031 0.8530877436227428 1.9153627064354009 -0.1970506318325316 -0.46867456819626385 -2.4014548327257157
Ni 3.366875532543108 1.5573090142946564 10.51652511152127 -1.7222729929713825 -1.0166221603922427 1.0203201780691202
Ni 3.078033194768691 3.5098906668396035 12.968870119976186 1.3693425471176741 -0.1525954868429501 -2.700069438745679
Ni 8.18134282386843 4.18913573497727 5.334608837313283 -0.3986749990786747 -1.1614508588055803 -0.3444774299903487
Ni 6.2122425927544365 3.557165088144591 6.713043248355833 -0.9468933284375369 -0.09379564309592232 -0.037295394016348675
Ni 7.935221590082054 1.931081428240591 11.036513017967861 -0.7752482811623036 -0.8723971570011749 1.0286942610654284
Ni 8.364052828762357 6.857137584036855 7.262849330761643 0.9589913972526516 0.37404383079355585 -1.6755141395492887
Ni 0.7273137593140978 0.883175952715279 10.895514751832614 1.051147190752306 -0.3063096606713757 0.39089689779515263
P 5.1230686052685765 0.4783171382322749 9.001684859907314 1.2756062965047772 1.603370270395187 -1.3090728036933392
P 5.297798665498653 2.9921999043236687 12.276211854302606 -0.12867034348592035 0.17351166817032698 0.7210154879606681
P 0.6102180812209834 5.084295571919361 1.0557913741668707 -0.7885118310404291 0.9606153060093198 -0.8652749441340969
P 2.362166046860979 2.1687850774573976 2.7200726175015033 1.5828364121078933 0.6912557401997321 0.967855789621817
P 4.279233686631212 7.869696653559856 3.8813137925256904 0.267434580872733 0.8644264800908725 0.8658411010502122
P 2.241517105192922 1.4918585696713043 12.58483830926172 -0.9612627097853315 -0.4775037364521196 -0.029888817139632394
P 7.182313345473291 6.298047948737392 5.474366813332747 -0.9184885520425988 -0.5193836645153571 1.6629116202939296
P 5.289539376214129 5.461475990237489 1.4035242137225359 -0.1988097806154834 0.4070441969789763 -2.70395848938744
Ni 0.08701491819046275 6.057197016794352 4.910236869927633 0.18250564413882117 0.7410474669108785 0.2514574887181863
Ni 3.918162141438479 3.715292766419419 1.6003038760109554 0.2220749217910111 -0.3256782950059746 -0.939019582116415
Ni 0.25208431028897943 2.084851330432942 6.655558781165298 -1.414552310885093 -0.17495328571285998 0.9443775039942188
Ni 7.069029790303607 1.8738064695155607 8.335124830994344 -0.48389729868328923 -1.0444543521131626 -0.7598224335255366
Ni 4.948878611305132 5.184636159664593 12.771014980898181 -2.2177096597528387 -0.8954836065069933 0.27758143949874775
Ni 3.7155441765780233 6.13366295095952 2.7157260152038534 0.39421696330732103 -1.7888540233257253 2.047547367670719
Ni -0.12396755576163541 2.709112065735086 9.433511604069954 1.4605017810320136 0.891082135005188 -1.7783600657729373
Ni 6.164875056575893 0.8131852268572782 12.496158497132052 2.0282882623307907 1.0373197979509101 0.9134515038393236
Ni 6.297349587185713 5.943000935863809 7.544220131081832 0.22969155779600442 -1.128194924965928 -3.1499790676296135
Ni 9.019888817687747 0.6833318799380925 13.447728255623828 0.16302876636113212 0.22259454173990695 -1.0169977985641065
Ni 6.439917770089133 6.590512455093185 11.806144693867497 1.40805667585842 -0.3529399589354051 -1.2196984295935638
Ni 6.1819337014115705 8.259941088638058 7.603229819901233 0.40877223541367663 1.5081299244329383 1.8621006386257026
Ni 0.8811758452312706 7.880432798481 6.185191790837337 0.7771228724771971 1.575741452934325 -0.43692247259564754
Ni 4.731706791707688 7.127245209251566 6.082870649731542 -1.061282479414095 0.02986490588023244 0.6784665588548637
Ni 5.05534615773043 5.053130023739768 4.987141375147256 1.4978475686703236 0.29716476094731403 1.3279786394589064
Ni 3.8822011772706904 8.206819053273678 8.70938516687772 -1.4994290542248305 -0.6150302447770891 -1.4562543186095693
Ni 5.813887852189403 2.54602136469966 0.93757831759107 -0.25665471664840955 0.21408496160699902 -0.969359370750537
Ni 0.45995116057185387 6.682454081243558 13.107742573548121 -0.44772059165241607 -2.6002769546363735 0.3736915896604596
Ni 5.7440144510720845 1.7250089015711638 3.2289398145991584 0.5101981413613472 0.693077366789503 0.25243090837504917
Ni 0.9381230396013797 7.927614104912432 8.574328560824158 0.47805215275642177 -1.6175031102521433 -0.5130965459550647
Ni 4.172859255079473 2.4627859792268834 8.492585806774503 -0.34758512238139494 0.32894051069701413 -1.4100819338185648
Ni 8.570190535843276 0.1434052856166998 8.81529029946673 -0.15363472674074186 0.8791879546707632 0.058806785725563235
Ni 4.815491554934451 7.362350953496126 13.461519499546384 -0.5884190699474641 0.9760964323640545 -0.5519032344096173
Ni 3.8589783278055263 6.630607719646912 10.317006940801535 0.7726164999664114 1.028351533014029 0.621712284782955
P 8.015048971182637 -0.02390817493454528 6.622060705403097 0.9807452439899753 0.11972393292590992 0.6525202713027471
P 2.565929324666188 6.577476372795177 7.575537456505323 0.22309822084920286 -0.8918745489994963 -1.0072759432906524
P 2.2146720871463828 8.712581800486937 10.0719155575167 1.1093693076189928 0.9898325510032243 -0.07340808057850584
P 2.0928219636094383 2.988605670204361 9.377567256888055 0.4297845759992856 0.8723290227674008 0.551769022824598
P 5.845882122743655 5.827827148760915 9.419010824810892 -1.02950107323744 1.844630249755081 3.3557879052707493
P 8.688939934090765 2.8284387761986305 13.85262524720499 0.0244416779821321 0.9936465254326758 -2.074730870064046
P 7.683979038250032 9.044471144306845 11.395714816499567 0.8590058232959334 -0.2047983940987505 -0.545672680118873
P 2.6986180194851905 6.845470290380139 12.188390561307136 0.3793739847572176 -0.3361061752075179 1.0065760890101505
Ni 6.834240636629141 4.354619488263117 0.057639969029374585 1.9180041346615422 0.20182748439588466 1.9652746376127312
Ni 2.0848047729961636 8.379938226191216 3.8593172659452746 0.4522130802061309 0.6962696484745556 -0.23523331354984003
Ni 0.7555843660747977 7.545386860447503 11.11246402688226 -0.4651606415057344 0.41287314495592764 -1.7170233145366687
Ni 6.239385578396359 4.450509185052316 2.9387389308195413 -1.2461980185459893 0.3335291585089611 0.23072282727399618
Ni 4.620769731351646 4.493872781667902 10.433992743343852 0.06062275588837947 -2.664329305031592 0.548981432777132
Ni 8.234734892366125 1.7853752740982929 1.9549802916877805 -1.3054969134166226 -1.3905865440981149 -0.6764914374063641
Ni 7.029530460940646 4.062387769091218 9.133838144203363 -0.5819697147776944 -0.12773626170742516 0.8980655083015566
Ni 0.39858939004639826 2.8868683593557702 3.333496643819061 2.5616399589904657 0.3804057684558416 1.0173739509566029
Ni 2.2857187356705224 2.46701339448638 5.592047252831801 0.6078082731073532 1.6018574332950863 -0.9022000992952204
Ni 7.357825570641246 9.198771801278474 3.2814230819309356 0.026763384136773264 -0.5491521540270413 -1.4833493750541487
Ni 3.763097942503683 0.9773523358310257 4.125001003517282 -0.7071577561419692 -0.6034551383449801 2.516418882369137
Ni 1.6412334498317558 3.209092379300442 0.9341339984181893 -2.2850391382374324 -0.7537407461078309 0.5682212548433505
Ni 5.673796524922604 7.436097933353424 2.1306079792989476 0.4207252940104948 1.752012171907028 0.14892189464610484
Ni 4.273525744882156 4.8415730310178215 7.907931482939912 -1.207681607638346 0.7437394119207449 -0.08050046864891297
Ni 5.616605369583775 2.0607438896689847 10.349864386233662 1.471781210600575 0.5968785135687269 0.6154981855524432
Ni 7.142879196521818 1.5483327404837428 5.263781939890738 -1.9607700648741584 1.0732023707801324 1.2001963550048944
Ni 2.7971987361201918 6.342435808962106 4.965253792968901 -0.06668284603953031 0.850619141894135 1.1507566123165278
Ni 1.0921257289776236 0.6898825112928412 2.0024204574677 -0.035050563846229954 -0.9567578799364426 -0.27021317205913464
Ni 5.55240266426609 8.50224461260859 10.700003314122045 0.1724336046147998 0.45622837201311106 0.01970981972410154
Ni 7.408768717964388 6.676224696202581 3.5294168558245476 0.696690280951742 0.839139937609942 -1.5877289643135044
Ni 3.6058176095782253 3.9319524542122997 3.7380388677319707 -1.521764227386921 -1.8044523919846152 1.7391342875030953
Ni 4.403737584064538 0.35055235792697714 6.601659236606716 -0.545276730232035 0.9377214321302818 -0.03559538060610644
Ni 4.127037425801978 0.49463738212064445 12.868470869860612 -2.352029231104736 -0.5633127617981396 1.0165391137601332
Ni 1.4897169275794886 4.129784314571915 7.654554738205958 0.22891508464129612 0.3545026754368346 -0.5900602050953128
P 0.007021792614948042 8.093544809591352 3.805130927576136 -1.0906347073239668 -0.05058105538166128 -0.8769971176670316
P 4.53196607644015 2.6747340544177693 5.5207305711743455 0.9233618209745 0.1359069704436756 -0.08346726458672075
P 1.7165168251027476 4.606290368513503 4.815751345431677 -0.8710154461623 -1.7143308553061702 -0.09905971970833907
P 7.504500119468539 2.9373645552858374 3.5628339216467535 0.4578306835032245 -0.9493872985039843 1.7815127524693062
P 8.298090252334442 3.9336005874742614 7.470981558434156 1.4703503916913194 -0.7602577212907423 0.17147895401101437
P 2.1101320186037205 9.792425677642367 6.210213619659625 -0.12693150641794268 -1.3534325607556366 -0.07786483079827881
P 6.032996461156837 0.5500509745232665 1.2786590305798091 0.6994105080963825 -2.710007523794997 -0.09934588349019019
P 8.571624504896056 5.860854994411652 11.131516261160796 0.10645369817956504 -0.4483227440127892 0.7058801749811262
