# total energy = -340888.9427124414 ev
CRYSTAL
PRIMVEC
9.11656091160092 0.00000000000000 0.00000000000000

0.00000000000000 9.11656091160092 0.00000000000000

0.00000000000000 0.00000000000000 13.34300841023257

PRIMCOORD
 96 1
Ni 6.693916741262577 2.0985502235423383 11.332790221599994 -1.0471175007676223 -0.16715744381752504 0.11218134469196162
Ni 4.8852002154184895 0.6069596431569207 6.086186748726709 0.032905235368453 -0.7845363913324488 -1.3884108766030345
Ni 2.9836953347941804 1.5308802220238849 4.495552941266443 1.0278645660752812 0.9028788705297999 0.47443538193944096
Ni 3.5903659829769867 4.695274906405289 4.7913406647563 -0.0777560731345564 -0.30481225019024283 -0.0534843450713853
Ni 3.8961263122139536 2.8636028807246325 2.4354855437408336 0.22202864193410796 0.14567022047802652 1.2047294669885573
Ni 5.359206672329751 4.667888758069685 2.377444048403463 1.0144184678727046 0.35929958260484574 0.6497715049130164
Ni 5.322649263932356 3.427325411461023 0.0743929586045944 1.242924232890724 -0.337204036257387 -0.16981262205218497
Ni 5.838673949098879 8.025910075107516 12.402953197241517 0.10984446902866889 1.0875550399573786 -0.09805287571037952
Ni 2.0577991972240453 7.068862649633666 0.43214503350000055 0.062340252800118436 -1.1148395867049445 -0.9939715128722624
Ni 0.6214567979782519 0.5270520769863453 0.2837319836233438 0.08053029344558388 -0.875530303313518 -0.13652172120953907
Ni 8.464042865673703 0.11242998480321076 6.576648597697147 -0.29369865677558454 0.06623007477282788 0.9898304941206953
Ni 8.890789071928582 2.693433158743142 1.34668284809699 -0.09281553857084016 0.4673121406310983 -1.2699179878707483
Ni 7.225266364961773 0.6849399683960227 4.494672281503054 -0.8968270079087651 0.47684424849124973 0.9454792216988298
Ni 1.1903402137255565 7.63683349765514 2.5727855061271105 -1.009974573168738 0.3339765304590248 0.647607407382162
Ni 7.835656569909202 4.152483999030599 3.645096343468987 -0.21010669368554136 -0.676099601284584 -0.13688218987275133
Ni 7.9956704432735615 3.8949411593232646 12.44655770705816 0.485460529405351 1.1360259909745725 2.036489052974028
Ni 8.478510847500802 7.281834624090411 9.142949494200053 -1.3372783195932774 -1.8356069632105485 0.05950509734416849
Ni 6.914938638815308 1.1800293835765656 0.4623937818946532 0.14733758087812046 -1.9241513852098604 -2.099771357972442
Ni 2.213063342464952 6.651679715550574 9.290456357943366 -0.15821437569162428 0.28348366391579566 -0.9728321597904859
Ni 0.24824121282756845 5.184150473814345 1.1850881631076664 0.13972762974134645 -0.3625520281038724 0.17528727201351102
Ni 6.763685780281347 2.144780302839892 6.731106838972385 0.27799255889423735 0.569394192105529 -0.30959810161466034
Ni 3.516685939418945 4.895893941116779 0.8338927186659776 1.61821196339371 0.6623038330520723 -2.6181494640414202
Ni 5.916793757716654 5.595945520525151 4.844245889796639 0.25692134004623496 2.0271047835456506 -0.7891810891933119
Ni 5.73529215078804 3.0406829557149075 9.276873594160005 0.8476402617714691 1.4613628434807284 0.02238505256341951
P 0.660240470498002 5.888368321461522 12.478141119938941 -0.571065666270681 0.1851921898320488 -0.8130103304024257
P 4.174910738346707 6.449082387167704 12.60223118587439 -0.49231766153650053 0.7000669107334588 0.9140785959003612
P 2.4949291661134962 9.006496460302582 1.2466623257153588 0.966895739701393 0.19978782825803656 0.4370785385575376
P 6.590872255697551 7.750744923571712 5.692140734038069 -0.8854095101004429 1.4205321826176116 -0.42463337081564934
P 4.9578592041783995 1.2338170916924338 12.629917269056945 0.42000204269122504 0.26561166873138126 -0.8285917297804504
P 4.366923739759659 6.318742918874048 8.39734246098575 -1.155537578644939 0.029604453129994174 -0.6978400782854691
P 5.073785390009141 1.2351298764328886 3.7651833276021165 0.09985444769549254 0.01569735613059877 -0.07843664414134878
P 0.2676521938649085 5.693000425711853 3.4849539265987923 1.0897538473809103 1.637762888942444 0.5281261865946776
Ni 0.9349397657821591 0.45260988895398374 4.370569452382631 -0.8835716855607558 -0.8648782229163106 0.03211127871224793
Ni 2.0904273679607726 6.60301551454676 4.861672195570111 0.3386309985119007 0.5596070308117782 -1.643973645738846
Ni 6.319216980030324 5.682479914666817 8.901094432141155 0.7621048018018101 0.05796217833708082 1.5274880172445757
Ni 8.772282899420418 2.2823765534488407 9.998249720696144 1.1904480173688787 1.808450714510731 1.705335336675779
Ni 2.661397564451759 5.503430662565859 6.9340141304189755 0.1320112349336952 -0.5288273264267602 1.3648233190910817
Ni 0.4390152736417155 9.089840058200085 9.210078377240796 1.4638012777188918 1.6577408747262674 -0.3217967005633813
Ni 1.7399138422592646 1.3264139986980055 11.40413551396338 -0.36556407545731884 -0.10676248766923548 0.010096722114369709
Ni 4.438260827218416 7.299949230196551 1.4779914067928006 -0.787420140638147 -0.22301877376151916 -0.858762596936876
Ni 5.9058174186367385 7.949330965247636 7.931631162653236 0.5053562398880135 0.9797602543688869 0.6273124045785519
Ni 5.43556698473289 3.2249651136562902 4.776863566368503 0.17491369072417617 -1.3340274167561477 -0.37613362344304896
Ni 1.1083732164933922 7.492563924615545 6.695828484040865 -0.8438756525227145 0.8108050952209908 1.5674231628766166
Ni 5.609064251369005 4.425698206577117 7.024640037001725 -1.5394025092939745 0.02975229156176812 0.6662975275924976
Ni 1.0790270076078023 7.873417364318682 11.321409107225104 0.277899742070115 -1.3210590295209377 0.6743828757037934
Ni 4.766757858835208 0.6274819329432988 9.928345756579052 0.1447317678241572 -0.47389082228988066 0.6325476848355622
Ni 8.538671031544297 7.559552412621545 4.785603613109298 0.6067106691678004 -0.6565851854007402 -1.3449255517258902
Ni 7.772761417656427 6.551224333223667 6.929664619310148 0.1848677166130945 -1.300770711585547 0.08097509429248634
Ni 2.482485060761266 5.58186955080805 2.662796956518841 -0.5392246105006843 0.19622530771775884 0.9065187812752323
Ni 2.6163252883628014 5.382298920576784 11.519672422652334 -0.15804288311076653 -0.1939794491063756 -0.20695709231296616
Ni 1.2300610686850204 3.570929475569694 3.590043256728292 -0.6153241218684241 0.7366197701568281 0.07331037865837696
Ni 1.7427035098327315 1.6600071877447589 2.284670280120358 -0.10394070194972421 -1.8488082923921707 0.18844643510328837
Ni 1.3364969148295562 3.5513744528733313 8.119647463856358 -0.4226222539228915 2.0465592927258367 -0.17155505866458842
Ni 3.5190744783217176 3.0519510247371473 7.118334577915288 1.1394877242709278 -0.18975821193617645 -0.2859454951927269
Ni 4.446793928031374 6.975664049622051 6.30232946299408 -0.1569085123960072 0.3200082412043908 -1.1653882461867737
Ni 8.338526057989082 7.3535363739770725 0.10405551214639101 0.5698464491515992 0.4888710977487967 0.5198109818607629
P 0.5228721339064935 5.748182967614454 7.921477137348245 0.9372095254908699 -0.019070900588521993 0.9808162064372271
P 9.176274170174077 1.8176781050098332 7.967697188429031 -1.2175937245457353 -1.0482397872975238 -1.1212876563231333
P 2.0110312408453326 3.3599449113450266 10.426172874937084 0.6971173411868317 0.08298364008208288 -0.4502356447647859
P 4.476978860501143 6.4103552373242785 3.470596255156135 -1.7654163611280758 -0.6286344658240851 0.14799321218424835
P 7.493694378142048 4.310264315024045 10.54037603079598 -2.17114106796468 0.6250770874901299 -3.430035708141731
P 6.682785420650801 8.265092161569875 10.05890675729766 -0.6238784391963385 -0.23897529709077553 0.21352060446309679
P 2.755562519897319 8.586697073299279 5.768609533513508 0.10159328476347021 0.3973614224735737 -0.8718014323987051
P 7.208382494549809 4.090044674812704 1.170843537017659 -1.3094592404984804 1.212836669476724 0.9430464438876209
Ni 3.2398251075933864 2.3047759430828556 0.2010794210267195 -0.2630169114210115 -1.7997105064242551 -0.8254706676529655
Ni 1.8019246881243722 1.3188654864403884 6.698030133449336 -0.26237670673385133 -0.797985060638187 -0.762294549215113
Ni 7.147602384378879 1.1451858885903201 8.898492565718058 -0.3516137839248138 -1.7980110072346454 -0.08608027672953562
Ni 2.205998007924308 1.6077145955832979 8.945406387067933 1.386889811972818 -0.2735520066243805 1.7300423525041562
Ni 6.488329180970892 2.205843026392449 2.3231376079839015 0.5528339737540028 1.5849418884866704 2.161489146697213
Ni 4.24889162840777 7.232249650456139 10.460131151879592 0.22881044074263174 1.8182527882028168 -0.6802707019431381
Ni 7.461212072376482 6.4521182018800065 11.376435755939779 0.585038069290373 -0.4884106131726104 -0.6745325139077802
Ni 8.005315764491627 4.1680186184593175 7.9768237773434025 0.2580605958570007 -0.8170467052553283 0.17335945886317886
Ni 3.355459563481805 8.699140732943535 12.409117815585237 0.3399013805838921 0.4958087054088945 0.22085673311319384
Ni 0.4713854457107008 5.192063648499866 10.184945032254182 -0.49278791630469965 -0.9513642197246971 0.48091044814082334
Ni 8.911784511215167 2.3423999890818705 5.592748342688503 0.12719273049912933 1.2188453375646493 -0.48343501433489
Ni 4.120831300288515 2.8235902958228456 11.094671126114976 -0.4131847626590755 -0.0007633605285857821 0.6983522420351973
Ni 1.3388581040502356 3.4628435319388915 12.595706463383111 -0.8656328416941478 0.6858962756600315 0.11301001124084409
Ni 3.386510569217847 8.832953610862978 7.891988710115772 0.3653717569408546 -0.6420484252371459 0.32084410684212483
Ni 5.838154305139115 8.111067868583843 3.4163034895776194 0.441782114680794 0.16023037768038856 0.800262543818454
Ni 3.410614755702314 8.543320477500075 3.4369853191762054 -0.5567448787726347 -0.49782959249366515 0.3096158422264732
Ni 3.801232031912585 4.39751891746082 9.185286802079728 -0.973298043683311 0.17809517377595135 0.13661865179871954
Ni 5.22527527912124 5.34410053125382 11.139477198631566 1.1576615669664774 -2.769171178639347 0.0583630133199253
Ni 8.19393740532507 8.887507110077445 2.512528686540222 0.17837233869673796 0.44392487205540965 -0.8284176660964313
Ni 4.757759813426673 0.6612460271429478 1.6151974686038917 -0.8774092655037857 -0.6324764652779946 -0.735093820430605
Ni 6.085641578396992 5.896737324181923 0.24503218346201158 0.8049074987896332 -0.7310065377351087 -0.12877653004648146
Ni 8.186689739570474 8.979474974394883 11.43682567731285 -0.49750100550965287 0.921667978211845 0.16753616731318244
Ni 0.5173019153202569 4.922833377978202 5.884053453283346 -0.9158272031603518 -0.5703802101678822 -1.1435873482615981
Ni 7.450746260695632 6.318834084481024 2.4329110269998306 0.47065200363760884 -0.6948604268318549 0.5096263280182771
P 8.599806687582433 1.9617835799568717 3.293001094486445 0.26902737928114956 -1.3079823988426376 1.3682737395335276
P 2.028799417644964 3.5859262179172537 1.4264873971316825 -1.454129816067399 0.529784805244023 0.3854299611433104
P 5.050820773611876 1.5527873173802291 7.9744753513077 -0.6307720809923781 -0.39018598777105706 0.017318950894421786
P 8.53229855561667 1.8398951634298961 12.434242145211766 1.5137986926829414 -0.8861258194411771 -0.24357834308042564
P 6.562847948113114 7.89610848389502 1.2951341672884535 0.3325349129164918 1.3788756834190898 -0.728477600665668
P 2.0229374691164046 3.205483023445509 5.55907085581548 0.09852647291268839 0.7053566983774885 0.8286251541215472
P 7.256937296825252 4.338443604140341 5.781164860906248 2.0443535433237696 -1.919515686210062 0.7899331368679879
P 2.6200266120060283 8.752855508573823 10.056411554634723 -0.23930028453036203 0.7622050748251002 0.11820338251632546
