# total energy = -340891.3329772712 ev
CRYSTAL
PRIMVEC
9.04235799102074 0.00000000000000 0.00000000000000

0.00000000000000 9.04235799102074 0.00000000000000

0.00000000000000 0.00000000000000 13.23440493541169

PRIMCOORD
 96 1
Ni 6.479183989635739 1.9493786392574861 11.451677863310616 -1.3226014343073933 -0.7267971276394515 -0.036066663815570145
Ni 4.532355295300953 0.26013959390489333 5.968571082401722 0.23699889009069505 -0.45163715309800284 -0.2787291799499458
Ni 2.513097314332006 1.3902173125554529 4.722062155192012 0.8539255805595487 0.5170362473291031 0.20111888836463424
Ni 3.833127845008013 4.541108297730649 5.13104528948379 -1.6201282065798164 0.28344638291995705 -0.08435995160431922
Ni 4.787946583191242 4.610571690979541 2.828073383376002 0.6233431355181587 0.379510767445398 -1.0414572171580514
Ni 7.256998572280427 6.164546104776527 2.551011016695099 0.3420132847205723 -1.3204465927479194 0.2887045459951028
Ni 5.2726350503778 4.685876447420153 11.422760402804245 -1.1169023827712443 -0.6487314936842763 -0.2077201957312358
Ni 5.747973719514455 7.842174762608737 12.411952760239796 -0.8166612968914515 -0.14192746560614267 0.7600407201839299
Ni 1.8585752814072676 6.439343360808008 0.19486100388375233 0.1743267078724546 0.5406685420360624 1.366141009461241
Ni 2.6969194077135135 1.6794100023349483 0.21195015604478878 1.4373657092351826 -0.8443011700959072 0.49831295988798696
Ni 0.4522978370177404 8.994840291248327 4.795989760527208 -0.05682780762232148 0.479898204826225 -0.3082711552731207
Ni 8.581667832549858 2.544582804476844 1.386780312324536 0.5340551504846027 -1.5140632591982375 0.9533164583550614
Ni 7.074668467949436 0.4797359677746318 4.784951754260751 -0.9798427867803641 0.26068569218467363 0.5132994059944902
Ni 0.7258825128572574 7.6954625059746204 2.282141026255214 0.08655284549057997 -1.7228172955106267 -0.010642310205194577
Ni 7.721414073095725 3.801479592421301 3.8370377605561545 -0.33378061239813483 0.045510582837289364 -1.300877155256424
Ni 7.651073571132287 3.482609884073351 12.657543200312684 -1.4586176766354235 2.4759723443183166 0.3285905835567632
Ni 7.930979759367052 8.648852551612507 7.055274418764299 -0.8676881815612798 1.2447492019146047 -0.2163269635636403
Ni 7.052306716907453 0.5906540507331766 0.6615868271378809 -0.11839698658437031 0.9795478812477647 -2.0314558614254947
Ni 1.9605911630310642 6.5830716393410915 9.085048661949916 -0.10484598737281298 -0.6012738144229451 0.9604528122895265
Ni 9.042140865328639 4.883171654045718 1.1925161040609904 -0.2568627188941576 0.6433817993365887 0.850347119179671
Ni 6.440500782616894 1.7979643565247725 6.782738656439085 0.5093525055316003 0.23206520023450355 1.1328609629830297
Ni 3.4577433998980776 4.319579571981545 0.7203277924103952 0.04135979389370942 -0.08929441279145911 -1.9722330712084355
Ni 5.935385628975084 5.632647487088475 4.552356990935755 0.4777083962637579 0.8141020208047076 1.5503479525618848
Ni 5.507519338718496 2.7397620993580394 8.956674307100329 -0.5260482210197263 0.2247794652063677 1.0270595536754827
P 0.10338218189975446 5.65685387913837 12.409676798760916 0.03653897546629836 -0.007031452925484664 0.02431029461059039
P 4.180399599463066 6.100797481709006 12.71777344192835 -1.7802588254575467 0.05946344547295566 -1.6274931315853196
P 2.660813272691015 8.655019439687974 1.3370057491277312 -1.173143207541844 0.2527430402988292 -0.7961148401986676
P 6.2321286875859805 7.518657282309482 5.82640713178221 0.01931232717536674 0.49534976349460497 -0.019985441982991386
P 4.807848812889343 0.8900863065781556 12.669520707563072 0.030104018474232025 1.4212996569112555 -0.575640173015241
P 4.134003261170946 5.889323857924595 8.261378474014446 -0.13821813507535552 1.9335968468934766 -0.9907167533803906
P 4.642174731776844 0.9607866943852945 3.8815451502867417 -0.23017261119748103 0.6417110965023851 -0.6059354815646726
P 0.20380118312160445 5.7218322628778315 3.4875696173715833 0.27884230848904235 -0.10670078119336464 -0.2679133202813644
Ni 1.3565164447295455 1.0664737733091498 2.5727153883190663 0.14386633450006833 0.8461253677888395 -0.5548903420623993
Ni 1.8430133834924871 6.389067850984545 4.960638438255897 -0.4624355292650874 0.09731908286814853 -0.2796660899419183
Ni 6.256796239887851 5.668979681058022 9.220250901236138 -1.7554026856458154 -0.42108139179833287 -0.3479463623755556
Ni 8.669261153351995 2.777269799852235 10.291073144450703 1.3143340520922784 -2.6273149325907723 0.5294798724090946
Ni 2.263058034181215 5.071876620683461 7.156596751538552 0.5649101881922464 -0.35387609759642924 -0.8023027141769344
Ni 0.5039143285150919 0.09142818477985912 9.033090369324627 0.3672098385908579 -0.3883057400292087 0.7854277927984666
Ni 1.4917268221378623 1.318050254299867 11.483135322146023 -0.08842640836420901 -0.47836659867304715 -1.5578188070176333
Ni 3.869894072155891 6.82371590965257 1.5123090371486838 1.348519953945368 0.9444957747396379 0.5842528543849164
Ni 5.605122549695918 7.739742932522372 8.004644232087884 -0.5940485003190995 0.7882572918274618 0.04602223236638526
Ni 5.331600266125785 2.7644748634493213 4.837518597571492 0.09271937931260806 0.18328983060301338 -0.018237091833316982
Ni 0.6454208997165881 7.215774462696762 7.241945759114397 0.9937563115376628 0.5095432813861676 -1.8230198705741574
Ni 5.397094064264516 4.430900039865835 7.186479935866714 -0.5330063975051142 0.06811057962499237 -0.13705496800518976
Ni 8.09433899686178 7.178158253907985 9.107162652385934 0.7901113143170652 0.4503369462293406 0.8646794766419431
Ni 4.6600786003830414 0.16496606449034387 10.66871727479533 0.005974472415880033 0.9596861093268311 -1.9135029043570788
Ni 8.188858763801466 7.152568381102157 4.860017792453279 -0.5114803505078804 -0.8977975993521506 -0.15117495234633965
Ni 7.415049945698467 6.032817035152748 7.068270999747979 -0.4357083976828883 -0.253192469131422 -1.0064411060941827
Ni 2.2218429669554336 5.2208313820722925 2.3125531885194683 -0.8940263052351765 1.0519403760775625 1.719437066184484
Ni 2.350714651488526 5.396488226286428 11.404153038754835 0.5219036027237334 -1.2309981708770992 -0.4347501475346771
Ni 1.2373291254879866 3.648654701859008 3.711217871808209 -0.2428869734403559 -1.204388281599055 -0.08632710263301907
Ni 3.698035018252161 2.585282457303356 2.702690240513753 -0.8267896435747051 -0.5377809360756223 -0.1999022423487138
Ni 0.9125095456537354 3.240419370564065 8.273964531950288 1.4089509055379155 -0.36958888034599574 -0.6521484897856252
Ni 3.5903043664469925 2.8038091202356634 7.215834142258784 -0.4388256031556313 0.1771433513856433 -1.0552933517101954
Ni 3.9183882374766164 6.849938747510132 6.20918551293219 0.8676848391271701 -0.4101554889144485 -0.385155367325685
Ni 0.9043262117705997 7.561843583553522 11.584418772781383 -0.9834353892276289 -0.16664605139874528 -1.6440235251401751
P 0.2879086749602629 5.303270558881738 8.048966253481892 0.10131843383552873 1.1174353724565786 -0.20500356813102114
P 8.439974084540205 1.6634592830312451 8.078254450661424 -0.7299433865779171 -0.04773124463769199 -1.0705518205311628
P 1.8971771072051746 3.3133369445238503 10.291178940037922 -0.6332562808668126 0.5433242344913546 1.7894659458781117
P 3.6354799864250538 6.479771742898063 3.722930437972657 1.7195759057551934 -3.1846593926206186 0.6399640319042913
P 7.01627292074801 3.938507483763883 10.406397568405106 -1.7245355637533137 0.835974909618399 0.1077950426988079
P 6.30921478852933 7.727119800919215 10.212368461446491 -0.22591589280365607 0.15571012121253183 -0.09273532015220803
P 2.2046444022640257 8.415378871101389 5.822357059686899 0.5209142422272707 0.04494853968623227 0.7216775470246991
P 6.794798449146198 3.836428305634913 1.654909733653892 -0.10514192134667699 1.437608421373608 -0.270553843228005
Ni 5.1576072157619235 2.801584700196712 0.5642829182063515 0.8167589988115805 -0.2717236951663901 -0.8873098124469493
Ni 1.4354381443229238 1.1500070754223064 6.957352916789435 0.03812586033744401 0.08754374864893955 0.2570668644851637
Ni 6.8986951412094335 0.8173342077676095 9.425371364372715 0.11714485934482406 -1.1436624244739078 -1.150800835290902
Ni 2.742221620701921 1.6415225228097128 9.2248561741054 0.2893576061980694 -1.254081277948808 0.08047270073477109
Ni 6.404792511341201 1.9687021580511446 2.6361077424860393 0.2705139911290051 -0.2794262060169704 0.9613331580119507
Ni 4.038145225264736 6.8200989664998035 10.345413194142088 0.9147473398326118 0.1308202999493876 -0.12308565030929125
Ni 8.034876451430288 7.416469595885929 0.2395836017319296 0.35125562925444664 -1.3264917705007349 0.4535081448684706
Ni 7.671482172871775 3.920883928252026 8.293604533269814 -0.7303542488630905 -1.0274179654561661 -0.8937262574962543
Ni 3.0010139032824092 8.358574778887181 12.228166836289816 0.9759617065584031 0.05522215369809845 1.0869492880525797
Ni 0.11986278337533786 5.160491727926256 10.221433425223115 0.5656187842234968 -0.5137907438086119 0.07328852428150603
Ni 8.775762044485223 2.2974280364903845 5.676884510318394 -0.36810098294655963 0.27485684147873307 0.034908381841410846
Ni 3.886758069605668 2.8541479265642997 11.334698687863824 -0.6398221070097884 -1.5405139971905986 0.7013835726623533
Ni 0.936309031598943 3.5166995732881814 12.541530652923466 1.584337165023136 0.10351209905273787 -0.15623256937490515
Ni 3.0124705707187984 8.420514930378317 7.882583251511451 0.26642593710256046 0.1488614737218146 0.5382681601246859
Ni 5.473583369587659 8.019079452210578 3.6499296743203584 -0.7983347306681219 -0.6711309444253989 0.10204759869206942
Ni 2.6265427363185467 8.284337020676636 3.5226937523281046 1.1165252019374836 0.6846063532040145 0.3369397268524068
Ni 3.598017497720268 4.270154043798983 9.402978869313934 0.0671088778333554 -0.377879145379246 0.05485114351192489
Ni 7.207781018329147 5.982713330129042 11.352909092402216 1.1050256859383163 1.0898006414584456 1.1322336138116758
Ni 0.7192038273256729 9.100409819519719 0.2923746955181421 -0.25803437060475565 0.24472119843561724 -0.19204160865371442
Ni 4.822144780700655 0.47144683830427775 1.5688988254810898 -1.0034776525904847 -1.1432610752704313 0.5388368881439624
Ni 6.074918253450957 5.510340554377656 0.2861237135143723 0.5897976954625456 0.10884970921556737 1.82686829778597
Ni 7.8764362566233235 8.723452004138329 11.450234702992663 0.33658362906456873 0.5095214270092967 -0.4009316563233353
Ni 0.07730944718303266 4.792024686595987 5.627454460956891 -0.007196003527806962 0.020769371336867456 0.8892391682591783
Ni 7.719415712003821 8.654368389920476 2.619486080227498 0.5688614595305106 0.28635327215410683 1.0969326245175366
P 8.5460409424951 1.5674023152516323 3.509857221078934 -0.9594971332444764 0.39953708996865384 0.4028867231671771
P 1.7359699508863442 3.0126242908027914 1.5289044765693673 0.008520635876501453 1.7990674735236178 0.34970885359261705
P 4.521829990726401 0.9876334549367085 8.024270669870585 1.402979775556145 0.41756746510780346 0.6236899773346162
P 8.557470482857845 1.5944660923922123 12.3579427566111 0.047778295825543514 -0.7332804213709501 0.46987758736542945
P 6.175297468298127 7.6334952274098375 1.5010196533331093 -0.3548795991602791 0.25314284684040916 -1.1129302854973737
P 1.873395705975731 3.2536845095768383 5.771378054420223 0.38798280947215114 -0.07360039909497001 1.0274112805879467
P 6.960499657332341 3.995727524440659 5.864363333227349 0.7014486215723338 -0.36267209862150446 0.009692287587099438
P 2.3605527368640526 8.491651159835365 10.08586044926373 0.2395486530957423 0.7143159644533054 0.6859978342349025
