# total energy = -340866.46871798777 ev
CRYSTAL
PRIMVEC
9.25771151306516 0.00000000000000 0.00000000000000

0.00000000000000 9.25771151306516 0.00000000000000

0.00000000000000 0.00000000000000 13.54959658318990

PRIMCOORD
 96 1
Ni 2.8075953665288647 4.0554700470638485 8.357608108883527 -0.3807338412192217 -0.533209514654856 0.5774525436336313
Ni 3.202214568805572 9.160681237217787 5.2249680178818805 0.32138275295441426 1.8993176139956323 0.17354380695984306
Ni 0.25724217261348514 6.415260659843203 5.1969069691318 1.4971600556849958 -0.44063874510497014 0.5899488763284292
Ni 0.2845764910257736 7.177503578218256 13.086471115801091 2.010251716544054 1.7997233619400617 -2.5490045296146424
Ni 1.438648337488865 3.0480551600805748 0.8090508325267737 0.2696524144596582 0.928154357267137 -0.815938302682498
Ni 3.8038454536729396 4.764629248790502 6.252366600497738 0.12261513843077593 -0.2531934975726865 -0.23574444885830367
Ni 8.973555118519831 3.258556999834898 10.298641888689039 0.4395804790437849 0.9108983984001666 0.29970655353256126
Ni 8.475814269967136 4.072550524429788 3.930101194740117 0.5435985711986638 1.8949482812833431 0.16446267059418126
Ni 5.742799025747218 1.9461745868956508 12.013912491646595 0.44999781772236697 -0.040123350383447026 0.8783454041648098
Ni 3.2128516791001327 6.460003178601785 8.760775881783383 0.347947133706504 -1.396593412413827 0.5732909560567739
Ni 8.367165770039405 8.296020258626266 4.601009384878377 -1.3426066737847266 1.0053347604038816 -0.42029771955477296
Ni 1.9698835855591579 0.584937379834163 0.3725719627932473 0.1742511174395128 -0.47525479251694286 -0.12030783045383797
Ni 6.26288798940093 4.7905693558795885 7.042701118070192 0.5983453279222404 0.6942281925644948 -1.7257262416273054
Ni 5.026465097755739 2.7325153278092076 7.5441848593052985 -0.8022559200993991 -0.7517674244315441 0.05142334877729854
Ni 8.67565122629297 5.375249371339349 11.795343482257215 -1.335103680539462 -0.5029021219205662 -0.7358682367027842
Ni 7.789512357463519 3.44913624485128 7.962853744021701 1.131215714070123 -1.1079480017914338 0.9346895872824935
Ni 7.225495553646455 1.2268041295946712 0.9532544985095861 -0.26712039206642385 2.233665925971779 1.649718004421791
Ni 3.2674166295580434 3.737060324286551 3.7251363921199774 -0.8491351011494408 0.30817808133868213 2.5792008506923647
Ni 9.060355419757254 8.317701818513003 1.94116894239063 -1.4081644050808781 -0.2560821319743912 0.9822521675528051
Ni 0.7418009660326513 7.429368872103211 8.279426736875203 -0.9752202004066883 -0.4349913170112057 -0.4002181751960785
Ni 4.975473623863275 8.158969100401135 9.582315366866606 0.2044206990443576 -0.943646282255149 1.5967584215056243
Ni 3.870991633800396 3.360938029206129 11.64350683329976 -1.288419903329678 0.7199294539853408 -0.9613303297984735
Ni 4.349939328394903 7.192028927262786 5.834551276764067 0.02327311159532766 0.1299890622973439 -3.1239839291174323
Ni 6.564115399987884 5.273442320069303 2.571076580681588 1.3291307507854786 -0.8512403204179018 0.6070929922078835
P 3.266259415644362 7.212655108060246 11.018992737617689 1.987533449010932 0.5677610273774802 0.9086443122586674
P 1.413180373676562 2.4014132828266512 3.664000318174617 -0.8393517965104319 -0.2152890092174292 0.19613814732059126
P 4.4387022644299305 5.6709777014084874 4.268041911066965 -0.09900984030701014 -0.19893602178070255 -1.0004715187743092
P 1.6398739505111168 9.069900120117298 11.943602951564701 -0.6526891927804437 -1.031499077504075 0.6563905528914309
P 7.247519648851642 0.08137528241008443 2.885752668487783 -0.46546120346528874 -0.7673151423581559 -0.775309216307226
P 8.875951068184277 3.1573609575112767 12.576301789815458 1.4824610589119243 0.8171590624634766 0.676697639879899
P 0.793296059420348 2.641178748030153 8.502886595149366 0.7281829522433846 -0.15842494904053359 -0.7190773903976906
P 7.009679787600507 0.18331379318072402 10.181667928980717 -1.4859685578445505 -0.5542665924354713 0.7163155113818374
Ni 6.143500544354235 0.2135235567257283 8.03183480253069 0.33852712594418477 1.0512680326008863 -0.08126897138382133
Ni 7.119772490492512 3.9777330451983794 13.298590277721175 -1.9307735185120685 0.09560544261115148 -0.7211705254812933
Ni 3.893719315065101 4.057849278870378 1.7269232841827646 0.6876639090834157 -0.8539839446013099 -2.8405051502976435
Ni 6.3416063086652015 3.191160861502086 9.717065983831338 -0.9194560581621907 0.44184690648045843 1.0862959707392967
Ni 1.4607742675184556 4.624050902556472 12.57333469334078 0.29384289566293265 0.31991028217394585 -0.685343231370039
Ni 2.543009977304722 7.901613983709675 7.057862471881681 0.4051608639133345 0.6764816672143511 -1.5905407227306865
Ni 3.6382527714807686 5.826655374788236 13.101727824039068 -0.21094050244074636 -0.7019404736070879 -1.385794007805478
Ni 1.3122435472696052 9.171133193286158 3.8828128053714352 -0.4646497633075869 1.035537509239507 -0.051184236183298946
Ni 6.3755173051917255 8.916527616853605 13.224690597193474 1.1480584966590743 0.747422260088971 0.7934637757290657
Ni 5.623032014536834 3.7121293077301964 4.9772677683150475 1.1088993099611097 1.2209567274806972 0.3813989856070464
Ni 2.6905501224434607 7.2482139771998515 3.8656184581563897 1.652157209990903 0.4698058535872296 0.32752460418609397
Ni 2.656972403524078 8.60366326315067 9.352500089778506 0.18369349379933525 0.038243359751914785 1.8697108468727928
Ni 3.70447318047728 8.199554906781774 13.170031218080206 -0.04651742683524892 0.17800030006929987 -0.027022294225114752
Ni 7.795381746433711 7.53786924864999 11.122375451352603 1.371129720925084 0.8913508152855424 -0.7932336619961307
Ni 8.967176555427617 0.12906915953412007 13.4083006371361 0.49547780443203693 0.06107141339002385 -0.1851058007658296
Ni 4.700010423850527 0.8382709467327976 0.97175973764605 1.3838579671250295 0.21522653141061 -1.0564230944392643
Ni 1.484474008470653 2.0874380037665814 11.941258899061145 -2.2348404058958544 1.3497985635474754 -0.3423408432633201
Ni 8.05666213272038 6.46921460135469 6.840703411924731 -1.377465947555757 0.20543679901369777 1.6634690354592963
Ni 6.663811693079374 6.247807177677833 4.532814306059559 -0.6590961247480519 1.1240765319221804 2.9150154628013927
Ni 4.858011782768947 1.2056224861186449 9.949590067248586 1.4964702287068228 0.18845286286119156 -0.1908100502394585
Ni 5.573753217236621 0.001645095299689648 4.504576435023468 0.3265990070480311 0.12912645718673244 -0.4245783492079978
Ni 1.2823781705853126 4.089297724188587 5.211879465632577 0.1596796473832411 0.8043637104710212 0.21424462711331488
Ni 8.557004398151031 3.724849403069384 1.4731796006731215 0.05500181015717625 -0.958090482704937 1.0674099324680715
Ni 6.120485874038938 5.994914277837528 10.133214919529307 0.41952793126828397 -1.7952954080756953 -1.056786134205638
P 4.002571484641639 8.519242193719776 2.1559571024812296 -1.6191172488167986 -0.3485274316900062 0.5172553053184445
P 1.9384166248183299 5.393764793958253 1.0810914566684182 1.6625688922425301 -0.7692064458435979 0.01730172450324117
P 8.515039192785284 6.430008193959161 9.306526295415766 -1.5401699835876184 -0.8130897774901094 0.8804683640450837
P 4.257056710827169 2.044102657127036 5.3482835098371755 0.22208726308618523 -0.4999805773983969 0.5607069487441763
P 0.7732512628931223 9.004290720067212 6.127100508769541 2.309905819572125 -0.6064281049303749 -2.3489009698883994
P 6.412353738492035 8.239594508195154 6.231147926176473 -0.22513042078788326 -1.0229619865673416 -0.6438726229300782
P 4.012403174052277 0.3028160338476562 7.804364503717274 -0.8405797553802621 0.33390916755619915 0.6395490558540599
P 3.5792070887490826 2.4598016680553663 0.016804597568917553 -0.5704673705650498 -0.27374175403768336 0.40411648180922016
Ni 0.43891827666356703 9.249092380223056 10.26532338568632 -0.4559900307500599 -0.753023151215516 0.7328955272277055
Ni 5.37673986286017 6.790596049462322 7.615685866832721 1.5387347938029885 0.9478073556113742 2.384016325534294
Ni 1.9247985314821259 7.587953466834127 1.4976773563401937 0.7680003413506387 0.21928630330228044 -0.005973701084931647
Ni 2.762436250761357 1.6714334883650395 9.374098330263456 -1.0448359038222972 1.7184389639372728 -0.3640820915951536
Ni 1.357365632191875 6.44979192302746 10.404260339705186 -0.7895320447748274 -0.5892551926955142 0.8810602319928116
Ni 5.728366253815781 7.456429162260739 11.931760487257648 -2.9755950241566627 -2.603045004299814 -0.8842070051519094
Ni 2.4359630614335264 2.4453411229900017 6.535958996811317 0.5048214504304661 -0.734578057136451 0.5106511697383657
Ni 5.117718358133009 2.281822168131148 3.3364930424935206 -0.6491413275281853 -2.7585430095015395 -1.3271720843972112
Ni 6.916121357107183 1.7852107603582064 6.102535171809909 -0.599959980707528 -0.5442099795304176 -0.035828065442202815
Ni 8.104098645470012 1.40071023654273 11.751117543789702 -0.9377515140372689 -0.5091907831427553 -0.9548483216185556
Ni 2.8886929175996654 1.7648993417452683 2.075988066419051 0.28585396392018514 0.04636264642493951 2.611239624295464
Ni 1.1566862241368805 0.4758093304606029 8.104717986356615 -0.6593365228936322 1.9190449172212303 -1.7642339107842004
Ni 4.002099341364857 6.317897310001695 1.859803843462986 -2.4334761228273187 0.28588738826128185 1.7459950191786702
Ni 7.877923500468787 1.9684671557288118 3.5696272090860615 -1.459131125936732 -0.5875497799686332 0.4469616019992044
Ni 5.8349410264101955 7.472759765010614 2.490022540853942 1.5296202330962303 2.3067878427684336 0.31072218791677453
Ni 9.143147131997685 5.968909366769277 1.2256895011530131 -1.7376456187727107 -1.0698056863937575 1.774692901333995
Ni 0.2570449833625938 1.389925002867218 2.0065598604538146 0.4467906236389789 -0.0503015764680295 0.11484012247104737
Ni 8.210414202147762 9.008928833433247 6.9511599428711985 -0.26249420614832214 0.5160196331391306 1.3448484186310516
Ni 0.4456865894019076 4.838866835780999 8.229510083265769 0.11231324228413561 0.6225232107200246 0.186336330738821
Ni 5.723635563336652 5.745918874458503 0.6796067356846208 0.8905866834260081 0.21812776421780497 -3.624071721517655
Ni 1.2221845316512545 5.691437243402377 3.2226093068202952 0.354051446832029 -1.5808677184172968 -1.1999202185253721
Ni 3.36464111372991 1.0367618318342375 11.779057316521628 2.643052912151319 -1.4223892904310083 0.06208957024189308
Ni 0.20742457651506122 1.8887952921996667 5.5671904256893505 -0.14147418011880794 -0.37173549437535336 -0.04952664597521793
Ni 8.25723044823966 1.326963308251634 8.974467003083811 -0.48047078950024347 0.49465607986169 -0.9137284116497941
P 7.487155506096812 6.727301077239598 13.372516805611676 -0.6752377675049209 0.4678939812764974 -0.8165394266016067
P 6.471973399324907 3.2953749177125893 2.2132725189691786 1.4805646132201598 -1.3400679665232726 -1.5485093566912493
P 5.477167515145107 4.689780652853582 11.949009454969419 0.8642117929769052 0.8058639491656315 -0.17240815069350307
P 2.1764046094504166 4.387201616415448 10.4638244542702 -0.15560136354880943 -0.5045882513737375 0.23763600945406174
P 1.9837331216780982 5.758157568809599 6.832505708560212 -1.3545648745878671 -0.1533454776350972 -0.3387032465107328
P 7.806870566168742 3.737236220801431 5.93149802959665 0.5816280151675596 -0.042899884687319666 -1.652278566060116
P 4.84139419096848 4.863547894131999 8.512209110437984 -0.07706007550879632 -0.8933465055593325 1.854765281306554
P 8.408418131634324 6.469584909807068 3.2315791033080234 0.33820342405617887 0.009430806395596661 0.31143541193371527
