# total energy = -340874.39696434065 ev
CRYSTAL
PRIMVEC
9.18396516979514 0.00000000000000 0.00000000000000
0.00000000000000 9.18396516979514 0.00000000000000
0.00000000000000 0.00000000000000 13.44166135542028
PRIMCOORD
 96 1
Ni 6.3428320754917555 3.5056480823121965 4.055913621262849 -0.6455638945895721 -0.10523448106048326 -0.6547956976004852
Ni 7.797370111771381 1.018318058459413 9.974465792056714 -0.8160051513646914 -2.0938490789507362 1.1047621478642844
Ni 7.190227358103512 7.591888074975107 10.129326731212092 0.20234324769003864 0.8904475867449826 -0.009004003270823202
Ni 5.696951356721236 5.443923932220738 10.25768091008315 0.883332058746124 -2.0741778257740533 -0.22395851196696917
Ni 3.264073062383297 7.3778282147066 6.833996043360122 0.5503202061932135 0.3257700833888325 1.0658148200668096
Ni 0.4134244578625819 7.6637801543548 6.610461086221913 0.642980450133112 -0.012832632988294028 -0.386570759615973
Ni 6.801773183151692 6.807081515022088 13.100121804928134 -1.8403154244298112 0.502405899010438 -0.17358057373504943
Ni 3.8309624966948563 3.9944187088562977 1.5384381501239257 -2.2681503329018935 0.5495290777504859 -0.32754440168043586
Ni 4.854138872731155 6.935721315210048 8.83851032368743 -1.1260735077475512 1.3609358111112173 -0.669955178949743
Ni 7.6500501264201235 3.2010067735355263 13.189603014408489 1.9105489639350772 0.16981005094902368 -0.7104973620381635
Ni 1.7817351635228933 5.863557668937256 7.60111153119905 0.1546657391084175 -1.565893870716284 0.7245782656112618
Ni 7.330172619420292 0.773504772410268 1.7734659212804973 0.2763943611691821 1.139671815257276 -0.834031412738783
Ni 7.431857481823454 1.218308084081817 3.953717211999512 -0.037552247222161134 -0.26640742515979926 0.2195326149851316
Ni 0.6383379281733623 1.5168787918786744 0.01762586596135737 -0.03579335554952545 3.391030016302495 -0.30363159961858033
Ni 0.627279515707715 1.7336846577341156 4.547945473840129 0.24701076580074233 0.11632570587763837 -1.2609255545641511
Ni 1.8677062615138615 3.7875958131446636 3.7039978517545786 -0.3107417283008003 0.20488144073086 -1.3031978329698009
Ni 5.855209444594366 8.780403376033453 0.29876908144460895 -2.190715390552182 1.0743722227185175 -0.18579382797178973
Ni 2.8699707488496538 8.397395292429636 10.287401139781748 -0.16184914423073415 -0.6430478130359377 -1.1022715202319469
Ni 2.657279299392028 1.2642646458109918 8.3227673098247 -0.06430560405660539 0.667913723039682 -0.41505189777480134
Ni 7.915053441507122 0.17909742324876315 12.984147611111219 -0.3518706371306262 -0.20452097206764774 -1.5002327810730485
Ni 2.1483039494657956 2.3524359433815363 11.739892988620674 0.6873754313087194 0.5271815632932212 -0.6750588187248954
Ni 8.179175095937445 7.470503607274367 1.4393872489325792 1.1031050718768358 1.718623569144253 -0.10089882979960688
Ni 7.32117233355007 6.927198595528859 4.885721610566977 0.3277189795850872 -0.5992966360919162 1.0183995640076398
Ni 8.581965440525405 4.431639738880444 4.401565926522658 0.18075600843756612 -0.4589473136061708 -0.7806152019011717
P 4.275429675241048 3.252877808836561 12.332751002857377 -0.18823174798932096 -0.4006169532963939 -1.1493767012498657
P 7.733927280351489 5.643069033047162 9.40029163656938 0.2315067566278723 -1.2614503167193696 -0.38482600901072433
P 1.8399063989330837 3.231818976693276 7.864971442621924 -0.1421645213176132 0.778976380746168 0.5862958529568741
P 4.004548622442885 9.318510263490651 1.5583728649299502 0.39220764618677617 -0.5331809754097655 0.9101584349103486
P 9.083510962626118 2.7154046149763498 11.508508496448508 -0.8133967672075669 -1.0964451433581568 -0.2513680143281735
P 1.444380570797518 4.142464227456277 1.2100709857175291 0.8850595829601917 -0.18741233741181917 0.30435459382753394
P 2.1117517680744853 0.2354180896764539 12.010621587596956 -0.5719292998225569 -0.004690720607449986 0.03997165529693116
P 4.2431296697251595 2.422693276960311 4.816927282640373 0.30057532929075975 0.8209606955977539 -1.3441279955252592
Ni 0.8339582231661219 6.281152565385214 2.909703337380615 -0.5386327425529562 -1.3240479369459326 0.12465505167894016
Ni 7.807683704661442 8.933463339618273 5.913242002130434 -1.072845758771662 1.808877517635504 0.8345680019685433
Ni 7.263331720886132 1.7167494259538205 7.698711365892952 0.6607148912983977 -0.5667302721201207 1.2069365019422054
Ni 2.3522155282173682 2.8669859601682024 5.787575969865717 0.3041026257177279 0.10029976276302727 0.4396815233980234
Ni 5.703958722148767 2.1309003354616416 0.03159926897313584 0.09504211390851373 -0.9042870637312362 0.8503093239632001
Ni 5.716228499620825 5.2751318362933795 1.7851598641361643 1.9182825851339091 -0.29124479591845326 -1.1571866842125877
Ni 7.0454329631750205 6.858879078601735 7.740313809733277 0.9599018248820629 -0.14145669661731122 -1.215629401730513
Ni 6.492071509564315 3.791150007666884 6.995779855463433 0.9619725913681627 1.777585906611074 -1.2083027861621127
Ni 5.874605979041212 4.901353637689126 12.492640162945357 -1.6288324192220336 -1.6575151318687065 0.7479948447629892
Ni 0.8811233947121552 4.350214703650455 12.482988733944318 0.6427953307054994 0.7273008067487474 1.1164889493829093
Ni 4.462461126003367 2.5737878719979577 7.161017756868572 -1.2227127909398554 -0.20784746533771944 0.9063385469436261
Ni 5.265240705801309 1.019319110663346 9.472728325083871 0.877255770645057 -0.23707808006806272 -0.16880577805422542
Ni 9.272957796229118 2.8412524897515063 2.2524464409494387 -2.024083223110508 -0.22944473189252096 -0.13060689838700085
Ni 3.517605604968349 0.4048365320286588 3.7822819708951636 0.15056714355901166 0.5939713672242609 -1.3030060286739689
Ni 3.6130453710533974 0.622483649094011 6.051664562021415 0.03879794670380415 -0.974863845508534 1.1430998671022183
Ni 1.8846782291548518 6.856344304213794 11.854725615566501 -1.8856054066158623 0.38262668736656036 -0.27206899432095083
Ni 4.693364378400433 7.324092834475304 11.373298487575287 0.5004665158958801 -1.3104390879132464 -0.13385600145191787
Ni 0.6384839532196241 6.492493971962305 9.564293376262137 -0.4190648755889363 -0.10471794643538095 0.8763643691790391
Ni 5.782270393184873 8.92730089898672 7.276723778902415 -0.03612065698195714 -0.5045039191900472 -0.26207845876714214
Ni 0.7016200402027146 1.8315030707991518 9.464448062083267 0.19537761500548287 -2.384266493871887 0.2748139040559396
Ni 3.408004164585461 1.7919018129701747 0.28063534220914615 -1.0549593654095444 -0.049065647178399376 0.17615784754392244
Ni 8.868101059477077 4.493704975524281 7.855131742334825 0.44768845286289993 -0.16592408563105618 0.24792376453331494
Ni 6.008985757462732 1.6651355416776488 5.771513214776922 0.4068359376229123 -0.7308661555025027 -1.0487622354598969
Ni 1.227280818056518 8.709677660230822 8.7070381886399 -1.4740494378094613 -0.5843909226246775 -0.8846176103267669
P 5.560771521125672 8.877670751188068 4.567771817857105 1.097545318400871 0.3069259540991359 0.42024192661617304
P 2.7712155713369007 5.595468541551895 9.680093074740753 0.002889405732653088 0.975601752115823 -1.4355507675136308
P 8.200252296011078 8.859422212387935 8.153698776545612 0.14703984713204354 0.13674772117741613 0.26903612103189795
P 0.2268889412196424 0.364535456053446 1.9034465803838168 0.03608620419959591 0.6582337767477567 1.3080495046351475
P 3.1335597332999026 5.463687825274532 3.906294889428615 0.9057973297281756 0.4374791164300659 -1.8106196971375912
P 6.890866829301717 3.180875521874785 1.7480070514224946 -0.47094870894242113 -0.36089855166084944 1.4098309941500236
P 7.657929968539156 6.0627211376940275 2.8946618392191352 -0.16171493264571504 -0.670734994538561 0.6288067297358912
P 4.192581125409136 5.8738161580362735 0.1925675449690231 0.1644493008577426 0.7609994845527732 -0.09907823165110033
Ni 9.063003168393253 8.36908112779913 4.013908919747916 1.1157669836152202 0.43120408205463157 -1.3785926049610324
Ni 1.2763782958750969 3.8157630343323894 10.025355979877197 1.1426488956077288 3.5351838001359956 -0.4933895544444406
Ni 3.645574975698629 2.7952132723357686 9.758794145900223 0.2828180053073387 1.529889941817849 0.9290264754594452
Ni 3.881795743931264 6.831832301165199 2.2659285018244244 -0.23225494764780644 -0.3234406639247075 -0.5693378849462969
Ni 8.012936142328375 5.178709385934745 11.463626458644658 0.019962816275172074 -0.5147183978292038 -0.14982332341445165
Ni 5.960769940300828 8.056734472241729 2.4626738325509616 0.037683887704018974 0.0693652779676999 1.4598615763448537
Ni 8.640081572144553 5.094859783898901 0.942366666472947 -0.4635534449196146 0.4912902487132507 0.25434226646514907
Ni 3.511948282421352 8.09142230870278 13.199281076908528 -0.3776749997882399 0.1782296424712866 1.55062588881362
Ni 4.446931040894648 4.692684764977579 8.078425161188965 -0.9491219606577396 1.1490943941227567 0.6930166887548967
Ni 5.456561068299743 6.107364392403364 3.875567178750463 0.4595384102229505 -1.2376411301149137 0.6306967476697525
Ni 8.059618237306271 3.306227462530561 9.64730907426021 -1.8377458639304223 1.1094335851980246 0.3677615973292699
Ni 2.078386422598448 6.327531589512378 0.808036481463365 -0.6040405785348049 -1.8240105166222005 -0.8430421008778254
Ni 0.24433847504966483 8.587521739455491 11.020119004459115 0.5903252858312414 -0.4011751397927091 0.3760364357435524
Ni 2.1651932614202223 1.6769002010651535 2.339481042107521 -0.38395723325252584 0.05008200425805568 -0.16952311583622418
Ni 4.166048650022329 0.7819466731979293 11.57001718480282 0.8007852490911435 1.1144850315790031 0.36373602110964454
Ni 1.01368934001187 8.570145677346858 0.15963017227007975 -0.3738743950952271 -3.5661265124614387 -1.0667563580444726
Ni 4.327374182263473 4.767368769770075 5.57471369865586 -0.4401399510916807 -1.3171000448731898 0.5368879919477075
Ni 3.3280944836091315 5.185569807919496 11.645277024211707 1.0807827542305515 -2.267276672047689 0.7594401104854535
Ni 6.247383125441533 2.6146014132298627 11.19796557165122 -0.7061689098661387 0.381588218799717 -0.4197629300972255
Ni 3.7620001022055733 7.437808691256008 4.656675355928034 -0.459525554707144 0.40546991051332104 -0.012218396443062829
Ni 0.4189293265876953 1.6142839265108941 7.074736240854732 0.6712672128929471 -0.40766666105432364 -0.44090845382658905
Ni 1.993462296637281 8.217049768313768 2.2040561284492344 0.10917135422104424 1.3278961070474293 1.2581022261827428
Ni 4.873590510969042 2.097709485323904 2.369617305428487 0.7903064610470066 -0.611212670803212 0.9299484730530823
Ni 1.5282393567985362 5.860875951106536 5.216735593736433 0.4827382453781815 0.48340827486201265 0.19734887979924076
P 8.204091193453683 2.505404067314617 5.664490631814807 -2.0698722564201644 0.6977549747708305 0.2476250023459735
P 8.723820966598312 6.770786484655642 12.667314588566466 4.004913291959335 1.2194318061957385 -0.0752667310537994
P 8.796732466112285 5.6227265501874255 6.107635319375988 -0.2354533999804461 1.4306278762907167 0.38483757897495013
P 5.751256142793301 3.1252666127480553 8.924147125346074 0.6130690072856603 -0.018172557143968704 0.885191994772998
P 5.404919632128051 6.466034968296888 6.270198850122546 -0.38076212335399584 0.2179506152099924 0.6455474395293398
P 6.060581273808556 8.872536914655972 11.551091787769385 1.7210159806358296 1.4159293937382775 -0.08225344678427769
P 3.9529439221318867 8.890307887267074 8.360310441058251 -0.37575567127834 -1.4353139689124763 -0.3937145697496058
P 1.6787002582391979 9.191679704441908 5.18706954943236 0.03182665759229357 -1.3116184529333281 0.5468749279570905
