# total energy = -340856.8491841257 ev
CRYSTAL
PRIMVEC
9.34241993749994 0.00000000000000 0.00000000000000
0.00000000000000 9.34241993749994 0.00000000000000
0.00000000000000 0.00000000000000 13.67357592481196
PRIMCOORD
 96 1
Ni 5.630648434570985 2.7148231354236327 9.24683758246165 -1.5511300821435479 -1.0638330137500904 -0.06819851135310835
Ni 6.404780030688804 3.7381170697478936 11.250481149646598 -0.37106263667804484 0.7057770737443586 0.15581425089056392
Ni 6.9206497716368105 6.499007677601071 11.258658569767785 -1.3750097727057802 -2.949150971032521 -2.7815489834784093
Ni 8.06989821078669 6.892463690858076 1.8543834617260397 2.7809404033601335 0.10552630126928923 0.7062146755024095
Ni 8.519109785889066 4.692632108913706 10.853797330320964 -1.630130569208167 2.445011377160428 0.5468656719857098
Ni 8.987968469999622 7.592734115402586 11.139027948959113 1.3830179877222375 -1.6246397212969246 -1.0347368677150826
Ni 6.958953693145862 8.859669017784059 9.206869775971924 0.5923960523173412 0.07966126057706925 0.22883743732582523
Ni 3.6752986384730484 3.845452131752161 5.90523429999757 -1.279293001327745 0.963438891501044 1.7026361925770612
Ni 6.00953027281479 2.41650098380728 13.491088657400336 -0.24454096410401108 -0.6513596753357428 -0.9715977731627525
Ni 8.979065143853738 0.5738291796431301 11.032292670311158 0.1596516223587831 1.0893571261631239 -0.731850630902959
Ni 0.7654179210955033 6.183037694830914 3.284078266293389 1.588188420448426 1.0098123365592608 0.2640551228775388
Ni 2.0530247959460186 5.644465873573885 5.721174614726695 -1.275975506918738 -0.4968939680532732 0.8752533955030474
Ni 2.152400116212308 0.15154526136161764 10.231594969021842 -0.06399141525029624 -0.884765962979173 0.3625265741825756
Ni 3.58940443009397 -0.22087816201896562 12.097449988118848 2.7049301092720897 1.777057802021746 1.0212113224248218
Ni 6.98724254054328 4.715306161963088 -0.012401128149052552 0.19411546046360764 -0.28640752243080997 -0.8339450236725637
Ni 4.936207680031755 2.707508020657392 4.522412284453443 0.8806324004267737 -0.5437785484199539 -0.9359607406854331
Ni 9.286953933427473 5.047868282440581 6.530212294243117 0.6914619426732672 -0.42808379125809504 0.49795866187236176
Ni 0.5664766951973682 7.415648546572324 7.147219335846828 0.6102148256663169 -0.005352779671481104 1.0714252242750515
Ni 2.974850707950813 7.273559682613501 10.990724507295944 -0.24196523295703487 -0.48707749618348367 -1.567863849958461
Ni 5.5306845418522395 4.998484250953545 3.8097865096172936 1.3166030506321131 -1.4540164304179861 -0.7053428144204175
Ni 6.076403314317666 5.9755612341301765 1.7550716699149367 -0.9130097883162147 0.08805179863360965 0.3824888762371154
Ni 7.587250114932876 6.489898818217822 6.241768817408148 -1.5933792206207462 0.4787808033923303 -0.4167629669286371
Ni 8.600416866106938 2.7281547685927587 6.47747339977708 -0.753473094268741 0.9569059754785327 0.679004690746521
Ni 7.4104915307984225 4.440209266169054 7.832306459601946 -2.2624609958266 -0.7498298410891989 -0.31076641089114865
P 0.4999138220345163 6.638732909330189 13.137038036956264 -0.2137895418537673 0.662901357426755 -0.11812136432548043
P 7.554934684567068 2.3228805941872293 8.566604780076315 1.9630753159685677 -0.7462647494457599 -0.9225151567034887
P 2.6101413206653583 7.382342819699209 2.1242719584368315 0.17920846144478814 -0.819471255536421 0.8050098286954523
P 3.6127231101150903 1.7439121493679701 6.0579137311326505 -0.13220946698743036 -0.8517352577764493 2.28670958396132
P 5.628424938639483 4.830236611330005 9.30779406945436 0.07732824156851843 1.033768333154226 0.8480428965265265
P 6.532061159137419 4.062663393968126 5.65952024896893 -0.05162158083103367 0.9505800332605049 0.4198698879887349
P 4.43349206627515 6.554268091192789 0.6902628243687795 -2.4710293984907445 -2.209572118247369 -0.009765821137512213
P 6.925180845278734 8.46465282040705 0.9678513435448785 0.04009738224151804 -0.3495659002568496 -0.5021166499047933
Ni 8.345340776116295 5.124709685955691 4.20575937079004 -1.1661400367511336 -3.1349327148194526 0.21069084832378554
Ni 4.48921960086088 -0.16432475751582057 9.021291947470509 3.1036382755815453 -0.9338776329041595 2.081690589211331
Ni 2.90298881423188 0.34326105972436244 7.768150193800247 -2.2356407903099624 1.6356391577312217 -3.5440649046757096
Ni 1.3665250983050068 0.8965967071181618 5.896756988198225 1.0283924135542934 -0.6280256285954925 0.907381900606476
Ni 9.002738835830307 1.5347447106689063 4.624690294576528 0.331161686718049 -0.38881276157261424 -0.922020219344941
Ni 2.903100923270443 0.8843515973811095 2.1198006762821406 -0.48648948489049765 -0.5396472998603997 -1.4390955474420957
Ni 9.038492276712049 9.414543361732136 2.89017007991418 -0.4171882273915138 -0.9327226933641097 -0.534547516739989
Ni 8.425965859682908 6.347809954258999 8.590533520115615 -1.3060784969517054 0.6408662320035866 1.3180055874065946
Ni 3.0770754662805806 7.54990846267149 6.41118425951672 1.5228944843366223 2.7353807124524634 -0.7566034123676065
Ni 6.015658900256239 1.8712586747557474 6.842080020443852 -0.16974217382556572 0.020788654610577103 -0.5549163102043282
Ni 0.9845696039205976 1.6102314633013792 8.978015055859197 0.47862885119549825 2.4456798639823623 0.4386201720130446
Ni 2.2811480045821235 1.5565686035091855 13.486959307813262 -1.3172715374540476 0.379018915410644 -0.14985494798333546
Ni 2.7004358088080376 1.867063928229512 4.162004147280858 -1.3242428265655581 1.4479992776896289 0.022484554255761277
Ni 0.1182937205238085 3.2125125272846597 2.712864964216731 1.1786962761495894 2.722087337777667 2.6537574430530166
Ni 2.612252707558296 6.122928565321344 12.940262383986372 0.28569224153134026 -0.7524677929326782 1.3280226053229645
Ni 1.4596316548316433 8.661478922444296 12.288333376870261 -1.502385308639677 -0.6771722655234724 1.4188437391715953
Ni 1.354379952460673 7.864327603741525 5.093707799825048 0.5173095555951478 0.3273654529004104 -2.5465349850282273
Ni 6.995136885342096 8.690814120868302 11.521778483275332 0.1415232881891885 -0.18134093440675866 1.5290700170197151
Ni 0.6851300988865665 3.289568806457016 11.120240342579915 2.685024114376782 -2.6329921854812075 0.7663687192844866
Ni 5.41162474289825 8.347153205573065 5.66943349070387 -1.2942478228653644 0.1663434325566619 -1.7789527050516136
Ni 3.5403754105623833 2.1943475814746596 11.333822074672403 0.41440603666068626 0.36439525196019823 0.6857152699974771
Ni 6.643945979623371 8.501714200072028 3.2733587737227827 1.6169822047516669 -0.5695397165444578 0.7460559758690636
Ni 5.04453303854333 7.196764991197793 12.537028594082692 0.3821322642286451 0.0770500482064673 0.48616655433344014
Ni 5.832631552382132 1.0830760791380227 11.258617463120313 -0.9247910972218589 2.0068678876734856 -0.3221623114329162
P 2.5705201179531896 3.583836347845337 12.697295938644515 -0.7627951430006155 1.4335327086423375 -1.813126265609529
P 0.8061116336099249 1.5436013247153895 1.7346575482345878 0.6909387231799455 -1.6540634258746802 -1.2058494395256136
P 1.0092055651448342 6.228581991747165 9.367124041145917 0.7056814287067589 -1.1695022683551473 0.8798857520687362
P 3.3629348297766706 1.7156326443904335 9.312607284176668 0.510843745365146 0.6031026401015678 -0.638027734113527
P 7.493368137556178 4.265076263093764 2.0447875843375964 0.41181307912252946 -0.05265259319870932 0.946519490037886
P 6.843836395381341 0.831643532900678 4.9476465389331405 -0.13585606260108216 -0.2673924147808879 -0.5696543877454512
P 1.0882330949119243 3.7490663858475544 5.0042419843257475 -0.6018124605352345 -0.35347783371674607 -0.521850637998611
P 7.840644569345074 2.2978242240683815 11.917204812885084 0.7408006410073952 -0.3159510404158817 1.0514582942348216
Ni 9.339654523972 0.9298099440344618 13.38554173456115 -0.5662535895940184 -0.09467110372234018 -0.19468058893845824
Ni 4.754506955780645 0.4793689064758441 3.6006629802916668 0.9751242982587723 0.0321902115792994 0.719871861274528
Ni 2.626154228340118 7.6159873984845445 8.662169327273446 -0.38079606191572485 -1.5898688934746426 0.8746522715839389
Ni 7.210190048565722 2.7863019899274755 4.021042913401583 -0.07008724373538898 0.937881868967546 -1.5410991802701073
Ni 4.7301979792522175 5.852558933986718 5.626471438642523 0.7736099742279322 1.5160162691595505 1.5250287570708059
Ni 2.7542201200586747 3.9264789393736264 1.1017086013472064 -0.5236694363749046 0.28954272562568195 -2.9601851173594955
Ni 4.633092867016831 8.457982332612547 1.5259161238820638 0.18071024280129525 1.1433520923223406 -0.5185472846569908
Ni 9.235710760384265 3.837604499052746 13.339270597378214 0.7213361045248802 0.031959069405099794 -0.6523652337821217
Ni 3.3620099302085253 5.007107304503022 10.88981329320134 -0.12251152297337609 -0.6773689549153108 -0.44472217114572443
Ni 5.366145842921162 3.527417474188468 1.9125232091248525 0.7578583678206302 -0.8250389794321855 -0.7534052171452831
Ni 0.17721262574063448 4.012952377785281 8.918070352939518 0.051781246337349526 0.11274004540890906 -0.9097038638714333
Ni 3.1049625896231463 5.218722457210713 3.8500551420271636 0.08821069280897711 1.4322021627563721 -1.560733666671583
Ni 1.1107296419835821 5.383382607600235 1.1850850275685558 -1.1378216494224145 1.228890123395161 -0.35263271210763136
Ni 8.164490212074288 2.3520289442136297 1.1575818776830689 -2.280277712293047 -0.4249295618998295 -0.634942410319984
Ni 1.6289443303215327 3.2345419533623048 7.117601996342438 -0.2769162951109231 -0.6134914395350596 -1.1542551123880893
Ni 2.5850008687675876 3.6665634758850083 9.16453646876852 0.22943316192829522 0.26560575519411034 0.2754461383232998
Ni 8.657349572857223 8.532852485532922 5.548955512412058 -2.053453705852825 1.7408065329991955 -0.31589216215348825
Ni 4.694911659364489 4.548889636636078 12.641466571682091 -0.16429811999185898 0.048421071615864994 1.4664322875838358
Ni 0.9630726957761272 8.238659683503645 1.096637535836203 -0.44137665171225915 -0.08990659245416129 -0.5577506943293298
Ni 6.343288223036955 0.8919423135338179 1.824055164068763 -0.4294138229234282 2.194475628925563 -0.6841204147065315
Ni 4.8608890909571265 7.198044902721388 3.57456025914623 -1.9339760846097662 -0.32098448907473104 0.4124532838096897
Ni 5.597669692393679 6.641890647249715 7.913568696204393 -0.2841431518766655 0.061569950292997194 0.5422667397611177
Ni 7.708589464337648 7.008533915450383 13.21804055428604 0.2929700061396761 0.5890291927276372 0.7467311475592172
Ni 8.99554517252251 0.6209925179246292 7.555470939468195 -2.6145874577217745 -0.42967350434271806 -1.5907901197373313
P 4.206760878201203 1.004179343249256 0.2531879869328449 2.3840968010632424 -0.2201954453801111 -0.1053784628375153
P 0.36370227442236375 8.722952045256383 9.01609569353311 0.20276825104259916 -0.6760144977699455 1.6314127783546999
P 5.125793406661801 7.642192886248665 10.50431421895635 0.23181426056596205 1.0063840276040024 -1.8247170557709218
P 2.8967107080723475 9.042107793205709 4.090545846100752 -1.0976535618439611 -1.1904310480880143 0.33715621373858706
P 3.425613124753312 5.830809780505481 7.4430059547076795 0.7400593919659965 -1.8680000348292733 1.1433693187135212
P 6.638676854810907 8.54759482410397 7.175359638768149 2.348641031358794 -0.2906354444692285 1.5716294876484804
P 3.45467739300079 3.498670848216918 2.8177551149383353 1.9712005161788635 -2.594931374053744 3.663718132264684
P 8.193433028863323 7.130246961650366 3.985464175771602 0.5879547287165358 1.7086973111694765 0.7294469065574727
