# total energy = -381173.92091818654 ev
CRYSTAL
PRIMVEC
9.12992003892536 0.00000000000000 0.00000000000000
0.00000000000000 9.12992003892536 0.00000000000000
0.00000000000000 0.00000000000000 13.36256084342546
PRIMCOORD
 96 1
Ni 2.78092791424067 4.601936063208554 12.616555795477721 -1.2366278583590509 0.8470897885846379 0.5729657115068713
Ni 2.5629602095029633 2.9197939940371227 4.109548533772758 -1.4727787986271539 0.4641707667886393 -1.2901273729390879
Ni 1.4401535455024648 0.7193043815381635 4.40860270801107 2.6669657142131746 -0.11348926487010778 1.5380927893436156
Ni 2.672163179946446 2.8913451640143912 8.2866183022426 0.15125568498560402 -0.3751342356442572 -2.0140878024606925
Ni 6.412883040583034 3.4562863399279293 0.763352592490561 1.0813576528974151 -0.4243109544792241 0.7538659588317855
Ni 8.654588762919804 2.976253417933327 5.843501071690338 -0.1838374755763673 -0.7676936087434972 0.9876537981843506
Ni 2.732868016538597 8.35796679930988 2.895345894860335 -0.48350186301708337 -0.7263757238313168 0.3351888055995711
Ni 6.044216880018881 5.758395611504235 7.381558398921224 -0.44159082460559435 -0.41606774063382534 -1.2146667807069274
Ni 5.642427370506566 8.110628142652041 6.853790604368582 -0.1257732244437834 0.15373062888865782 0.7026619251541447
Ni 8.402073441748845 7.740921171233399 12.552281160253063 0.5315511531158265 -0.5942030236190927 -0.18455507046868216
Ni 2.7314072293744003 5.27381598946107 4.271382752750272 0.6247379589831563 -1.0985477915234565 -0.9348603085324029
Ni 1.2347577402966263 6.416489358894645 3.112327568262209 -0.8738081784160886 0.07474119756763258 -1.5429336623756846
Ni 8.54270159606211 4.051401900701906 9.969365685095196 0.189577463383938 2.770929298981035 -1.2380144542939324
Ni 7.483740461056786 4.877613990851809 4.876692781946387 -0.4228893915413491 -0.6904612693228948 -0.3358207827566152
Ni 6.1000737292098535 8.166439342244134 12.21652014355442 -0.4661098927928811 0.08754940507589438 -0.40385268662487217
Ni 8.498960150414193 1.823847554018292 10.279724526000436 -0.8307069763512404 -0.4158445688794257 -0.5122485961324726
Ni 5.698384648815078 2.8786728353649846 4.287711614270059 0.6141267591262133 0.43021626422006554 1.9029544394172708
Ni 5.2058893863259215 1.930348068208011 12.223228808605992 0.3846617155187182 -1.30259619483006 1.3056228974715256
Ni 1.2336256302443738 5.510910876129978 11.123556448326484 -0.3748838101963479 -2.2436914285285807 0.2703188443990635
Ni 7.215512547950935 3.2620107770095386 11.871472172459395 -1.2042378720641196 0.8951416497865423 -0.34028807449934945
Ni 6.114435093017863 0.44713873403282467 4.983741091322679 -0.38685923739066924 -0.5433879978497546 -0.6885784504778851
Ni 6.0391497745430724 5.457446065920378 2.6313287007552812 2.3679284188334964 -0.8118631041718598 1.239532947820988
Ni 1.8463071566678169 7.479138981489566 12.022416223127822 0.019286101923121624 0.9246448014519818 0.732870587527041
Ni 4.398147123883333 3.9242403780585797 2.771689348419103 -2.043239741434301 -0.16935547991010833 -0.9856606790137218
P 6.15725441676838 2.19221242722983 6.367032583466809 -0.3891927706198523 0.0382310184567406 0.9890169970804646
Ni 4.961463174076703 8.237415338584544 10.176070720796947 -2.6315937624717836 1.1651262507746387 -0.8538026818284392
P 3.9991422399027683 8.587958608392881 4.586177821674782 1.081947206852298 -0.5608298474752857 0.3437099556967048
Ni 7.893591689731511 1.0941752355822423 12.618559812868602 -1.3423675611907266 -0.1435655154301979 -2.164088531993273
P 1.7466266925509417 2.892285545751343 10.180400128754835 -0.42750786414996694 0.27764983084283795 0.713339716582965
P 0.42435684521519884 8.732165691258428 2.80709974227121 -0.9607073515024938 -0.5179255919125919 0.31274641743565496
P 7.353940391598129 3.3231903694300535 2.876906195888284 0.780051873198534 0.1508905883367014 0.2273395126240601
Ni 8.704611593373768 8.668091914268848 4.922500328439664 -1.4988253592025607 -0.784380839591191 0.12844897150373363
Ni 1.7772027938815347 7.324085553929858 5.33856994547398 -1.5302583809008614 1.2406477781517213 -0.8673277128980676
Ni 7.3135952761069705 3.188752300725072 8.17242126568152 -3.590287683088675 -1.7923334972338938 -0.6817043490658711
Ni 7.924989483841965 7.181266218870298 2.9434377472816244 0.1430284119798053 0.8263728677522607 -0.022880504142599307
Ni 8.478052634126628 7.1502062317915644 7.557383306963832 -2.4847642315783336 -0.8718327998572727 -0.8301053382114995
Ni 1.4463527610305247 3.680462390113472 1.670079619163077 1.001262904327353 1.132761718401004 -0.02179087062284634
Ni 1.092495330343416 0.5931361941664907 12.947118235855779 -0.7687683298649147 1.1762169613711615 0.06211579549413818
Ni 1.6034147709410034 0.7701425138281429 10.73113788847249 -0.18177982171639015 -0.39695338840187766 -0.15029229263107022
Ni 1.4834293652417934 5.176637123362882 6.175506952385018 -0.6442053236791486 -1.1231231668699753 0.6710913494367152
Ni 3.098037417828454 0.41382365676936267 0.8240519511308462 2.034431142003735 1.1955771110653282 -0.9389758733626732
Ni 5.665982563529239 0.2521236476125594 0.7667251848559001 -0.6925716307976781 1.1828789467723693 -0.5937499952420743
Ni 3.8346941248933195 7.408026036352513 0.2529590352720844 0.11936706380712345 0.2593317492599405 0.9681774346272938
Ni 5.634995615808715 8.358048968587866 2.7640585614701303 -0.13886142508630922 -0.8544675691059478 1.6435679256599953
Ni 4.8778878884450965 3.536529204841212 8.299459534407868 1.7627478131569774 -0.3900029252259735 0.2906138472026737
Ni 8.868849720228361 9.105186823555844 8.640057582603957 1.2763061507852795 0.6244710784750149 1.4627244997149453
Ni 4.151465821449383 1.8799326512036707 10.069878797895663 -0.6293852279471805 -0.25045141605117516 0.5140766504801468
Ni 8.783932336389649 1.9077423868420662 3.861632866185063 -1.674913272740496 -1.865428160337039 -1.7351539626991084
Ni 2.288715679264577 0.5817922688445252 8.591324809814376 0.48662472491678127 -0.025019661972789167 0.3719578947988046
Ni 3.528914851747836 9.28293723167926 11.93517162273815 1.0735381568529963 -1.2358087048918651 -0.6132860083924728
Ni 6.6975995888047555 0.6676025588373525 9.008637008930236 -1.3384682261363208 1.2673545980189465 0.35321635252524336
Ni 7.269908609977711 5.773542148413001 11.221851903613306 0.04033315240140796 0.04997041838085587 1.2911689268297248
Ni 4.6340368611417775 1.1285128638606419 7.842606565733134 0.28269793478970673 0.03370227734845164 -0.7656449537445846
Ni 3.862859927402988 6.556396249545588 5.808491481316407 1.9322076798554337 1.0438326593687635 -0.04113533658772916
Ni 4.7523606214417144 5.07612583654637 0.41191824251206355 -0.49465299453789646 0.4291091471988158 0.6123516695036616
Ni 0.763880301853627 0.5973642600148625 6.7963588440162095 0.9887100073630068 0.714701372817182 -1.7528220694028327
P 6.235278711176038 2.581010060900569 9.972412339324523 -0.6364025398052782 0.0476908783180598 1.0761856217781722
Ni 8.08070026562556 9.163517881006173 1.1142628850739027 0.2941041197441193 -0.8380595600615696 2.4556521447037256
P 4.055035608772846 7.396312349279611 8.162613905857894 -0.4206533031219788 -0.15430989843089554 0.26784775715075165
Ni 4.053720900325069 3.8873007226439547 5.935796343700221 -0.9467886845388727 -2.518343610195676 1.1505465531882508
P 7.373569719117023 5.398275055850633 0.01838674543734889 0.15362804187252252 -0.5074018095631326 -0.28125194637179946
P 7.252214825451378 5.602940467474372 9.07479514660473 1.7005237742197488 0.26444438789615743 -0.816238607531736
P 4.427983701712051 2.6901673817451712 1.0463006752516268 -1.1855086710857325 -1.7071960440336018 -1.4089077110048058
Ni 1.4449650132245377 5.0141519411053235 8.689352758451754 -1.8544901732682963 0.6372366056707993 -0.1014431323388511
Ni 6.269881107127949 6.97112285538082 0.9565973874662153 0.24221951505968609 0.7253477967874347 -0.7324877502663256
Ni 3.2754500189201488 4.569926564473093 9.863641214086456 0.2498559485590213 -1.083058951859238 2.092471738987235
Ni 2.7274539741112926 2.360741616379253 12.339696456215423 0.3564284317046377 -0.08499064320978267 0.15583070595079612
Ni 5.252132429992526 5.849758718704965 9.761336811025894 -0.1744452357281899 -0.05899936135234355 -1.3604341888844507
Ni 7.509614653702621 0.47481334685853194 6.884925456789481 0.045044184723832106 0.7674969193516589 -0.743099721454217
Ni 0.29666943919276145 2.67772330109017 8.22262486854705 2.4275551293571933 -1.4594810530769833 -0.19785435868074958
Ni 1.6259930625476193 1.2755593517765966 2.142740130938374 -1.6234019922350815 1.6009074106769912 -0.22788175828077528
Ni 3.102273700604625 8.831535738102911 6.629326961710087 0.4337828985254013 -0.45698864721790333 -0.28682532669451893
Ni 3.868949583893733 1.555491822035574 5.260372182590572 0.5393590791960196 -0.7902540105425164 1.9170942212527626
Ni 1.4678445921837693 7.501434245583119 7.897366911558982 2.18069785841518 -0.46006342948848505 0.11547029985587855
Ni 8.616955233602186 4.698238457008225 7.398034252149407 -0.0303277044492639 2.9726791360614477 -0.7452982717674326
Ni 3.4745370495606127 5.178737004911415 7.6047000291961195 -0.3899193643732317 2.3399974967511827 1.5347914928845245
Ni 7.031836821892747 7.75062627595553 9.8530313343145 1.3715842919639993 -1.1734897922479854 -0.052954440709844286
Ni 6.41511987092821 6.943230950464438 4.853789465195738 -0.6160538009455971 0.5906405030788151 0.21049467315257944
Ni 1.3149184359319228 7.962038698293905 0.9534950407262525 -0.18769567298019285 -1.11613028049191 0.807588645166222
Ni 0.30125357191240637 3.2415780165503367 11.820868679107665 3.2843878562612083 0.07985357909353344 1.5703336516551922
Ni 8.355236953296787 5.0494938605591075 2.0204594634074198 -0.18466305680145617 -0.6195340461847136 -0.556011600151036
Ni 3.977823877225272 1.167871948015968 2.9668888592188485 0.8611480664499169 1.3614196927261715 -1.0206891313727648
Ni 4.806181498522588 4.053145715379166 11.565764112688168 0.9919714517230981 0.17065028746213193 -0.5316689096406134
Ni 0.28293347488942394 3.9843791596246048 3.79003603529987 1.5105755577599531 1.7438692310849193 0.2775768115130574
Ni 4.226148565218942 6.379850990832635 11.672437182361657 0.446258919505225 0.14532492132346583 1.4057997615034437
Ni 8.733754297299491 2.7559028041340246 0.5515046729788611 0.17323553169080486 -0.053900606673197494 1.6470142323373829
Ni 2.833762759985711 6.845440379741243 10.027505927222204 -0.3814768900328333 1.2912882260164085 -2.4870833666298138
Ni 0.197158791583724 7.095682350887921 10.026797445447569 0.24112011134792025 -0.06108375468519803 -0.8116221918056472
P 5.026404293445023 5.018306054603507 4.671951591988504 1.9391787118566282 2.8303441506042417 -1.9905604087627136
Ni 4.16747970073689 6.5718897234058495 2.616148383143344 -1.9887454670411622 -0.8336238928877193 -0.22017179123102723
P 8.66687763493861 8.977212738052431 10.779416904249194 -0.32980234447667717 -0.8083987997723432 1.7017864429822565
Ni 0.4794193913856399 5.83226579241371 13.585849249384761 0.40688273170044764 -0.6069891196401676 -1.0502041101127462
P 2.4985942750805443 5.834192205486494 1.1427646686313364 0.22219010721263668 0.011129791364574381 0.45574140507436356
P 1.7103717811195338 2.7540403004996734 6.111861368632944 -0.1472599335626496 -0.3946257687099655 0.49721329906590506
P 8.767251972958478 6.51847056279513 5.438615606381904 0.07949696708506308 -0.24450959664544342 0.26478942994040205
Ni 6.455008490430558 1.3342282162586483 2.8196606858993465 1.2776582939377996 0.49921567420791446 -1.5604783561276674
