# total energy = -340876.2506678924 ev
CRYSTAL
PRIMVEC
9.21998821025508 0.00000000000000 0.00000000000000

0.00000000000000 9.21998821025508 0.00000000000000

0.00000000000000 0.00000000000000 13.49438471639786

PRIMCOORD
 96 1
Ni 1.5281946345017487 6.6004882635013535 7.65163977706901 0.6027547698438458 -0.36140711586615176 0.471158253850066
Ni -0.0893103394705495 4.181117211866153 4.881485969413886 1.6597800166434833 0.5468697857507678 0.5021693575195997
Ni 4.383062617418507 1.640097633505946 3.042903191995716 0.7748729001007558 -1.5154917641146481 0.9784294513726054
Ni 7.406619507790222 5.9806929844324594 13.575351389296992 -0.914299967882548 -1.1607309499204201 -0.384871260426363
Ni 7.527419795583993 3.9203667204071664 9.361931948131078 0.8017789804629804 1.9631555343871994 -1.933342564790825
Ni 0.98521107865144 8.986768776830049 6.591534732782645 -0.9689418235971442 -0.05455366687616411 0.5947974626699821
Ni 4.050672816223787 2.4917940603834894 7.608026466021012 0.38164735417242657 -1.6110889791956833 -0.5169580857930001
Ni 2.713802160657204 0.7378931882676141 5.450543652411255 1.6076781537419216 0.4851478832609387 0.13765377793145325
Ni 7.361229504980824 8.087847569454896 11.87465353814625 0.441612164761833 -0.2805916870799813 1.8606528504355824
Ni 4.723621328320546 5.32115033544455 1.9808407441756444 -0.10744408711729238 0.8263903512537574 1.1307071498648205
Ni 3.1010047927887254 7.106951445366688 2.188897158028237 -0.6157226428584235 -0.08215060265782625 -0.4217239104783382
Ni 7.173473661549871 1.2927530111540362 12.745230657234455 -1.1198599227376713 0.22628381766603609 -1.239791086578381
Ni 5.200986226849205 0.4652516777911024 0.9567812444725289 -0.6594925888555223 0.8420738234272853 -0.7376294423682652
Ni 5.056914688376798 2.557329737809693 13.000584689492884 -2.0684974875598248 -0.7904545565890967 -0.010889650329310276
Ni 2.799197693060341 0.2914631947615219 1.8761920320311736 -0.7357741343270813 0.10667121350700984 -0.312146836178443
Ni 4.892863435078481 8.700635657352727 12.111858023272788 0.20010715927066827 1.1003532201633113 0.08680147116627632
Ni 2.6261938310421518 1.759994362438185 9.608474437491894 0.4013183502387927 0.8133728559481669 0.4656550646436497
Ni 6.234417844743617 5.223510658468818 11.133461438035207 -0.43658540097120296 1.311052296017213 1.0291370050298019
Ni 2.2287201318519934 0.6523224760852003 11.815305394923863 1.2367787821146186 0.8125156501541941 -1.3569086922296953
Ni 3.085976211724472 8.927115451992185 7.737585742778611 0.14429725138989985 0.16458916886971653 -0.6380202779143592
Ni 1.227374073530343 5.252857881491836 1.2513285253481568 0.09154387094726814 -0.32603233591128367 -1.1784224536629124
Ni 0.7090051206660691 7.942549772527554 11.139506984417926 -0.4307361412792775 -0.09362286496348392 0.07379631715586
Ni 3.6694908365063497 6.8238148221138335 11.227989368931683 0.42337687270072893 -0.03676600387543991 0.19389306004015638
Ni 9.327493447522981 1.5457218324177888 4.99054736799845 -0.3600043219813542 0.3394933465121959 1.053161135858541
P 3.1358102489344652 1.454480827379844 0.07574681456035136 0.693843041310934 -0.007603266268554647 0.7916290365131721
P -0.2621168937373429 5.527005016071287 8.554738561180491 0.20543551346211716 -1.2206746774639041 -0.07183585099537951
P 3.8651758699466634 3.612953867741932 3.308364175519565 0.9025777943496134 1.5143774480045467 1.5805890108346135
P 0.8175372919174501 3.155264424422548 1.9092530663748541 -0.28979006574979765 0.4436870450129907 -0.0844298856103062
P 1.7591645634837172 5.122653205547428 5.604285114699728 0.6241018680610542 0.6633075917262383 0.8887820261171017
P -0.24500275130086013 0.24815506532900014 12.520603158261137 1.5590961310681601 -1.1396988118404694 0.4846208071128751
P 6.641867571364157 6.323160232929775 2.3685753696368637 0.41779603617884176 1.2095824242054845 -1.0243534675982295
P 3.3995941165714503 8.547759029974577 3.7560941873876574 1.0477453641596084 0.5724144669890916 1.2941940868092938
Ni 6.021316253247858 1.4125298802372965 8.585505662414487 0.0009453946324048236 0.6190918164409726 2.106228683562011
Ni 2.529596012753697 7.2782496095340266 5.565597121445917 1.039038837524546 -0.3609075505219139 -0.5022115236114447
Ni 8.191710738589135 8.290807173729378 3.101104368663261 0.3714256764444184 0.7845147940658941 -0.4834974921417092
Ni 0.7867517507066882 3.414622697635704 9.23542172153173 -1.2140209195928124 0.5311819427018658 2.2594003546234056
Ni 7.254867718994796 6.755208888556099 4.519566389426166 -1.9887385250626264 0.3229876355476889 0.9456152330560617
Ni 2.3285265060977243 3.987211636183753 7.813424757222792 0.016176609759862463 2.279442875096577 -0.33064849452705636
Ni 2.2384933195379495 5.128563218100916 3.336581027966829 0.03500017022426876 -0.6546414314108081 1.4793381970122266
Ni 5.806250804226527 3.2461181899484077 1.8177345396865816 -0.2807516096966133 -1.1093505385659153 -0.49398913570165254
Ni 3.316909260752909 3.58752513978168 1.2214133510407479 -1.2766889880459948 -1.1467122670438252 -0.9981816942988679
Ni 6.508574199311451 0.8754019390090166 4.669381058662328 0.4512381178873712 0.17186590503678786 1.1938156482895312
Ni 5.279697267674683 3.228766171811644 5.287423617939618 -0.6991053181511379 -0.5865923011513705 -0.6322761763417305
Ni 7.988963194047462 2.7236491082502234 3.4505548363618437 -0.1931726369343641 -0.9610742479236093 -1.548191054119882
Ni 1.6885486724584926 5.551456425262943 10.444640715937151 -1.0201386581859335 0.37204222698249473 -0.9562986809118369
Ni 6.046615901370748 3.003752355325079 10.800932415015904 -0.6885787075882012 -2.6547090083330085 -0.5308186458251761
Ni 4.117342552221097 8.935229041769205 9.776033896369936 0.3462008404393586 -1.5059077199706388 0.028786328104073007
Ni 5.993942107738798 3.7786647189491855 7.624152225702839 1.4755478767318586 -0.16143905327650906 -1.413404570433895
Ni 7.634187261058871 8.756112327453101 9.52704903208647 0.09998043175039556 1.0049987172207016 0.6137840310748138
Ni 3.9220447582928686 6.713672840890784 8.71505203118835 0.09438956792617938 -1.3954847527306806 -0.9520242219061992
Ni 7.9646132047280185 0.8277115490980655 7.2826088200414985 -0.25350742926867953 -0.14087177064811868 0.3814257250799237
Ni 8.543720675062833 3.7142077801637905 11.36677969805832 0.6447138878844509 1.1907555213069687 1.4724751513438061
Ni 0.37540381299782527 1.0484786389354313 2.1809762660084213 -0.982461969570766 -0.5571968787083889 -0.4052832484238117
Ni 7.968494819837252 3.882527888083427 1.224955670577488 0.6943495486337073 0.08146154701060164 -0.5614664526180201
Ni 8.73681489176753 5.416614095161898 2.9485504408785164 -0.4350427390744314 0.125260546473423 -0.24993025344038247
Ni 1.155725543806225 8.921638778892696 4.085127912810973 0.1604484072284656 -1.4929807274963254 -1.133487797933751
P 7.4097635238288175 3.1737136211768857 5.529215969285525 -0.050330115713119766 -0.3310950951461717 1.0903336311437801
P 1.906841117413867 1.9042779606433995 7.411817737240545 -0.811547372703654 -1.4526074658856016 -0.20016423776084882
P 5.325142590414379 0.8740816366725742 6.710042009465568 -0.4347295787093868 -0.33502116967345524 -1.2442889744487347
P 7.9446242699137235 1.9185412826718655 9.548788842694691 0.30235658956089867 -1.6315163938120998 -0.8367614100754364
P 5.821924784477587 6.334058259198454 6.243703295044113 -0.8909180986234978 1.0597259335602522 0.6337211363183731
P 6.965065044141048 3.387598911685197 12.783446587083057 0.5925945414813923 2.1998602902762436 1.160260438041905
P 2.2237044581716536 7.5719431194853914 9.611132560142707 -0.6456032324679397 1.32398700180101 -0.3315764056579644
P 0.8573547337481764 7.03783841244789 2.8461550938948452 0.6180440919027486 0.496781353734809 -0.4740977960943641
Ni 6.585395142518419 4.627429189520942 3.651931368630969 -0.4624023620343069 -0.7247029641145842 0.6419970031739201
Ni 7.445564738719919 8.90016542594874 0.7795232798144339 0.34684952976695105 -0.2715270057745517 1.372771627403881
Ni 8.556259859263681 7.534703586406545 7.8301839301065295 -0.5792703135686604 0.3064598130959948 -0.7624128199605321
Ni 5.644015888639654 8.387801451518301 2.9903962801534982 -0.35189043462496816 -0.6154881582501142 -0.07196440615344381
Ni 1.8247647808286018 8.38637235331894 13.372301429136357 -0.23008365102810052 -0.416906691595353 1.3454374583653022
Ni 9.365664199428508 2.2365294620123755 13.401705816087349 0.4681248663403809 0.3117251752599922 -0.013689581671950618
Ni 2.0470955806957205 2.099151635106011 3.4859365417815193 -0.31191929354866926 1.0843097935472035 -0.2888814378925993
Ni 5.496606714372611 7.329512744943381 0.4650018161059237 0.4709116850568987 -0.24600854978847309 1.0751525525279677
Ni 4.024939828646897 4.182251270437258 11.173809951196793 -0.21453541888085634 -0.6310867840193196 -2.0563803925813167
Ni 2.5354875853304195 5.070504951253307 12.625211302456721 -1.1361470899334691 0.40825698634015495 1.4670539803282345
Ni 0.8160750017599099 9.50414842494083 8.946399057695182 -0.07432699284834941 -0.49238373888774556 0.08705369638639847
Ni 8.298976083436695 6.1346575704398 10.567952528566446 0.3332507080365938 0.24859533667904282 -0.3190746736465279
Ni 4.615526184518519 5.997823722848032 4.379750797591342 -0.3627461463925495 0.18221408104033135 -0.23966563828958076
Ni 4.110943880283311 4.984454799674979 6.604664918238843 -0.11653293679243801 1.3162297264530944 0.04210207137637265
Ni 4.825308580196404 8.33150420245184 5.474347818418427 0.1360751205904237 -0.28459592314336796 0.2638239807033392
Ni 0.362552071190793 1.7047020921054692 10.909535580177833 -0.09775488485398648 -1.0504473364718039 0.4095798189166365
Ni 6.2291163514234045 5.938161178021784 8.749556915712803 0.559148860228437 0.36467858752857196 -0.6153554893269918
Ni 0.11791996342292857 6.8417108195651934 5.442204172918852 1.3186087682082324 -0.2992427265222653 -0.5901928740184351
Ni 9.105328607446756 7.207025199275526 0.8055946409649793 1.1692366733985864 1.0179534776091566 0.5164592917797105
Ni 9.149547671731517 2.963212066405127 7.224610483118379 -0.8742095276195654 0.13258690493150715 -1.5653896773863558
Ni 2.8321960314830172 3.1556424439462494 5.580846060232523 -0.8147432539331324 0.4092340055414436 -1.2628464257359477
Ni 5.670818394868969 8.288631256470996 8.006555853881022 0.5362153913607152 -0.615725728182217 -0.7742722904022794
Ni 4.8490223903174225 5.0216205728467616 13.224929134822844 0.762962264706099 0.13505850640045128 -0.18336362126374228
Ni 7.737497230890134 5.481900832901761 6.527881776984244 0.16008845278588557 -1.3290644163239176 1.0832726105319408
P 3.48561660818463 7.003429415802618 13.486814606851775 -0.047264846524234724 -0.6905975377904429 -0.7283904402685004
P 4.404729590118505 4.396108900980421 8.84960393165533 -0.6325775096322331 0.4177222455181128 1.0373686489109748
P 4.449464973752711 1.3562971710895169 10.888740818378865 0.7185012061792464 2.117605043719753 1.2306076203069
P 1.789046545832947 3.477742738105567 11.247650994158382 -0.15583610526743483 -1.169620539100566 -0.45707683605633537
P 0.27977132749306816 5.938686717359614 12.465897279189578 0.25154002112966356 0.37451717088554853 0.06563614994257083
P 6.103438689775039 7.415774956254519 10.393982411765721 -1.8118970211881185 -0.2656396937558393 -1.119079078707589
P 6.589636337174589 1.2527474815602968 2.527403499516225 0.3923454573162211 -0.6851761096645554 -0.9094950902947369
P 8.236990101537938 8.745564660742977 5.632448491214371 0.062170817101789705 -0.3852538405767623 -1.4738758883460745
