# total energy = -381169.9725069311 ev
CRYSTAL
PRIMVEC
9.22075071746433 0.00000000000000 0.00000000000000
0.00000000000000 9.22075071746433 0.00000000000000
0.00000000000000 0.00000000000000 13.49550072277322
PRIMCOORD
 96 1
Ni 4.10895102823889 8.277495769721142 9.108423739537908 -0.8706814598616489 -0.19561544204790182 0.15796549290561182
Ni 1.628550587284 1.011940531271274 6.639220056434082 1.8113974558438803 1.2073771890240497 -2.8310818001012144
Ni 0.04365380111528067 5.785006924300518 13.109192307521845 0.940493081338148 0.5742150105329402 1.547708715166825
Ni 7.747523889421653 7.243379332469629 9.211529254332273 1.7050216620901022 -0.3175420390520854 -1.6961660114716854
Ni 7.970057492301949 0.3224247639013907 8.413607884534994 -0.7835352037614441 0.32515661817454966 0.03654797432736287
Ni 2.9456057667407793 2.5570248811610403 10.404841956344221 2.442212474259052 -0.5159661541933759 1.8753937561901832
Ni 0.4223408209499895 3.2004949846250925 0.8712964173766378 -0.057596567467545975 0.7115836531238068 -0.5533795618448276
Ni 5.121085195279637 2.7996873833157077 13.42514871464771 -0.24736686358858045 -0.15511491083069415 -0.7753236144849293
Ni 6.21214899025837 1.2221828731654325 6.898630208498068 -0.3068375081503877 -0.413183734217811 -0.4253910749172803
Ni 4.971662926502179 3.3233061662262635 2.24096888992516 0.9524633663261468 -0.5884568651639349 1.131844091682741
Ni 3.8753064204911554 0.0651704234042162 7.026378180145733 -0.08974332740341963 0.4906122488096196 0.6595571235448705
Ni 5.609416164391282 5.501358184273848 1.1807669483002161 -3.2510018246015946 -0.0773899480443893 -1.0979736641875413
Ni 4.737806241483116 3.378925735819946 8.426429338699453 -0.4875045564185733 1.4621550003647206 -0.4529797831688263
Ni 3.3062016732560577 6.878348244758302 6.591850292695086 -0.11892483406338229 0.5257625714585074 -0.958106680654853
Ni 3.0894310397053464 2.934052165828829 3.6774567678433345 1.2366808230841735 -1.9659531517369948 0.8380312779267954
Ni 0.7731147835774708 2.4795797941223565 4.58293727513288 -0.44538551576133617 -0.5360829795479091 -0.2981638916357897
Ni 7.4830082075692035 2.555733976031213 12.504809889313856 -0.2029513135876827 -0.04021462454567268 -1.4494205835171876
Ni 6.47891453533709 4.352544826237217 3.969148768903919 -0.3979152380945147 0.009513595917390066 0.34229816295084275
Ni 6.638166124603088 5.0071443760705625 8.455255250248486 0.5132022182949936 1.8026341078289534 -0.6180502625503356
Ni 3.4533925203091016 4.793121526296197 9.99818286649635 -0.5890659595028436 -0.5122547667800597 0.7883413669008359
Ni 2.1615007701330184 4.06874855419571 12.488034577151756 -1.5486805921617908 0.08457618138018337 -2.6319984541093704
Ni 6.211060941648944 7.819464188156719 1.395259134296783 1.6481511741553037 -0.5783169485164557 -0.9609490351996547
Ni 3.6974012520991595 7.40047326601863 4.010012370788588 0.36578801854266685 0.6853825692484067 0.9736757387377037
Ni 2.3461002036982594 6.271844131761935 1.201620598597476 -0.08695882267974701 0.2658291840588261 -0.7295338098443243
P 6.488697752070993 1.7227589995085788 1.1409323822190374 0.43228805914742974 -0.8465089763805035 0.8878862537757096
Ni 0.7048471099367628 6.020670876501337 6.241655393225842 -0.7307358005722254 1.3048094004312947 0.5602228100189063
P 6.76889793125084 0.5461653630780744 4.100567521495757 0.4681302656570196 -0.6836457890629581 1.161342358252174
Ni 0.5390847484409741 8.379449612724683 12.533150789364113 0.3165709333880677 -1.1862270373089958 -0.5345963677000536
P 7.650641459428147 8.484501628039807 13.03064810697262 -0.21022393598969602 -0.7116777554995098 -0.06185302875105477
P 5.837288582058505 6.436812586602881 3.5949716183477696 -2.0238245701324824 0.0807506369865061 -0.5911619227999239
P 0.8884931178561171 7.607571331846567 9.889259979941931 -1.4881673652680822 2.5785339065323267 1.1364939317499265
Ni 8.103776822250156 4.691960667872407 10.338403679687495 -1.040352414129647 0.10286649504893898 -0.39020604237571505
Ni 5.662684442498495 7.092767586822543 12.641452197306029 -1.2008365596920545 0.10998690814380413 0.16749220144912447
Ni 4.257746285953289 4.5557517351738195 4.960932738648038 -0.4427784171557923 -0.028622805943015223 0.08060691231979021
Ni 5.947080063350279 7.882045424700539 7.767862099742076 0.4276762714070312 0.20675217539101168 -0.7953581645383012
Ni 0.9239561259226463 5.6365436136195015 10.712445285205014 1.113003047716838 1.2034277174579984 0.947089246498427
Ni 1.733095461298121 4.175054591636951 2.463968140727286 -0.0571283695818758 0.28880893278345104 0.6428207846267961
Ni 5.255920236090053 1.5651302624057921 11.442781316930207 -0.7960125102928485 -0.05538053365283366 0.6185606265278508
Ni 7.587783600356508 6.904046477592785 4.703182321750974 1.1783334934935321 0.09212725425456392 -0.30904788553814516
Ni 5.27810536282122 8.518848925244129 5.369994756187574 1.7675262083822267 0.36978582684815026 -0.4274613271827477
Ni 0.8786979141460094 1.9137391927155352 11.906014324092741 1.6438684876195495 -0.7226774490441231 1.6311466691775072
Ni 5.606502407098245 6.0992224536513024 5.943296789244794 0.39396782341099246 1.102328084501495 0.2972933161053783
Ni 7.096603419208315 3.74213111484766 0.9567441941451558 1.173973159642307 -0.27667178320028485 2.263065976400451
Ni 3.7599732678920526 8.973966749515514 11.497019618034976 -0.5539156368539557 1.5115996281490935 0.8260473660920418
Ni 4.13136667374324 7.9425888752894185 1.8227027188099594 -2.587661836975524 -1.9809534818005692 -0.8184487278091775
Ni 7.041223589138743 5.147484205184597 12.75936162771423 -0.8152944984509121 -0.8706758034346941 -1.1973935954487764
Ni 0.21484995113254765 8.438121250875314 3.5662268494068963 -0.007471111566064554 0.2809462422059226 2.4868956760990395
Ni 5.883798049735982 3.8893957279081226 6.440255614999147 -0.7432239057369071 -1.2401317577472513 -0.09368894231472898
Ni 2.396178101984614 9.058991293816469 0.21136542935710786 0.8225792050377834 0.26869030765670504 -0.4188419609448529
Ni 2.5660981000735377 4.743237263779316 7.485603848955247 -0.7283341331092682 -2.9816096057818586 -1.1692364162882702
Ni 8.067696023871497 4.203685023266326 5.9141472293382105 0.7485026376373431 -0.04837659153117475 1.3059283445270864
Ni 3.2307943721723142 0.4566558455260656 4.76999864919572 -0.2396088169097164 0.801702104478458 0.02358832884290131
Ni 0.31659356101494424 2.125641269776614 7.939956350899665 -1.0593117288409692 1.0366423122679116 0.14283455080144433
Ni 3.7332238694518547 5.421921415034859 2.9699006012841207 0.6824173159724957 -0.6614425134930415 -1.126071707975338
Ni 8.83449367098865 4.793084643292487 3.929093826875577 1.3766179977331647 -0.2518395546479534 -0.9856185129218767
Ni 7.62472192857141 9.231446998410409 2.2775955567587185 0.8787860912466544 1.4977971750483625 -0.4409411068367374
P 3.430128565719436 7.089162273209956 12.972820167531841 0.2737222136536576 0.7786915025158976 0.5568556933188861
Ni 4.965835411916102 0.5516028398999236 2.8285354246669674 0.1744938295779382 1.127695616732006 0.4980568780131229
P 3.060284246024041 1.9613735920061461 12.654663689234715 0.5773646119055152 -0.825967661894042 -0.05985528159473563
Ni 1.5435168222321194 6.44445658912164 4.153442995613465 -0.11260506249294155 1.112279282176936 -1.5244548868452068
P 2.482484330664467 2.4668551578426348 8.162834809864643 1.0167152343266812 0.19737767615464719 -0.21740965510485785
P 7.612928588135349 6.579291629932056 6.8553636789217345 0.6266786276492948 -0.34120827232077366 1.1537046392012582
P 9.16422772415014 3.952659300020566 12.015273768056007 0.2555720251071921 -0.604676412346591 0.5153249210649512
Ni 1.2143083518734887 3.6595500695424508 9.652157590596445 1.8333832160863521 1.9102250049367553 -1.3867044354348892
Ni 0.9113910086339674 8.579346272078372 7.789346449402765 -1.1227516424631696 -2.369944163711944 0.8897683012897708
Ni 5.614321603884624 6.6076085560299 9.905549358530159 0.17304578427750197 -0.8830415240888986 1.6241622674398737
Ni 8.459338198759111 9.159064103630831 10.847184430205784 1.0611598377933014 -0.12809595903968907 -0.5778868029575726
Ni 8.798219236840515 1.168370570753507 0.32037775719552236 -0.6797284562864229 -2.4023477768536305 0.24689506615848447
Ni 2.0582006974940876 6.50770171973223 8.647295829812085 0.6426752601878672 0.2908133648079895 0.10666607130068728
Ni 3.3972012641579235 4.119619437061815 0.6626658627445774 0.8141462437790816 1.6458839753876815 2.263409475782799
Ni 6.132463260744344 3.4810178900873963 10.562280745977905 -0.13875626696701263 0.6669253909844837 -1.1252723520024943
Ni 2.3223383285585175 9.378979013247765 2.650111127997762 0.2561106712194815 -0.6830683192929333 0.3444674026880197
Ni 8.154463290097716 9.097229747912126 5.778153140136229 -0.17499082381901476 -0.1778907710746291 0.2566341478231193
Ni 6.086064442077995 8.64065504499422 10.855915559258877 -0.11795707083347427 0.8178789713486366 -0.3754232276395857
Ni 4.4404554655784265 5.681319580122639 8.280650188613384 0.6424867983261451 1.547844983634373 -1.5064967597048893
Ni 7.659299744548915 6.841852512587912 11.39110730665833 1.2094440988554074 0.7122961058097991 0.9623824252120717
Ni 0.5971819338088319 8.089051283019202 1.4134645849277128 -0.7320660893478748 -0.923553625270332 -0.8333220453765843
Ni 7.457586597262541 5.826315888454977 2.188241869897382 2.1018606364013026 0.6519636274683288 0.4683747775676579
Ni 7.912483123511671 2.4397184878634883 3.21170004115199 -0.04292970948399059 -0.2814398940128895 -0.37860111114693507
Ni 3.0161906150895264 1.9919588228321152 1.4006984552688178 -0.4826729393578848 -0.013059661397435574 -0.18543901573553223
Ni 4.687590031932851 1.371208649653016 9.077074108460064 0.3658075589266926 -2.3912611800221657 0.4320849419976881
Ni 3.7717481668262596 2.641201116376679 6.236473331204679 -1.4773931574707138 -0.5752035996984546 0.93207117582304
Ni 1.9448868893480717 4.414830998751364 5.096805113937779 0.1774757950243976 -0.507556589973442 0.5613247848338332
Ni 7.221341737753299 2.9407187687492917 8.110188932445025 1.2789525872691907 -1.497526437885479 1.1588334757873915
Ni 4.790392184021705 0.46218276363191 0.42335418147690357 0.4480208965016543 -0.005492390573138928 -1.0803536371129328
Ni 9.276813092972896 4.976236418962136 8.178165230356429 -1.2014322842945242 0.2986284899770341 -0.19500763326057385
Ni 3.338114692215563 6.9176009814559665 10.85475558879222 -0.9200407270210671 -1.580570241781536 0.10081424050560056
Ni 1.9837707960086421 0.721988485910678 9.541022645894557 -0.6122830210492551 -1.4785547818789828 -0.33532713094964833
P 0.6131808587428503 1.3453075602981328 2.272048353000834 -0.5656208411060258 0.5471752328063285 0.4625769399389582
Ni 4.635308374174864 4.588457738713076 12.102617331215185 -0.024883650615557144 1.6540698536325835 -0.38747630214937784
P 7.024432601700066 1.3479907988179871 10.17143801019569 -1.4435857220029655 0.9273717134648416 -0.7979845464175548
Ni 5.4668541343037615 2.045282425444892 4.781280237955313 -0.37262972405484857 0.8555844563192103 -0.8322362685115733
P 8.343479463357149 2.0247754753824996 6.0535557626085845 0.24774275887076044 0.3691211966809578 0.850940786899612
P 1.7760733813704281 8.241931333394414 5.691984300645195 -0.22095803457774849 -0.7378868097947099 -0.8801261502143165
P 0.41253086403839806 5.759631417748492 2.0991039486077443 -0.758651553145887 1.3257255817586717 -0.5335532711475198
Ni 8.945695927172306 2.3364921812319763 10.13298932297889 -3.805539154199949 -1.569025217256414 0.13534698417514757
