# total energy = -340863.05028203916 ev
CRYSTAL
PRIMVEC
9.35783698183378 0.00000000000000 0.00000000000000
0.00000000000000 9.35783698183378 0.00000000000000
0.00000000000000 0.00000000000000 13.69614032757378
PRIMCOORD
 96 1
Ni 6.7675783092482185 5.564179195846925 2.4614564165214454 -0.4624183028739069 -0.9549020576746263 0.24941757547002208
Ni 0.7099809593740093 0.8111157819846602 0.44880373068437096 1.5132654458872905 -0.7997922890502549 0.35212826166738714
Ni 6.09428194220345 3.5199597186971037 4.259882948892977 1.1974262484589246 1.6423708200281006 -0.2491743491109644
Ni 4.555778688373064 8.298997680523318 8.066259854044738 0.7381686027011868 -1.4044195933264652 -0.10959661468392091
Ni 1.191888973978569 5.431803234648658 9.171018008376972 0.9585352835518397 0.07065879996814284 0.9527184197597464
Ni 2.647594086660767 8.060419628017321 4.165434300768129 -0.5398648151878445 -1.0081416337250573 0.21041034096888925
Ni 0.25733957976503713 8.720455940133634 4.750588265994532 1.3112263597012321 0.16083792935740043 2.5138498360903805
Ni 3.936215020974871 9.344342928193045 11.76765492982432 1.2209184180435941 -0.31410987344208485 0.5780418404781981
Ni 8.179245441342331 6.485420810163661 12.071462720427913 1.1953698801505284 0.3312817572356811 0.1094804008210308
Ni 7.392092272381876 2.484664787889169 10.129829466396439 -0.09719849812988422 -0.574870384728752 1.8790637488426025
Ni 6.162846813382561 5.585206255426488 10.676429143475175 -0.5544781942256451 0.19844982617290338 -0.14064037136360294
Ni 5.341771485554318 7.83846109389731 10.12132412841163 0.038093464437611815 0.42371831520054776 0.6845029948569308
Ni 6.0003292594358415 0.6093056065565745 7.785173827288557 1.7227334775475687 0.6892171125031484 0.21962491758862177
Ni 6.8432364208195455 8.246051039178782 5.282368872512436 -0.8714209091308347 -0.091577552398681 -0.16912845150096678
Ni 5.59792355581306 8.820949750914645 14.167835294350686 -1.5261325316579457 0.008389509615275874 -2.2079181275837136
Ni 0.8890600131177524 0.5088473555558936 9.462252609282702 -0.2761765887314212 1.9693020136045696 -2.429165925487739
Ni 6.29039413072544 2.215102937311107 0.09474341998811335 -0.7631723238343759 1.3392580690274676 -0.03776539167423173
Ni 7.490882956841801 0.5955608156751937 1.4177422398284494 1.8419046232938021 -0.6558197679896254 0.6612216557314871
Ni 6.514963501348657 0.5992131794285998 11.876101030427632 -0.16555976031310196 -0.22517438665194126 -0.45410926878757923
Ni 3.376522794248706 4.655243137091881 7.3374060091522315 -1.3429931105898678 0.37831160493097427 1.5256139401503144
Ni 3.8858230691119653 2.282544868058732 6.831182591071243 -0.022355999097696984 -0.12507516993549428 -0.023786818006952582
Ni 1.0302978458878247 3.2719676822404895 7.959525301815748 -1.5174532587163931 -1.5813809106082894 -1.8182263058402557
Ni 0.9519540351178621 3.2697218013775182 5.108660281382272 -0.9617226801408856 -0.13258253405613293 1.7637857675031883
Ni 2.8939765751655857 1.1852355519220181 2.192601082631526 -1.0733964890688092 -0.8407746449998876 0.02260231078054817
P 0.42760261533792726 1.0453171741589413 7.306206045047103 -0.436873621635583 -0.19376244799956305 -0.5585827033123218
P 5.032541764234035 6.529589800468753 0.4819819415162991 -0.11007818230602977 -0.12467484917328206 -0.006588966071427362
P 6.005307628682093 3.4137763430632333 2.1321737864459123 2.066219233048609 -0.05110298932340231 -1.0627855463221825
P 0.37736038886588613 2.1796180196761687 2.1593882478029602 0.05350080013161754 -0.17617507393510304 0.44590076483485785
P 1.8788664986136003 7.381583421510559 6.135939289076785 -0.3321263646241635 0.41848046384037607 -0.35268207728832807
P 9.25054932865323 5.814173809406354 0.16519015217365499 -0.9161305933333834 -0.7352267464640434 0.6938895782781533
P 2.819375899167241 9.122992653473421 0.4235862317279812 -0.905092333241351 -0.09827013392750818 -1.2854117126309732
P 6.536421021426956 7.668494701755071 11.85988483481329 -0.6984725696631455 1.889298282086417 0.47772870797873207
Ni 0.9355020220129086 7.465644870644168 13.155936827432749 2.0716578875656775 0.21092456160114642 0.0769528605069707
Ni 5.365278371920079 1.1682604357327309 2.114095381282691 -0.7489757206190198 -0.027786168974332788 -0.995898554691646
Ni 3.8617827860412497 1.5456619990811047 13.474317577485944 0.01647074396151357 0.7672835177892722 0.2787770024687457
Ni 7.923261812148313 8.801242146342076 9.74169446409045 -1.5476506082353798 1.7470314308629848 -0.44383822587887434
Ni 8.427770874503903 4.6835505938022415 10.764824206890626 0.3911604358691844 -1.6726455597522418 -0.470998331233434
Ni 1.8907790250242746 2.933466647006154 0.6486010353890191 -1.6656241341290863 -0.5085192109970275 0.7998303413770419
Ni 6.688794680142591 4.815224717230829 8.244268371243798 0.6553081184605295 0.06991806514737636 -0.06867802209268818
Ni 1.6131694346872336 0.7181784245238525 11.909396214221173 0.16981776425850753 0.3203347713058741 0.21718159825445174
Ni 0.9166253933596396 9.23937607135995 2.4959157152289593 -0.5700886470693923 -0.3841384960253965 0.9821588365080506
Ni 9.165364939088136 3.802435384237248 12.804138305922242 -0.27022911289873464 1.3118935609715858 0.5063438006122635
Ni 4.56786901368539 2.6101533811076587 11.034103450793433 -0.2554871787028697 0.7124603993018053 1.3302358109241996
Ni 0.44981156972162906 8.171684309103664 10.810185385620478 0.8557598055548101 -2.388327294204822 1.0669263079634335
Ni 0.11116174488012233 8.078096581976288 7.504909418614746 0.18997469882235668 0.35537530784977506 0.03345750832749722
Ni 3.448456486722273 5.328127759311771 3.34821346597096 4.219556954283282 3.562932945224806 0.5243934590251227
Ni 1.2171644915239186 5.795055748560316 4.309024693742162 1.276623424915382 1.5898691505849587 -0.7861919246580008
Ni 2.7220637529421046 6.968406847582447 8.152737496673426 -0.5476570575387535 -0.4460036089613093 -0.4206162792364563
Ni 1.5082587248757133 4.971042059936353 11.925393436451376 0.10250551216509443 1.7524652002840464 -0.7100811004363513
Ni 7.217110079645669 7.195390540133356 0.8594040921059168 1.2041393988130422 0.01748247305547957 -0.6346215366454554
Ni 4.256122034231194 7.04606753625659 5.812326572396561 -0.68309377321423 0.10802901308648492 -0.1469046071057599
Ni 6.80351240305575 5.034282321902837 13.558685963670827 -0.126498275535266 -0.9263931516016563 0.3226204820162573
Ni 2.5824354681238284 0.05122199199851213 7.267514196696583 -2.802696306979986 -0.27728910506930954 0.8295049856233391
Ni 7.675372711897919 2.3443533809750723 7.944432046632891 1.5576172325297883 0.6196003806462749 -1.4116402794446203
Ni 2.292192797932577 0.87217660373037 4.974534404678273 -0.3167264851293255 1.4250629806084296 0.1661598557909461
Ni 4.530886842141805 4.921464239886275 12.375627044618506 2.3597649091860973 -1.2104794820984572 2.211675023522985
P 6.863973387454308 7.8128393363855855 7.744153749110089 0.8972070169560031 0.37001774035329826 0.049785556063559416
P 8.813903299707075 4.489637496958577 8.654427042762293 -2.3667917341258917 -0.40898640830701183 -0.6803210955650993
P 4.683120133303506 5.853476724508342 8.429823983926134 1.682443262568954 1.4351455616554123 1.0357303419766033
P 4.852309824980634 1.0063698568602573 9.67539138209709 0.05252403804064503 -2.440022922806901 0.31422865840813624
P 8.76094730052561 4.879672140161161 4.4592301416413385 -0.6981372978109137 0.293249742163624 -1.0544577431827775
P 2.8617107534342394 3.0440107746489597 8.769802621611564 2.1211562514061213 -0.16620896386132664 1.7520455962481245
P 6.0892848572833405 2.498926131369033 6.177205478366487 -0.14265560202141883 -1.268475598997267 0.8912119757148329
P 4.085116922189831 0.2641754796417043 3.8624893027293923 1.1484145944469124 -0.039270001244216236 -0.3819818546937099
Ni 7.697429133539677 3.9637738507309077 5.900256551316637 0.6038264056414697 -0.820955039170799 2.412050091743059
Ni 3.4310321943603914 7.7481298940212415 1.942359422177169 0.5593396360830044 -0.7776453206395704 -0.5571606261538147
Ni 2.1470901785108096 3.7807813495834384 3.33451733584161 -2.2226392358439724 -4.38473104912219 -1.7626909917771127
Ni 5.497532681238267 5.122676449534595 6.223416348689495 0.4954235541553339 -0.41030666978033203 -0.7870337038330059
Ni 8.439973493859377 7.03097334529004 3.698779560357912 -0.7693432285317782 -1.822629577114274 -0.35848325735113745
Ni 8.459568804388795 1.8111157592473166 13.116916519006018 -1.2775266534559417 -0.6417635470068754 -1.1189325258273954
Ni 1.1204138155145253 3.018136355540151 10.435459227850119 0.15113330047512682 -0.29926123846502656 0.25671642312428045
Ni 4.046375477303585 3.1775658233002857 1.7607210000333322 -1.5006325876146285 2.053891564721192 -3.5321591543770587
Ni 5.456302051728897 2.844932151820462 8.68862619360318 -1.3436690536109697 0.2909259791264538 -0.17779024094102283
Ni 7.926639991279698 6.537684329412377 9.401414504055904 0.8237691115808264 0.6590709279370713 -1.1180130993369197
Ni 2.9179326377039403 4.918993770937006 0.33202073316097147 0.8492819111399503 2.3476897231891183 0.7977441482719745
Ni 2.8910662878806526 8.868524993861907 9.833404073346166 0.5189514620739449 -0.0599936069448128 -0.8023996447661148
Ni 8.480661368826862 8.736336189402222 13.067747636429738 -1.6227306771996701 0.7625958825056157 -0.7415490891376454
Ni 8.622582323692756 4.225456402614714 1.5287767181263365 0.3418759878117596 -0.7550764342001189 0.42758911100986363
Ni 8.408418867734637 2.112672054285783 4.013571579948819 0.833839608442951 0.5396809813118125 -1.4544262642618953
Ni 3.1993508676711024 6.8666778023268025 12.220449777958928 0.6928043156337745 1.158742715845798 1.5663772381106056
Ni 4.165538172758041 2.535477842413882 3.7263224817911693 -1.0374079867893424 -0.9063827699180004 4.161288814670007
Ni 7.905912382481865 0.9389840731342061 5.9538769569200625 0.7419854053441157 -0.013121624983622564 0.9371897279965279
Ni 5.888053931961162 8.070142420586599 2.7173277516723156 0.39998806146314336 -0.052287496549806724 1.4198089312983417
Ni 6.254899855253574 1.0753277571903879 4.18737562101566 -0.26437265411795763 -0.9189683198924947 1.240443118340083
Ni 7.934275986213799 6.41079206065453 6.17460306391652 0.00547207885816477 -0.4453891153057619 0.8010688417698333
Ni 0.9710627381269714 5.45039725662667 6.63847852675881 -0.4400664175412679 -0.25740599299213734 0.7450511887536331
Ni 3.6216513326050324 5.19637877318775 10.495174392645431 -0.45488702749386817 -0.9655209708410534 -3.5903432189169586
Ni 4.4731489882896 0.10624888049237384 6.157469800283131 0.9809884703490332 0.4072640262992664 -3.535282016276757
P 8.979911326828327 1.1389236169601757 11.056880425878727 -0.8497310828622269 0.056770472021824815 0.5706725445973204
P 8.129414959695168 9.078018889192434 3.379002621034903 -1.692062273715957 1.5788121214398487 -0.7722339198160119
P 2.3407506137573906 6.841636230704679 10.368662987850596 -1.8406861775056684 1.2913023670837953 -0.1404958753659387
P 6.5259496019033545 3.7387927352828143 11.745508672948043 -0.3211498110080018 -0.6018561692889763 0.8198024136235946
P 3.0728048388796303 3.8489719072853874 5.5219135895732006 -0.8089675277916196 -0.8600831155205123 -3.3528424494891804
P 5.582913585378872 6.2347337166714825 4.118717171467259 -0.5039074232566289 0.31287625814529985 1.3597649307315678
P 1.6883877279228952 5.457162972726369 2.0370813191403454 -0.4848869162900682 0.6171331500527049 0.006227211856634437
P 2.7989945303357815 3.385403381494369 12.472951356031649 0.9219528564421156 -1.0196506628059214 -1.337367536872974
