# total energy = -340861.58029913675 ev
CRYSTAL
PRIMVEC
9.31895407496119 0.00000000000000 0.00000000000000

0.00000000000000 9.31895407496119 0.00000000000000

0.00000000000000 0.00000000000000 13.63923126302188

PRIMCOORD
 96 1
Ni 6.235647634610793 4.78152736420682 10.573963680592893 0.5358826906116448 -1.3209757257785122 2.2345308450752355
Ni 4.805905747991494 4.454450715095772 8.938838570064735 -1.1659801141345016 0.67787906178251 -0.9074842305122951
Ni 6.431112695728356 5.986365613876834 7.9172733939337325 0.6386759092204871 0.36470378433955253 -0.7662141959844934
Ni 5.018154245346135 2.218721811980793 8.233144932699714 -0.6001181035519472 -0.16486916200398058 0.4039635011711236
Ni 0.17448623176891628 2.5539152700660193 7.438536359094359 0.34440955286689073 0.018715317021316156 -0.9216831477204965
Ni 6.876773035076399 8.619249700529753 6.623496910638269 1.413184741113605 1.4557007600989447 0.4803571467405146
Ni 5.3070884155463744 3.0440083823060067 5.912347957574643 -0.06546799979582273 -0.6177689838644909 -0.46182823469839174
Ni 3.0963809040452532 8.788863983123353 11.169084200618972 -0.9260123712234697 -0.964676877673203 -0.1927247507636681
Ni 7.009726552452526 3.956119647479007 4.408662966285521 0.5327035215527148 1.0176688564892022 0.7262664519469622
Ni 0.24011869322040055 3.758045279228528 0.34775168055778966 0.10235613107142372 -0.529598914485462 -0.6060900048646659
Ni 1.0337702102452186 9.125539154901913 6.625065290604232 0.7065198654476542 -0.351136330067763 1.1290937826311134
Ni 8.958347800360308 4.746320355820543 7.74906068202867 -2.0098768497031387 0.8799186621892007 -1.4184799280742733
Ni 7.799796795437417 1.5596947007925732 3.8775785708828243 -0.10777987319015632 -0.16231040013786885 1.2237592299264988
Ni 4.262713235596662 8.935646828303936 13.511309178677713 -0.13301242250469997 -0.6896711693214316 1.9958106014180597
Ni 5.4765722327833295 2.6820602071543433 13.532518186191298 1.5249217991792963 -2.3514998409638275 0.49113186875851544
Ni 1.6960869122117221 4.692950705998361 8.47581422364254 1.3575823212579523 -0.5527707246162351 1.3628870213003172
Ni 2.8230559818722805 3.636274506707756 1.8108395804403539 1.0404431740712403 2.308421007496482 1.4943678376518392
Ni 1.4890943049390974 1.9615093613535777 9.100817833608343 0.7524837337722783 -1.4766115421096828 0.6083497474331201
Ni 1.4862333860469357 5.914730814124238 6.091826353026071 -0.9361468885543104 -0.3130570066975383 0.9369292752462897
Ni 7.539639555331624 6.295251664689837 3.228924387443351 0.9038306929201079 -2.447821335805397 1.4193345627650849
Ni 8.439104999864027 0.5659037353006542 8.497909463685913 1.8606219971976474 -1.3861812159415676 -0.5757728419383633
Ni 5.8636909028135875 7.122746827123983 5.25055870840715 -0.09761475973169641 -0.618837020117689 -0.31375223299235
Ni 1.2712637541108245 5.13862036430045 3.8229396795195587 -1.9323676024720655 0.6853856545722002 0.4788939319314268
Ni 3.2344598461467515 3.2100348675918466 10.300797180638705 -0.20331409624374017 0.2840912155928075 0.5283051353747031
P 7.976605310554629 6.61944875700063 13.34167812196683 -0.365412380370803 0.10027970815836923 -0.3464188699874357
P 4.109276657227142 1.240455292034321 10.345547729863622 0.539520030253916 -0.47403249007406756 -0.9780730964744511
P 5.73439973437759 2.765241190970094 3.1801098423589163 -1.3944609394518566 -0.7439044767436995 1.2119637799534675
P 2.738346689592965 6.863372379158066 12.928163514600909 1.0702119206932408 0.4836517583313864 -0.6778446090001488
P 0.8564202638979267 3.605428768815068 10.253359976962287 -0.11254387023770294 0.8619651630345735 1.1885819106944175
P 2.518121167574836 7.788325163006632 7.223473537617785 0.18693719754761354 -0.4183099997007828 0.08856936169997649
P 9.100582995966379 4.886281726639359 2.200826624526011 -0.6217955885253807 1.3890176569490982 -0.3586341811067049
P 4.748789878642768 4.274688091545937 12.57085617856422 2.192461169598695 0.20874375189974373 0.12326125665520707
Ni 2.078406320908224 1.834137897451082 1.1227410602098291 -1.6062820447253434 -1.3017431028011452 -1.8568694721337504
Ni 9.304323288276905 0.32953498918841606 2.514801756143605 -0.4907660007786644 0.8382475077026597 -2.2662302330610458
Ni 8.231571893256726 3.7114691469059733 11.72773406209012 0.4708394370580665 -0.346175643628378 -0.2059204235183357
Ni 3.770514039742249 6.651878717081161 1.0787388229948156 0.6767917422556021 0.5487353782045968 2.0827809940620323
Ni 9.010869425364293 7.2234194876843185 5.04908012624362 0.5505613756697422 1.0284206956890676 0.20346142045488183
Ni 6.407805991658988 1.197597422376172 1.8515531587724885 5.511127744537116 -0.7245733805152553 -1.141669562413595
Ni 5.252777551365534 7.9835945260892265 8.211566894605902 -2.3741468889393817 0.47932176349746486 -0.24506649759017793
Ni 7.216914857760119 3.5313337651942933 1.9494962976927122 0.832293861222386 1.639986121846008 -0.11925264971644625
Ni 5.2251002578485295 5.683518245285724 3.2896056886101266 0.5712402441753324 0.4660828962096876 1.217177205833607
Ni 0.7137573283011374 7.1902160544179585 13.157534658119909 -0.08697013553365666 0.9417518934459136 -0.8411708519970416
Ni 3.540242685262393 6.907879703682379 5.059145528508845 -0.16167662320861187 -1.4774173258404297 -0.6616104065294736
Ni 3.0480341704539344 1.8465973390107568 5.839227716547094 0.23116711390026637 0.6353419597512476 -0.39772060558520533
Ni 1.7519726796263597 8.982278874350767 1.2499811268602745 1.0097629713785643 -2.1690440762263354 -0.5928629646514306
Ni 7.170907181634379 4.61769083312182 13.54633446746009 -1.0515102305186794 0.8550164996308823 -0.5510061765166445
Ni 1.3815256183846267 1.8960064333633346 11.897842249248164 -0.45189812006887337 1.3277187009293006 -0.0001416677841868528
Ni 8.327883283323475 5.719964674560135 9.835672341974512 0.3461378484119071 -0.38018953867997746 0.2944121379028414
Ni 1.0195215295086868 0.6682771049744078 4.3338932703918065 -0.6303625042587853 2.4995974399364242 1.4989467152717733
Ni 8.246538133454811 2.561584769245983 9.690606048129226 0.03288595209474336 1.0453267274157867 -1.038860402965153
Ni 0.19769881440241985 3.249826801368819 5.022741966423045 -0.6788820491257276 -0.1134434992338369 3.3748783462432974
Ni 3.5730454035047683 1.425445848804034 12.48458875716839 0.11820749628138351 1.7938507052093686 -0.28960314654997216
Ni 7.484406114700216 8.281213961460459 2.4087157151778733 -0.36705994327655495 2.518928279054552 -1.1811000004950756
Ni 0.15996636946964218 7.18217379707615 1.9120294429502496 0.6341484536637789 -0.32569140763209714 0.6976184491929663
Ni 3.5151001472459362 4.37377652991843 5.299618341982998 -2.155550155504959 -0.5708705195407394 -1.415800067249265
Ni 0.736825467146926 5.244586190758986 11.77202052740354 -0.21724021940652907 -1.2045446046712611 0.7135140373773001
P 3.9766493032426298 6.58198656173519 9.525625149487361 0.2425326754247307 -0.22713999501874427 -0.5739679275191406
P 7.2875618483838265 8.017357096598351 8.886382177739073 1.080881484591945 -1.2120517116815834 0.25683443675938344
P 5.3969976841834315 8.527374132588964 2.03299598973684 -0.05809253326735802 -0.3280691638356543 -1.6016324617684738
P 8.60960458309201 2.120071364448468 1.3410161251461026 0.6804709908794023 -2.687660523558365 -0.2374478047026556
P 8.746527974891787 0.9224105731847824 6.261675473261633 -1.671582151484734 1.0652923719044365 -1.877632929933347
P 2.746081421451252 1.9330306377886064 3.346603207242467 -0.6488651910486631 -0.6510729973332593 0.35004309700358427
P 4.958587491083278 0.5551487304360163 6.610116756418837 0.31282072231701613 0.7443798737182213 -0.04775824122088549
P 7.0268827468514505 4.0528690283859214 8.590492340238802 -0.6373607899534895 -1.305045941922133 -0.09275923141160798
Ni 6.372049164983989 0.6325584860109988 9.415148017375092 -1.5222833331151846 -0.16484653629616125 -0.6363824852006201
Ni 3.5856632672832274 8.523366982349128 2.9451053911190312 -1.0973041489243425 -0.5201835347088332 -0.1872516434642388
Ni 3.45497425574031 5.887165348055787 7.35697407759642 1.511110604327817 0.3234486343445075 0.9734389401365492
Ni 9.30346594450466 7.228116240523567 8.07306114440909 -0.6646124265805909 -0.23305636050317927 -0.5199781035662464
Ni 5.28877667084573 0.5688205679170927 4.258549526928851 0.3663444052667691 0.029370996962949418 0.40171430012563075
Ni 5.560004828358325 8.985922585382804 11.413976993997204 0.47014575342515164 1.2663549531098384 1.0493523036354122
Ni 1.658680630670559 5.517556992678206 1.0317489291126132 0.3610502467473653 0.06417962000170238 0.10200774659306948
Ni 7.969951577365692 0.7512558674873573 11.109877157982295 -0.9227270156039786 0.4985132488242511 0.21598217862971192
Ni 5.9922365549258965 2.457212483929335 10.859829119225742 -0.46487242084135416 -0.19699509600424783 0.8597630131769322
Ni 3.590453209662938 5.467402382001938 11.439113940641233 0.5132716380803483 1.0400081434163508 -1.2474637726322904
Ni 4.957553087184156 4.5406137642062845 1.368683167813656 0.04970122387986924 -0.6593586343808193 -1.060265093893174
Ni 1.3047933507687979 8.689346872864737 9.283501949251638 0.2959424585044387 0.7712533010702975 0.8451236659972027
Ni 5.102798304947128 6.9697389206405855 12.739450967585174 0.5969188798883591 -1.296510650757612 -0.521252856513612
Ni 7.065658914637394 1.9624412567581906 6.971311028188167 -0.3062944911627241 0.4058632892969978 0.5219216004458624
Ni 2.699262996323498 3.8563695633692388 12.860799591487655 -1.38668978014687 -0.8495958428359432 1.1721633601270782
Ni 3.2558375267285724 0.3965252222444214 8.061631447271512 0.19747357830256312 -0.10746182772910526 0.2730020476581815
Ni 4.397381440517276 1.3249316104624833 1.7690356844848225 -5.261155067894571 0.5968761995758817 0.40200046390748184
Ni 0.5475127794906179 3.0133117476780567 2.9742392371534456 0.5717192406942799 -1.5368825710855982 -2.622733483867677
Ni 8.148642521200221 7.546843106809282 11.298452716373554 0.80597296393967 0.7645810312564445 0.797347169943872
Ni 1.900078816281493 6.382281376526639 10.269849866146913 -0.6176111181303879 1.7181975373504281 -1.7344240265116193
Ni 2.8762578905216323 9.03008510860741 5.071829556861031 2.052246315808285 0.2403552081574377 1.475266598046014
Ni 8.715523814780315 8.950985826663866 0.22803387361338004 -0.7630892772022664 0.9380492477833458 -0.43921435395361774
Ni 6.4105550831025955 6.651198433435793 1.1740801099453602 -1.2503992011115306 -0.5229878369268476 -0.32301334657930175
Ni 6.019774064132208 6.936843012857749 10.461290071011952 -0.42953003678631824 1.0775169389950863 -1.048702071645923
P 5.17959580524128 5.252162500398489 6.040392249959269 2.285420689946567 0.30402600684352155 0.9217384264384643
P 1.4918527153367518 7.909835004814113 3.897015113336836 -0.3131822194214929 -0.8042868344864987 -1.2963391581767545
P 7.326850558642308 8.44617808598504 4.4591008731647905 -0.11155270996902723 1.3777392558218013 0.009667090776118834
P 2.0975381335649277 3.564732896495621 6.664537584257422 -1.4462234167361288 0.23319648562546935 0.48172111696757686
P 8.653534132465463 5.2218013481162 5.582442074015191 -0.2540455611603367 -1.3104216044117496 -0.10066717340477502
P 3.1899338837143456 5.380829298913397 3.3668849788284634 1.4932704908226027 0.3710004159815417 -2.302179911682777
P 6.979961813229189 0.7438976213725336 12.962875686527338 -1.909894875290846 0.5090645419775363 0.5981756351135956
P 0.4951579637640588 0.07181651935649566 11.54653631961718 2.1064127745483594 -2.8823814788164555 -0.1154582156710205
