# total energy = -340873.6565421775 ev
CRYSTAL
PRIMVEC
9.27595624680383 0.00000000000000 0.00000000000000
0.00000000000000 9.27595624680383 0.00000000000000
0.00000000000000 0.00000000000000 13.57629959522250
PRIMCOORD
 96 1
Ni 0.7222816117951716 5.670512662154749 12.096999064509395 2.127632088938452 -0.5273206599742467 1.026646120287148
Ni 7.563373576861226 1.6679560787114887 7.4064828351071865 -0.30612762656755665 -0.52704349505346 2.1517729478507137
Ni 0.9693188794772023 9.045059177489097 12.63555737581578 0.4455184417947746 1.257798578899395 -0.17746731038396532
Ni 3.4245160918213986 1.4278201225027018 6.815600709609574 0.09965750119333805 -0.2604409231637192 -1.178793720959402
Ni 0.5685697402587142 1.943479808133213 -0.052812657087250005 0.9380600464166231 -0.8369444726205199 0.07997364961116549
Ni 1.4802292754917177 8.618374464508259 7.800982762579002 0.45273989924387836 0.18319110024162 0.05449298884155777
Ni 6.2707041373762165 8.872062592843939 4.876878539453009 -0.278139883105379 0.21586365077397662 -0.71980398415107
Ni 0.889380543436717 6.182267170190858 5.075839453324992 0.0387812345332558 0.41176217127993603 0.9925383799701616
Ni 1.3217495624267022 0.3322313605514677 2.883700940351788 -0.7059619360616551 0.4074974824663111 0.9077979050979721
Ni 5.004805107718871 3.652695340383665 12.260186325387142 0.48528363750785464 -0.5283730124981609 0.25238257163561695
Ni 7.459315899298256 8.432688371670361 1.0285050461252936 -0.09597336747353148 0.09488733349820433 1.0161305654678048
Ni 9.105167374191545 3.8654765015190695 1.394109442185413 -1.832835314002682 0.3563574692573863 -0.8253904492343332
Ni 5.558857976397443 1.3718304503891263 3.4164617789823963 0.4980301385402454 -0.21303723706877503 -0.14770807684366175
Ni 5.655235162159545 5.881049041870093 13.322205401556563 -0.3893951164386455 0.2262280247274362 0.31265385772184867
Ni 7.935654806252583 9.259556390536533 9.53588434536784 -0.2665020417561345 0.18825385947650805 0.16959716360726923
Ni 2.322504657741033 7.407546787292645 3.5877404565242696 0.8403825517677914 0.44530349757049115 -0.896782784934391
Ni 1.4693764066426647 8.775147401617525 5.548443860280492 -0.649966651642958 -1.2780568149277989 -0.731894596767017
Ni 6.347026705658274 5.972667662059918 2.23323378208599 -0.14812459555579005 0.6769089845597569 0.5784524456530554
Ni 9.411941800324772 2.041981187883719 9.451670721077331 0.44915938098147157 -0.8007402547858209 -0.27654451359380117
Ni 5.967955476269048 0.7245950352917132 12.230752788511133 -0.6513146810304202 0.42542347081711246 -1.5313025058946594
Ni 7.055654109807457 5.635588686755874 8.411712651731587 0.08023050281697795 -1.003521875564859 -0.6672588630645025
Ni 4.126919329305869 8.28321561215443 7.8145590521922275 -0.12709579990994885 0.4140332267022998 -0.08819937995506746
Ni 9.161398221168433 3.5700929496992067 11.972544486679604 -0.4197955831073738 -0.7255650550045634 -1.5174226625887737
Ni 4.285835012316102 7.278221404819573 10.346172519976921 -0.8381500628928468 -0.5020762835851611 -0.6794952572296943
P 7.385442183474447 7.4452999293573 3.4947434292310517 -1.277373158597213 0.6491220442544756 -0.32070295327857024
P 2.6254944937115137 6.9419123338868705 7.057530635763153 -0.045092007242632015 -0.4476611991693903 -0.6796947748350101
P 8.816712961713769 -0.14199170077510836 6.985942515567041 0.03813408786756013 2.191212127682942 0.075765782177405
P 3.2218178951637038 9.268108822227838 11.33190613168941 -0.09190279694858365 0.6836568448065516 -0.6243960022627053
P 8.837648795040533 1.1525932236819771 11.504569709504072 1.3962954215574341 -0.25403836207148506 0.31070547574622615
P 5.654678604782669 8.278327183194216 13.44961900944007 -0.12622625282080197 -1.2360372759629035 0.326422886481483
P 8.20066887720766 4.186044274642504 9.787493731900897 -0.3969829560882324 -0.04021102500124688 1.2761925080255505
P 8.422419888067026 1.1984628274927178 1.2900703165350051 -1.4180186721671384 0.22313241652124802 0.8662612193067661
Ni 3.393849780355613 0.9767674723710396 2.317949235611315 1.2307212630666289 0.13037704176438192 -0.32063224794163486
Ni 5.522904369851349 2.273471952838389 5.6674942659808325 -0.9793295945893715 -0.6268328938389721 -0.47777215962215774
Ni 3.722033113585947 5.331495011987925 8.479172971382548 -0.8277520074879745 0.9632262612696056 -0.09072034660470828
Ni 7.815596104104471 5.366613782468707 4.298419702202864 -0.8247754413581538 0.4583305059577784 -0.03054007757038611
Ni 8.788282155711764 6.313178741188023 10.230813944876514 -1.610479884856775 -0.39120337329197785 -0.49368625974925295
Ni 3.1982476902530683 5.210953960113188 13.226520202133042 -0.33434445532140483 -1.257110551693435 -0.6382480776544491
Ni 9.270947264849898 2.445800668631298 3.3009547885814894 -1.0311098124854565 -0.17787405890408076 0.44447740212477005
Ni 3.6069834278297055 2.6965761466946696 3.9610216340027447 -0.2713565416349585 0.20504599133318233 0.6471250684291048
Ni 5.275746514737662 0.07055106828386865 9.648948048884268 0.2661968518108899 1.710253342802687 0.21970745000009906
Ni 3.4060940426468527 4.0421463648516 6.307467534905662 0.3773456414732792 -0.8955525120717157 -0.0128323758779779
Ni 0.007497755462127721 7.1226357901143045 0.5264550435506203 0.721755451450486 -0.6107591282055611 -1.4046419937499164
Ni 3.96781812717001 7.974372647770485 5.233188427319324 -0.06997437230660851 0.2147105110061399 0.3193289557491791
Ni 6.33325191058063 7.39995905505459 11.495704678086089 1.1324051063925336 0.005849002581609281 -0.3024751174166339
Ni 2.806932198572603 5.099160135011663 4.304040004113668 -0.23089689095801524 -0.02373462461277848 -1.0342879531031222
Ni 6.913991705480333 4.937109178778369 11.624638615204095 2.3925436462790146 -0.1916271468241151 0.45373877282203795
Ni 5.227186883605362 3.160800654745695 7.935727158711577 -0.05838152526268656 0.04119781439454841 1.188082859570812
Ni 1.8203414884997284 1.8354149174567462 11.053293508826032 -0.9862954843842433 -0.8698548501952955 0.37525456327220535
Ni 5.988427511781748 6.507296678285569 5.7150520938347595 0.5825243017295838 0.7404715398027506 -0.6464028455510997
Ni 3.2717596437819094 3.6571199715298173 10.093381376613637 1.3158741428858887 -2.3954415366521 0.6043365125086689
Ni 5.414171610322633 4.761506050418181 9.986033517357711 0.17465658040804757 -0.16361780609538273 -0.2838639300733498
Ni 3.8328436873216614 9.356007783948884 13.699300852257883 -1.733007348669751 -0.5621369963224835 -1.0690438685270685
Ni 8.914629956218558 3.6229751764585663 7.885834572661661 0.0743583603069171 0.23733416194292675 -1.5846258999081484
Ni 6.381115844991837 3.683556446931356 1.5652526907655797 0.40505981955909587 -0.46201695367043005 0.25803848436981364
Ni 1.686619302749347 6.637744451468673 9.276685371405474 1.1044788122959108 0.3481805898735487 0.012689679652526533
P 7.603872401985128 5.477303768772765 0.5191780558479862 0.9820284815777733 -0.38231635521499313 -0.4776808854599322
P 4.3678901215799675 6.7370806672844905 3.239983927944887 -0.9407244806226638 -1.0933320516504719 1.867459846055087
P 5.1940624437250476 2.4156909145423877 10.378090157945046 -0.6904229598857916 0.3529808394756695 -0.04275281758649411
P 8.570751704960363 5.488128809752974 6.577812497935569 0.5359827065246188 0.8665538108465205 0.06997488652724078
P 6.834886350313903 2.999779329659619 3.9492504454818484 0.6788979899653276 0.5097060322162771 0.09035293596296053
P 9.063768781308363 7.502514027699998 11.890720348727141 -0.9288845505649421 1.0533480550583665 0.6612242268346483
P 1.4007899858991633 3.9314934823726677 13.489424920629764 1.4033219893869122 0.6322401808974725 0.11986714337199354
P 6.533733153687108 7.554700557738265 9.185235573619968 -0.5544792226669095 -0.31976552906596545 1.8304567864681764
Ni 8.490561062909027 7.921898563087502 5.316900222375019 -0.3596687930188064 -0.9158732259069388 0.032805990786427375
Ni 5.170436583076723 4.616253851010216 4.364929236334995 0.9506803062837951 -0.07912647111952179 0.29617668600243185
Ni 8.321219205038679 9.44978770195224 3.284839669734088 -1.2355701065184979 0.11280612276015411 -0.8427317687262584
Ni 7.354710940314692 2.31583524517482 10.630690216608937 -1.613059472658493 0.6788936190899534 -0.5532548633415052
Ni 1.0488323767200067 1.8138390431465778 6.4105382507203075 -0.7452293662027101 -0.5114191582526418 0.10131817672521262
Ni 2.6522927314080214 1.0099475679890413 8.987524131059068 0.44248145474066375 0.49755885533078187 0.8445294840566295
Ni 9.461382647303791 7.2923857900610285 2.8472891015654014 -0.8442235227804363 0.1243992269143922 0.3734789594290213
Ni 5.2707003945206665 8.386614696821432 2.4093860470580277 1.0486694186357746 0.8464490696768455 0.33887345354001
Ni 8.041771746109989 1.4093887973718742 5.278669368561881 0.32663037450659876 0.6709427396739929 -1.3144574650440202
Ni 7.140890872075787 3.82050666546761 6.125503883323427 -0.1460998518162774 0.9058330680621174 0.36545917444833836
Ni 1.9632839747936641 3.081686023622984 2.149779858614914 1.1811789333621268 0.2704887943180245 -0.4938112153628915
Ni 2.663442430858074 7.400840270901307 12.33607756170212 -0.0660585821919701 -0.24414115756243115 -0.07163196251468953
Ni 3.149224261306705 2.1828087561455316 12.7727868006361 0.637369788814554 0.8101846880281725 1.346918928006835
Ni 4.14440450689601 4.928556747087064 2.1457207001462426 -0.8451691745231573 -1.895716012687303 -0.8931971244656617
Ni 7.399040735382746 2.4565422260049763 13.067228842893416 -0.29562081349896185 -0.13454017200313603 1.2115742578245328
Ni 0.23266417342424667 3.8522582638183005 5.381997955961146 0.6444714328563417 -0.6394842640543954 -0.46160403450272763
Ni 6.554307224718902 8.311358863511717 7.208906821507994 0.11765548043265543 1.137616475390144 -0.13709353455260906
Ni 1.1611549313295635 4.360617771855474 9.906449522847169 -0.9443152832977155 0.24196831828082846 -0.031876279883306394
Ni 1.0071926089735124 8.71728398633514 9.938095375296253 -0.3869983340716948 0.7386244592916827 2.803587708446004
Ni 5.763457744092792 1.0232771171651855 1.0513962510361419 1.0186379052706909 1.7193131390121097 0.21850597349283016
Ni 1.5077603137344433 5.0866283180757055 7.517550352831892 -0.7029915405794216 0.11783494343331319 -1.2183236607332244
Ni 8.738896964470433 7.308785680766264 8.148576961923462 0.3688062365437003 -0.27116550867007494 -1.2490504003931198
Ni 3.9985400943734826 6.9933753393352 0.9559846923229173 -1.1643698322245881 1.1361800000539335 0.24780986466326999
Ni 1.6528640978419082 5.635820585662906 1.6596754325392242 0.6160270614727197 -0.18190117778560283 -0.22448096012934243
P 0.3310913455245031 4.956291856367977 3.248617988051467 1.6823283342576447 -0.807540565537106 0.2697981960089031
P 5.264383468293141 5.175566186900251 7.078316198598159 0.04603945875756587 -1.1438349454960302 -0.5178050071743275
P 1.870468756243559 8.571948303320644 1.0786638521204803 0.646217469013171 -1.0008751819706312 -0.07152140507875424
P 4.377091870210959 2.8891078952681237 1.0131830215399384 -0.43494657981619933 -0.4529216762373813 0.05630921611469012
P 5.461293468231341 1.047422431365258 7.472830040004396 -0.28568889909723055 -1.6108832909427806 0.11946090907251038
P 2.901936542805081 5.614031364358268 10.927984615422737 0.047424512030550585 0.22491830477707714 0.26122845206202105
P 2.7566286876594286 0.7873107033048169 4.674143238970189 1.3803280995949 1.2090558622780532 -1.0845820733719838
P 2.1206412971486492 2.937658250444143 7.944402960621422 -0.21579885897431222 0.5301612147468353 0.6907484615460103
