# total energy = -381159.0646941824 ev
CRYSTAL
PRIMVEC
9.48404759554851 0.00000000000000 0.00000000000000
0.00000000000000 9.48404759554851 0.00000000000000
0.00000000000000 0.00000000000000 13.88086231831678
PRIMCOORD
 96 1
Ni 4.013231735065459 8.042178537352 0.697640866470933 -0.5251856159091148 0.10684759118387405 -0.2723574720956471
Ni 0.5147391076465647 2.2919813820861914 4.050546721173691 -1.052882685386174 -0.8331420681552942 0.25947933058139827
Ni 2.4172561696077666 0.35498885793105533 13.347115770822123 0.5234136116103566 -0.3182292949270971 0.3087462951373263
Ni 1.4699799903025619 3.088186163826768 12.661748210622042 -0.28364461497369214 0.8072019512507645 1.06770355244909
Ni 0.719381149265672 2.213140492642111 7.9624935676528334 -1.4279557287751923 -1.301064588676882 0.7289470841029188
Ni 8.595639115397011 5.085431792123272 5.1175959918659215 1.0431682863118872 1.1596562287990029 0.3959352315500084
Ni 5.265818381468441 4.516948482347305 8.454667280345195 0.7207190397661716 0.7458101784068445 1.8888087440445083
Ni 3.3763210203407334 5.179703227354133 4.871919320587522 -0.251464944917354 1.7541628997014433 0.6944940446313717
Ni 3.601737868687527 4.414691478860469 11.508442473503136 0.0015514036475199088 0.23912184997096883 0.8842789960404254
Ni 0.05751411113385481 8.346227626091055 3.1308425656615615 1.9731129027102277 1.0213182803163314 1.0747997971742393
Ni 5.247115839187228 1.5332954934817606 3.2690545428006836 0.9879314773257696 0.17010392804035868 0.376141593862849
Ni 9.078149531775818 4.627428155285364 0.3042577377908738 0.44099895665786637 1.0408092991614075 0.9694611864357241
Ni 1.4843293546390102 4.377058777150603 3.705176584531483 -0.38482600901072433 0.9414456750594045 -0.37656556877414504
Ni 9.479210945562809 -0.06728362878288006 5.405624627044416 0.4819987961089957 0.12335715880312303 -0.5899866715449
Ni 2.903247231532823 2.258426820934603 7.927180664037281 1.7554510223852478 0.167103450651138 0.49497103999894754
Ni 0.12690414693532384 5.230936053623461 11.967746373295785 1.1844349784055794 -0.5050189111532528 -1.7702284378047386
Ni 4.006820518745936 3.076217295490616 4.672853899080662 0.38866338047894355 -1.6484517361148578 0.6698525919336076
Ni 0.4717147247567453 7.118602993523849 13.489505471021529 0.47120633347918206 0.9783448620785989 -0.05072426582774489
Ni 5.543568205630517 7.885321870623304 2.3435063170280652 0.5963519516412956 2.2064214884335294 0.7010925237844957
Ni 1.161691532192461 6.128231300970251 6.439262545706988 0.0747586810691293 0.614196178911568 -0.22144937239187026
Ni 6.3472179649019 7.02198899848393 8.02556817601766 1.5948190383910663 -0.24627260208313714 -0.008617309355365803
Ni 8.506090735975501 1.4264482108549104 2.1144162969644795 -0.7624328745651902 0.9365515801918969 0.9473995786499942
Ni 6.730051038798176 8.116049785743668 13.274408215096736 -0.7125290477562116 -0.8700947341202434 0.32982805550829
Ni 8.18907695388025 3.8712555393505697 9.01024849148051 -0.5280865916059938 -0.3348640752703007 -0.12370708594337405
P 8.255901554749128 0.3275211586638901 -0.02794474687200554 -1.0372838025066522 -0.5833036030977696 -0.12478334972668831
Ni 3.2604828603900544 5.380859881403085 9.39205539140375 0.8144439775251587 -0.2596035148640884 0.6491418417488175
P 1.4904181133329955 0.7433416476527194 3.019739790782389 1.2497039748167187 -0.4477447600221321 0.8507479541625155
Ni 7.700449326664029 6.854491230112477 3.1959021852330096 0.6166739510280993 -1.7814204498658162 0.775467082041329
P 7.270784024682241 5.0561829886773975 6.82019501642215 0.3291140601604009 -0.03838502753610163 0.9491335306219654
P 5.9558113117854345 5.939574621934807 2.3029743419026993 -0.6280546820612152 -3.0893838225450603 -1.041388054483013
P 5.526819377198152 1.714592551416686 5.672247766315863 -0.5352116326865491 -0.5098225031894832 0.42243636316433053
Ni 0.3861230900815457 4.329581633814014 7.385284933891717 0.11982009218414202 -0.754684598078339 -0.2594273942975403
Ni 7.593839145232427 8.360368341375684 6.444023537707581 -0.5058486061433999 -0.06632006338347288 -0.06811932137574074
Ni 5.337631591485352 4.005815209678082 6.345386595269801 0.9035198465479085 -0.156610264429298 -1.5054382365333878
Ni 2.393327916983273 9.411466392056365 8.925325482175912 -0.7276751593690307 0.07002759414204714 -1.957661601152164
Ni 2.558492609593481 7.965044776513709 6.135174572371913 0.8656654947042963 -0.9098576158404782 -0.22819903241087794
Ni 3.4941982505705513 5.45192385164301 2.495445504967303 -0.755758290758492 1.749751143786993 0.1481194533494675
Ni 2.8804286125020937 2.82144731917204 2.7873464768665985 0.587745183808891 -1.1522733060713704 0.323075824386121
Ni 8.933176376952984 6.290768912337104 8.263499225449678 -1.1207965756193279 -0.5501757101955492 -1.44506642031355
Ni 6.296734378409559 8.007590214989127 10.76006953848724 -0.048270919191245897 0.5769948872709224 -0.007371352763406659
Ni 5.394251356910729 8.8779792186991 4.951830959029345 -0.8786871037749449 -0.3712462134437606 0.8606546717532662
Ni 1.5722559618850183 6.9811791407577335 8.73134066508084 1.635274318192635 2.425700078426326 -0.6455407546611205
Ni 8.728150231397574 2.3921803471982694 -0.16904556497403736 -0.33535618441537085 -0.28091487474735494 -0.19040150194713015
Ni 3.538498237890808 0.8375220360246058 1.654001815173285 -0.29838089274260227 -0.32887340490450456 -0.32889603061232386
Ni 7.846010492451079 8.617367068929598 1.8915174633112266 -1.1089910983439675 0.9790424023662557 -2.6513843148351497
Ni 4.1137531578030755 0.28907851927105543 6.982518288308498 1.2455562711969321 0.2693798775245619 -0.278351742005869
Ni 8.526462470671266 8.524869150639194 11.884891834818538 -0.7149037186359752 0.030665290294340734 -0.40068997262617445
Ni 3.4552567502629135 7.833045799094883 3.4325016743525105 -0.2664660463118766 -1.4389975884116508 -0.08284377207010894
Ni 8.074832113961643 3.3357577478575955 11.570420725941133 -0.2776891687212056 -0.1634979926880668 -0.5186323881716294
Ni 4.979248392843116 5.672020149168424 0.06308124719829304 -0.6828292066989338 0.8512567754781339 0.3147652476378966
Ni 2.444826296591279 5.762450545036257 13.313121149852156 0.40435610862385196 -0.7290915801005832 1.3484443635124261
Ni 5.360459694563892 2.976976219207342 10.597761441077388 0.4666266845282996 0.23955816617743905 0.1482176694902286
Ni 4.984388746756108 0.5298775447608004 12.738661941551142 -0.5369353002458752 -0.6585075992344336 -0.11666534860524425
Ni 2.5324588983551792 6.822757606140397 11.350686719042058 -1.4136480539032688 0.1623160565648237 -1.2278632247925432
Ni 4.072867427694399 7.689011565005234 9.569938192127093 0.20606389107473544 0.6409785892117348 -0.2227871173666873
Ni 6.883237379024423 1.11281074978 11.506374951080568 0.9062411021338135 -0.11363710330188172 -0.5232583169794149
P 1.1746372574530373 5.207472519341655 9.659941805843479 -2.4806288692537213 -0.14803563538640957 0.9131817951177047
Ni 5.990067692474959 4.1923284939084775 3.8176678240100324 0.23111517761640843 0.7625717141358996 -0.3539650577658097
P 0.20008590505120927 8.16627730294514 7.172727505970429 0.8766808719781934 -0.12065698626314061 0.18765504955024453
Ni 3.3531799436844656 2.05034681198439 11.903311752475014 0.8417982011683954 0.48029878269875353 -0.5105508967150756
P 0.6595443948231614 5.757139478262688 2.1218005765893033 -0.5588716953076504 -0.8198304386480525 0.15256514782564692
P 8.481214078570014 1.8356943579018852 9.780705980226646 -0.9245977502641303 0.6162887997745385 -0.2515395069090313
P 1.115428346975545 8.704345271394612 11.984292243105019 1.0045372042032505 -1.09839481088536 1.1890979310988876
Ni 8.268676567149127 0.9596623457449939 7.3045680997908295 -0.4180300065665188 0.46648218853063533 0.8643917701981952
Ni 8.331005729356091 8.52387332561915 8.902768622864736 -0.21694402832234896 0.45161812693460934 0.7237452281870052
Ni 1.6556491942778724 3.2520041216479627 10.038417908175868 0.2871945371084796 -1.114242319440578 0.4635269625570533
Ni 4.2916833787654705 7.8848002479937565 12.28581288469794 1.108774354347471 -1.3580039821764032 0.20782843917432597
Ni 3.055845560794853 4.548445005124135 7.233164600639309 -0.7489875476935617 -0.8744216436303714 -0.26944338377264565
Ni 5.781921295190077 9.445125277733863 8.392411145306365 2.065186935129353 -1.1670172971497643 0.4277947992627664
Ni 6.319552997440289 5.147637661708706 12.02177130324036 0.03997551195167309 0.16612900255301066 -0.2709914449860559
Ni 4.291038463514394 6.435988652402995 7.418460133130909 -1.4844536638619208 1.1232373238503366 -0.3448242718068061
Ni 2.93892621939384 9.32321732718482 11.097819242714156 -0.1833481946447746 -0.45861692684994565 0.3023637886497502
Ni 4.2757881146360015 1.0223139655774964 9.724821228506539 0.3677464278206183 0.7160072361127992 0.06840471382664348
Ni 1.1033551541134838 3.072243479458249 1.538513616586793 -1.2030947595986117 -0.07094213553651653 -1.1835757157290778
Ni 8.033064367406642 2.947717931713659 5.846203222841109 -0.5180119809788111 -0.8342491851765438 0.24133968355789404
Ni 7.847290838905422 6.060704880563436 10.186248606603836 -0.5151835103910805 0.0823254376727937 1.3527504470869476
Ni 0.7848115951064886 0.2709886464783647 1.1258313990182747 -0.049680912164895084 -0.7747060355055884 -1.281663558442451
Ni 6.139820807394004 0.4067309775677771 0.8849128745261244 -0.456002372045234 0.9345278648936486 0.3783817960472774
Ni 0.5107131293512427 0.5250691325211578 10.40774569799078 0.5591270058515662 0.3611533479841328 -0.8126058958751554
Ni 3.2948530496532986 0.24943804463982464 4.491430703309865 -1.1417788342979498 2.3601534028737676 -0.43881531874298624
Ni 7.317227406807547 -0.09263448857886541 4.147352293979371 1.903992136653166 0.8158781388685239 -1.016026950010405
Ni 1.0897076093149718 6.642987479902874 4.25494217754974 0.34145818354805063 0.2889117769099024 -0.8330721341493073
Ni 5.542382699654273 2.3264464118275345 8.12925821912858 0.30240415496938244 -1.2552886679933477 -0.6940762403676627
Ni 8.639322639609622 4.063658417270942 3.0681568032569433 0.43432205885832303 1.2065834894781606 -2.2557750991659926
Ni 1.7714683861329314 7.424795477067952 1.5337934059917826 1.020600171203384 0.3164418640093712 0.5012360470720528
Ni 1.8685091633242978 3.1377023774424955 5.686655931748732 -0.23540249213785264 -0.24315282550723283 1.1763833117456968
Ni 5.708467344902046 2.659639979486553 13.200700092327398 -0.7234901747534056 0.0005844117485602839 -1.0164383265162107
Ni 4.67016327471698 3.7985982490785744 1.7312076547749302 -0.11118247111380207 -1.8966938032195402 -0.592943697290695
P 5.638380231586546 6.141442579569505 9.826054903234683 -0.2091823820990591 -0.5879411018697809 1.7716718551194843
Ni 2.0499389979285625 0.6265351664206448 6.460305750987696 -2.561642015872995 1.8081177566513442 0.15429807135635362
P 8.067169003331207 6.27042562978477 13.058435581559086 -1.8548544985862507 -0.08716553937391439 -0.8341447983881956
Ni 6.5643647235584215 6.505241169511219 5.198244540822578 1.4614471756644185 -0.4537994508566443 0.6004181512908692
P 4.615554127427313 6.900346601273565 5.399280747464343 -2.75393790662936 0.9862941988326626 -0.7355787304868234
P 7.441866763125855 2.5372673105948214 3.7116314274709326 -0.7701587824545382 -1.9002175001020822 0.29795486094877716
P 3.407144175723058 2.790937137367444 0.22570326659065407 -0.5354808271875359 -0.6991523693389894 -0.08461551925855104
Ni 6.57336508493006 4.092385598087268 0.7233265131546094 3.020994021116752 1.4522907059761312 0.4619171948677722
