# total energy = -381172.20122172055 ev
CRYSTAL
PRIMVEC
9.20009143460503 0.00000000000000 0.00000000000000

0.00000000000000 9.20009143460503 0.00000000000000

0.00000000000000 0.00000000000000 13.46526377403796

PRIMCOORD
 96 1
Ni 8.294277928855706 5.202890843802295 11.041071913484112 -0.45881335913146787 2.314872676659097 -1.061032825297134
Ni -0.025446532581831372 3.7321734454874678 1.4840602907561413 1.0078845234089286 -0.4155401502651295 0.3944236800014884
Ni 0.5868416249795678 1.0727674482706768 9.548151014777734 -0.9267759888623716 0.8201659676106003 -1.3329976899400526
Ni 4.147134364382193 3.3234685886903033 11.762176911159537 -0.6051692928226093 -0.09776928303168969 -0.7356692333181007
Ni 8.134205539980012 6.774809246636499 5.792971820935615 -0.20267337733594773 0.7883627070570746 -2.0427494320614428
Ni 2.058327230919611 0.24261836822562263 0.2820113192393562 0.060993508964236894 0.1039656416503887 -1.0995158118636805
Ni 8.582461589361614 3.1981909451866346 11.991113823583273 -0.4108139484340537 -1.4173288451889654 3.42940090277121
Ni 2.3370255972746556 2.683151432913565 1.4659361108558528 1.890929647042253 -0.9686762286405833 -3.1413085364388094
Ni 0.8187418868174565 3.8833493460567774 8.50155046623924 -1.1556008277827068 -0.6117716286304755 -0.21039080058486345
Ni 8.162762623437118 8.604459007707598 4.184855658803094 0.49678186795544116 -0.03175106715935177 -0.20759009791127475
Ni 1.5919746019116812 5.899742560740086 7.743293659795619 0.19233702840694616 -1.543908110473812 1.0381212108062832
Ni 5.742761402547892 2.050635954576138 2.100069885256458 -1.7415819777126391 -0.4566086381706652 0.3194045461821209
Ni 4.142617119544101 7.3119013778034745 2.8967821534083096 0.17284035313491522 -1.2037038539375204 0.12779565419045089
Ni 2.3890521136889347 5.378741389291694 4.142696240329453 1.0484529317495943 0.6330871022788 0.1238621234639996
Ni 4.7610196577967345 3.6903498303470053 6.56490824316286 1.5246806297027677 1.2666619428272958 -1.1437395575687463
Ni 6.155928303635229 4.750089949308642 2.693241173064147 0.4042938879273489 -1.4773548480336105 -0.23516903597080788
Ni 0.37349610731574107 1.8902415625042452 4.873281012100948 -0.03703237016294912 -0.5778153262896888 -0.8123716683771622
Ni 5.1047258694185 6.190815049920454 11.960789402583607 -0.31340770516873767 0.16695175556462213 0.8570988360812077
Ni 7.513346577344954 3.3301754552625424 5.916098483088681 0.5547062510760511 1.1012186534874002 -0.1559587468882282
Ni 9.122221747011372 1.1803441160747747 0.2150686947680522 0.6160088066402746 2.2665755322156063 -0.5420571948534729
Ni 0.15829585124181367 9.093296659901469 6.292371177964781 -0.5070128016548301 -0.8581897551525414 0.4564677417174267
Ni 1.1518606333482302 6.496718086308571 10.03708802795786 -0.22882792424412848 -0.4545111322116882 0.23684308123912112
Ni 1.6165572459185698 8.087027471691343 8.29542334022504 -1.920143549602048 2.1177778218521914 -0.5194322583651054
Ni 8.26799326795463 4.814352587178447 3.909167562327934 0.27685407441442 1.6406330114013872 0.24979552763473112
P 8.42539763034754 5.151388732593252 7.042548464211228 0.6160815688597389 -1.1865782500008273 0.477212687574262
Ni 3.845739372740849 9.298624297979964 1.697888813214265 0.8921684260908312 1.8641858032895056 -0.07738840538249253
P 6.61720248223455 -0.016773606494520758 6.423119195767288 2.2052740050926474 0.8816382159834687 0.2156996143922866
Ni 5.000093230836784 5.685122830428447 8.364850909361861 -0.3489696614337474 -2.8848050006562835 -1.0752942203121545
P 4.95841681715744 8.515742527109383 10.083126204931988 -0.25511282608258645 -0.8048149390758268 0.841559345684712
P 1.3077837810386304 7.248816351622622 13.339497607616813 0.8106865673652555 1.1496356113382071 0.3598865654565673
P 4.638161638310211 5.438431581775485 4.076137259666191 -0.8474088624869536 0.15955392043865427 0.14621066636252886
Ni 5.143127050587943 3.0469322437954456 4.213604104159653 1.228354305496349 1.5513267715353865 1.3817085248821945
Ni 7.004158323151368 0.5876604331070429 0.17855629234659295 -1.9339871403533597 -1.1530014424866464 -0.05350157146256592
Ni 2.257490807813745 2.9538917202768586 10.07745710866064 1.4381149286963812 -1.2924261962755934 -0.03650375135298875
Ni 0.6521135128671701 5.13548177470107 12.996928527282193 0.09280756815104016 -1.0516788948860596 0.12259225561264048
Ni 6.19644550580826 4.397229646823535 10.733928704786068 -1.397605141507793 -1.2775361665376386 0.5898570879455712
Ni 1.9551298065838059 8.026849674367593 2.159101351201742 0.0020563683083964584 -0.7852290465240992 0.6062180458020978
Ni 5.1150391717881565 3.879356506423922 0.5325187657718302 -0.19530639544791525 -0.14871080707656323 -1.007383415402794
Ni 8.582553590274813 6.988702169733863 12.671526817350587 -1.850414460537026 1.2668712306246248 -0.7484375887273627
Ni 5.288396492529849 1.597319854968568 10.05354239128358 -0.09237279460646672 0.5363660580059665 -0.1623016583871205
Ni 6.489551215170335 6.880683897546408 3.6794642822972485 2.1498937285501296 -0.43995920253944226 -2.581010650207594
Ni 6.819484890086145 1.3508586085986052 4.658819523360012 1.4243821524913212 1.231871317510672 0.7771624674658809
Ni 8.362413805171208 7.791492938220802 10.151838926973248 0.4231362174448326 0.6608629868404876 0.9340676374277783
Ni 3.224475606087713 1.0458755813424825 11.564318827223703 0.21958583682057017 1.0455478422876574 2.338778279632101
Ni 2.8646232341994478 7.678957421195254 11.456838760378465 -0.06500622966805579 0.3063744524710401 -0.27694252036316824
Ni 4.782547871485402 0.808415704319952 5.884993894345085 -1.4997301304050172 2.3544905481610354 -1.035365502438017
Ni 6.186886610926838 2.3695479200906546 12.088413069373862 1.4339741670551303 -1.2196428937652803 0.5506742470985226
Ni 6.650966817378742 8.162459020423558 11.774053309044453 -0.692171310035466 0.9646542519653839 -0.5907361481164148
Ni 6.356186691396437 6.521282330132821 9.892350351294246 0.7956170746266427 1.7604667304322843 0.17109277431618922
Ni 1.4082947787090117 7.06243170157189 5.95180771753791 -0.6744037016393998 0.7009495704487283 -2.0337163753248975
Ni 3.475408096839168 7.076443440652164 8.903757298537128 0.10353472476055718 1.2820109144795404 1.517111559106258
Ni 0.9167007791556856 4.162645718347618 5.642538367735825 -0.4034274261619955 0.11456424310184139 0.7815230584274218
Ni 0.8538558753582844 0.13678511772665405 11.60669352783423 0.06328539032220713 -0.8883423674765217 0.8576498234886714
Ni 1.4829167194050723 5.6788575682395654 1.6939842944580814 1.19924427550427 -0.5854386471629014 0.18081025871426926
Ni 7.889694712969877 1.0321858454584067 2.433684516709376 -0.37308352376281556 0.18005692548801247 -0.217182112475084
Ni 4.460967879488102 8.716120516057751 12.868752855012744 1.5436008636460385 0.5302062090521578 -0.002651835800550272
P 2.713419733356178 4.1897399872848515 6.89469931666321 -0.6641105472435078 -0.5401926308409084 -0.06384691925263199
Ni 2.924837831888477 4.5290669554383225 13.266099279066305 -0.18614169822951168 0.7837272651675923 0.303708989823735
P 1.3535358351727087 8.712394479073174 4.482451932738433 -2.5448992491970173 -0.1415204599757111 -0.09701389292290388
Ni 2.92273101097621 2.428336503625093 5.213965913733243 -0.4733298075800881 0.42013985382066993 0.2898404593717589
P 6.808398780045613 7.970646316494059 1.6146868673532253 0.2967495277867664 0.2959946518986128 0.7531707325369738
P 1.0292602164186648 4.31012318220631 11.018181166270962 0.7350382846023212 0.5899859002139517 -0.5239838822915298
P 8.26473643562737 2.8740625278937095 3.360795199193578 0.17119536133232452 -0.8512791440756371 0.23354538432445585
Ni 5.671350293722492 6.209141631829782 0.9342941137868133 0.5991868499869294 1.2120434841514673 -0.4752265103821687
Ni 7.222504090447584 2.97150069506323 0.7591482952925233 1.2753931520527069 0.4666449393607447 -1.0691778230017714
Ni 3.272122879033699 -0.007266232124491275 4.144110294365328 1.4769110756279724 0.9849096597803103 -0.12204332508770595
Ni 7.092120396261347 4.324999729870659 8.523565364758733 -0.2147130821093012 0.7981431834826062 -1.3703036254793626
Ni 8.955847295581515 8.435674132351917 1.2744454101225515 -0.20213601677523899 -1.2418094025599904 0.12121208743566221
Ni 8.444671821662821 6.050541257565278 1.520659174036008 -2.1469559860780447 -0.09288392991493036 0.21669051755064617
Ni 5.659712178202763 -0.040667163661545686 3.417578162820268 0.10656194162265518 0.12540915623614532 -2.5716986287780483
Ni 7.919760611403452 2.8703732912744124 9.99891408904402 -0.13646567116062303 -2.4409186951482926 -1.9165915705847314
Ni 3.5546760836518003 6.131621662367939 6.22232536269126 1.7686906610039732 -1.163337534305332 -0.2713328874858747
Ni 8.647175031706094 7.2881927424719795 7.919783611631753 -0.011386387460070714 -0.6035960347982186 0.6430591258898473
Ni 5.31087231562447 7.868874906312845 5.156751465823648 -1.830799514519576 -1.0420156607646829 1.9244917992684147
Ni 1.6631649085454028 3.380766757430911 3.2765297227759524 -1.54964629850917 0.8169196927591609 2.5465673809280593
Ni 6.061719368519009 7.418861639489136 7.310399002890928 0.6861243325104376 -0.9371442194705731 1.219472686736003
Ni 3.729192615899806 2.374359567850985 7.969739187489913 0.11965502736118748 0.4366224248567254 1.9173719003941816
Ni 6.322137153421326 1.9843860969812257 7.373928393482533 0.4977905117256137 0.39011836775791525 0.6291072916954455
Ni 4.857261813094663 0.30513758879029784 8.1489624864572 0.18663972091185274 -1.5037965871649068 0.5695451158610966
Ni 3.156367330046172 5.3905543065465 10.769719820048042 -0.028974018634846874 -1.1318407492486313 -0.4524977013260853
Ni 3.754410066207771 5.068201506878324 1.9809958633298266 -0.2622296396330258 -0.5542794479512776 1.149133474890808
Ni 2.732841126132579 0.3844469760138697 9.62956170285878 1.147717825490204 -0.46424789988347787 -2.0225256488154004
Ni 3.3175345297889396 6.971175995769371 0.3994688851210732 0.4430095593299918 -0.7282084061646813 0.297852531042958
Ni 2.1782320210924326 1.157739491701674 7.105834972391987 -1.1506982482747667 -1.295270350592608 -0.006899041112678441
Ni 1.507839766790799 2.616147167830417 12.646710491024173 1.0828815457411092 0.006593594057117677 -0.46487859148894134
Ni 1.0729790503710355 0.9371581022147116 2.6162870092184805 0.3837068078046166 0.42907675129898365 0.4059805316011524
Ni 0.005137330993056379 1.9652499070357434 7.1270963834323755 -1.3169318947264417 1.2688607502508276 1.7027169252163254
Ni 3.379423544098199 8.343802020430962 6.7223843662680665 -0.24261186540209828 0.0553422242157305 -0.3619940987178733
P 4.408757361247424 3.82277594480627 9.47796995816181 0.16957762322324343 0.042582867667533116 0.9653733895195955
Ni 0.6416484089907346 6.791811015395756 3.617119863467652 -1.4768054032880435 0.008316747395811484 0.45078611795161716
P 7.160412674129287 5.0019884496486915 13.135203139793548 -0.0007592467635277248 -0.09903349445609397 -0.35564938744676816
Ni 7.676224994073231 0.30320372959484576 8.594904712871836 -0.40402983563268485 0.2032567606432435 -0.529972495774797
P 7.9957257654322245 0.7844053059931639 11.162407317857186 -0.2661734547721223 0.24945177114206712 -0.08808008076838378
P 4.439402865434155 1.7629122986362291 0.04957653209577884 0.1803222633342572 -0.575884427815563 -0.28695979538985417
P 3.680818535739544 2.1104917487036894 3.1735071001752266 -1.4382933632557744 -1.2616261801756015 -1.1850247894707784
Ni 6.228599824971462 5.446831265150594 5.496641479565899 -0.5307710804166923 -0.8440684852598108 0.9514459808052259
