# total energy = -340862.8389570715 ev
CRYSTAL
PRIMVEC
9.34572122543745 0.00000000000000 0.00000000000000

0.00000000000000 9.34572122543745 0.00000000000000

0.00000000000000 0.00000000000000 13.67840769340894

PRIMCOORD
 96 1
Ni 8.629026078564772 4.615711621965642 11.808856389183415 1.0715751195893546 -0.32237237056119317 1.268523935736699
Ni 8.863659760456446 6.503556693892672 13.420761559700535 0.016272769018094553 -0.3995376041892861 0.5980391095357313
Ni 5.536386675904718 1.167766582479425 0.7372138696654175 0.14983515048899357 -3.1633531749436745 -1.1062305048796948
Ni 4.54873083657101 2.980929994564332 1.2458771875093948 -0.7747677419814593 2.4937443235897567 1.031659000120707
Ni 5.521938190594255 5.574732170878093 7.168183279885484 -1.2375771096461976 -1.6710571322191994 -1.1018272336056765
Ni 1.3918489448914646 6.644761198780002 4.985191914464756 -0.06886494129251365 -0.6853283189717037 0.8080797258700276
Ni 5.283332577100414 3.94948317932198 9.013606253157105 -0.4378110458481879 2.056452126359517 1.1688520363656578
Ni 7.050683262799876 3.6725320708547664 6.485576460458776 -0.0508088551217512 1.7675526907447883 -1.7218909270416152
Ni 6.781676017536993 3.8117739742445553 10.858084373993483 -0.29184977649230387 -0.7093138832530236 -0.4180040384245898
Ni 3.8565960541598137 2.2874494282691082 12.834600716151535 0.11036306053630025 -1.421402758148023 -0.6972510385512186
Ni 4.698654899540269 6.883955592723104 8.925748995261493 0.0861682084576516 -0.7284832570926227 1.4264200088569563
Ni 1.456325076946378 1.1804954550491877 6.344975689174975 0.219661427253512 1.9357650581893888 1.6099042148589626
Ni 3.398515518912447 0.3603728869783847 2.115790021000658 -0.3085506341867525 0.2074710558349072 0.2883854720927872
Ni 6.939459832217831 1.4601661684487073 12.231628788917888 1.0625405201909122 0.4284427172594105 -0.26323828340319827
Ni 7.0301133299613685 6.987926743485665 7.94744261563321 -0.28548141107211483 1.3371420511257293 -0.22748272307014372
Ni 0.7293036510581876 6.273969701566102 11.206048946646703 0.33423801165052763 -0.3661541436328339 -1.8693904874188967
Ni 2.1761699233585623 5.145156085952148 3.433882532470268 1.0352670291869397 -0.4830840587533745 -0.73269266718828
Ni 0.8341159167482666 8.873444730779898 5.064717461717238 -1.1078646980490081 -0.33448123800958524 0.26629686772386396
Ni 6.660770419567082 4.785897208966652 2.976968343255725 -1.8654150477109162 -1.5563175398817584 -0.4952551468982696
Ni 6.301763877059842 8.403840921025543 10.29605231399853 0.966305928636194 0.6089583275513964 0.3127559305173517
Ni 7.0591224492393 2.6725772621364703 1.64335165394057 0.32629664531626384 0.9092603485761116 -0.728341589308436
Ni 7.023253570441394 2.324636053786792 8.392483065787633 2.1924912515056825 -0.02578456516327172 0.43930742788805627
Ni 0.9163507886394966 1.3230177066562945 9.12107737659028 -0.1713087469817372 0.16037821611216252 -0.14405402503084225
Ni 1.2263362185988833 8.174777289098317 2.9917411250993546 1.1246552872437856 0.0019496675272030939 -1.4778652120111258
P 4.423572935356428 5.305481936858372 2.854095470927565 -0.4878825085832823 0.25327525865321543 -0.2574165345150986
P 8.750716717133699 7.77311687404453 1.4659016376822342 -0.12102851066994638 1.9350330651193706 -0.5408618889937912
P 8.319523822402637 5.350547005530468 3.9745353201520137 2.496876184350519 0.6393996747603892 0.7367969191646407
P 5.312967859713276 3.6066914634729916 4.887677722629102 -0.1949248437387804 -0.34165615849146963 0.3978242210426052
P 2.3202155275566176 7.887872987322148 10.523332782279418 0.4269777026781098 -0.07391355946001464 -0.037984706773889425
P 2.072516527124174 2.3605423154703664 1.784266441463977 0.1661724541964364 0.44487643733540155 -1.4302869480115303
P 4.975260216315059 0.6085354351931044 11.75620820215368 -0.6775137080232913 -1.08736169299965 0.09868151043331391
P 8.229374993615611 4.399797420071937 0.6192624542353757 -0.3720460836372367 1.4742237586037965 -0.5310844978920531
Ni 5.4492752065781715 0.5073623934227506 5.234713330573486 -1.3232041008883988 -1.094107496363916 -0.5026691799741536
Ni 3.6015139338080515 5.1337916887092465 5.340720914032782 0.7719570120055416 -0.37041600423298143 -0.03536912352791328
Ni 5.99984100096678 0.23027390285070903 7.965949013182875 -0.5690018417631169 -1.2048132849516153 -0.7611254686076762
Ni 1.5907726252493186 6.487584855991259 8.81570686386654 0.8390028978114452 1.5120979079417507 0.5023465065274123
Ni 1.3709799489676173 3.902427471988093 5.179342734895019 -1.006977438213627 1.428610588750372 2.1327534693254173
Ni 8.055946441282948 8.001516959751159 3.450350628178916 0.33176538174031894 -0.4562219442552078 0.9821112710995665
Ni 3.4637860372877936 8.706175008860946 13.204683807682038 0.3144739416497229 1.4456413189804136 0.576988202402703
Ni 0.6183250783772648 6.104812143920946 2.024158026224776 -0.6250446915902979 -1.1570005363437106 -0.13496620379696112
Ni 7.880826313373836 0.5232538581199784 1.0068323251089633 0.37977636240195883 -0.8708532095528227 -0.6512606878640332
Ni 0.48257567108095584 4.616562082614576 9.0985485805428 -0.18831865127617245 -0.6527331586445017 3.551718564566225
Ni 8.502279404709324 0.45199460146070825 7.694774495123423 1.4306458740128458 1.2725929635997502 3.0976370636927877
Ni 2.8213518013714562 4.5818988018794435 1.184211313884531 -0.2537398569944597 0.1768098793056245 0.7540891305861851
Ni 7.286251516833236 1.3999610310812989 6.008554951615859 -0.0647858861271336 0.09536555868620351 -0.2769918855438649
Ni 4.721617337061494 7.121421028204085 11.877864261553364 -0.8545153916247477 0.010740783456271824 -1.529957818941307
Ni 1.4425401378565104 4.912952291628857 12.995377030830053 -2.436053653746508 -4.873750242413077 0.759315411982131
Ni 3.1140317589832445 4.789168211462553 7.986371283622996 1.0740747460827564 -0.8189727186334476 0.3113441377714896
Ni 5.13800660906825 1.8374996706544087 3.242562531057171 0.6497771613399712 0.32613852247184477 0.28214643316161087
Ni 4.7679721152891155 6.357959699939419 0.5459817180336389 -0.6187372613150312 0.01596603641095315 1.0480173868740725
Ni 6.42101528233897 8.304234222164654 12.946968997607145 0.804293262244402 0.8001561001475768 -0.17590690787538094
Ni 3.509953901087079 7.302494380655737 3.690748751040509 -0.28677441885192545 0.24149472107851958 0.16379058422782114
Ni 1.143224718038752 9.35207650742294 0.6277567804311592 0.32669336653405023 0.44579046450923876 1.7189506134663688
Ni 1.7919392787472186 8.449354584325649 7.607068637914764 -0.993968684658785 1.6236310775267522 0.13138517131392213
Ni 7.884228155969573 6.016868905388298 9.898626445318722 -0.02662840122080575 0.5045483992747374 0.9369552433882186
Ni 9.28279667455976 0.8897911829449235 2.9381219176144064 -0.6458600856737522 -0.2050418775681243 -0.10923254647628285
P 8.10626380539132 1.086561609088333 10.015070395884226 -0.007669600730115822 0.09480454397641093 -0.581644984448424
P 2.2045061506944803 3.2557315871056676 11.634895130729992 -0.3805831745739704 0.522010560615243 1.1745478011988546
P 1.2500089309477884 5.028633631326744 7.100461378782495 1.2373544521124302 0.4105876913558606 -1.1588913256085203
P 3.134199825800827 2.20498278248674 7.843773331672414 -2.8993913831108906 0.588555081304696 1.7840054369841727
P 9.071845050738407 7.629463790145983 7.902973803987509 0.5219285424243979 0.4629399797053318 -0.6043043737191528
P 5.2476038841237616 7.924087657812478 6.331215048960792 1.5371592217857528 -0.2774058331528319 0.5351121309942074
P 6.266857607567872 3.6709806810995675 13.047341111052075 -0.5166716649008327 -1.091812529682152 0.7249202223317128
P 9.117283948267179 2.3373742720779713 5.612359914446653 0.2951104495214466 -0.2027073158976767 -1.5345860617419378
Ni 2.4377940487021266 6.5920700214317485 12.713396055096284 3.1419392280442726 3.3028707455567443 -0.4097870498314362
Ni 1.8715741709402782 1.1688133032781134 12.015400570784575 0.9084712770159129 -1.250162402510376 0.6905196333646559
Ni 0.14907827518103392 2.755585959761016 0.20076852576554197 1.7127226302787857 1.1372652626983124 1.2373426250378885
Ni 3.3405907375707513 2.228066714386383 5.193431409930935 2.615455976369657 0.6052659663014738 0.863575702054803
Ni 3.994819273915166 9.056097510151 9.332257970586346 -0.9720014363590744 0.5341618512657962 0.772781821899682
Ni 0.02350916222411001 3.2965069696474254 7.439289574178593 -0.5243140119374389 -1.7126897201583213 -0.8015223843674841
Ni 9.473197056985438 2.5502511145111963 11.301866890045199 -0.9810828298350524 -0.006929123019665486 -1.030956574737044
Ni 6.721994240568929 5.818805031400795 12.491709935655527 -0.7812253246813449 0.4530898263841294 -0.26289324135895364
Ni 0.12645789106366723 3.7789518006285454 2.318517409975174 0.6595193283283997 -0.00792722526687667 0.9924347645127617
Ni 3.4460758952028443 7.024057302483244 6.89162001885707 -0.3845807257691377 -0.48859341860737787 -0.31721448050933754
Ni 5.918682756182772 7.044066492036739 3.005118590735447 -0.8181448234155134 0.6333262148727996 -0.6955859921439698
Ni 4.2108362787444555 4.57444091618879 12.8622855467047 0.009915202231182923 0.06802521900003768 -1.0150702425240905
Ni 8.858229896313249 6.0134577170711445 6.4402870944726756 0.8716507657534536 -0.32527308914775593 0.09733965169343882
Ni 1.6512581342592332 2.252075872706295 3.82102250015868 -1.043311753868287 -1.6713137283146957 -1.452424403340518
Ni 8.093422784164554 8.49648505743087 6.086152476540044 -1.1268461242475174 -2.2648703765990414 -2.2916710417316533
Ni 2.939201348438054 4.895877658600255 10.592025703837619 0.18332685448853586 1.0446867798389428 -0.8378387023000152
Ni 5.0009609502114225 2.613652488603171 7.253030280912725 0.9173174145526332 -0.23223874969789035 -2.3194145303935088
Ni 2.9587806348063745 1.975741581852594 10.106647250903748 1.4996414273459526 0.3462520053922682 -1.2763367469128988
Ni 6.963609176358997 6.2608763458610825 5.402861550305622 -2.0523057082913105 1.0862872289885486 -1.619540452397146
Ni 9.42039373098018 8.296234284631824 9.916106682656817 -0.1102033950299844 1.0430888392242037 -1.0088576859554754
Ni 0.885611776327304 8.40855116461964 12.216227040022902 -0.22550734451132776 0.13382977619967276 0.05107933517431847
Ni 5.550349183701506 1.845789325551163 10.003991043144538 -0.7967198207725182 -1.8423854195849625 0.9396808698494978
Ni 7.9652088320466605 2.730913255220507 3.7845283925979856 -0.7167785670611849 -0.19687991058262222 1.520169886316608
Ni 3.737195117338017 0.4913475652028201 6.904928326154677 0.2489817734841841 -2.4005264073741754 -0.2921642224089291
P 5.122184302709506 5.259211270123501 10.947513582231412 0.005766470170132004 0.07399197810643386 -1.4256774742639768
P 2.2053005370149132 7.223523034683276 1.0841382635249415 0.7826988239030778 0.8255609133739266 -0.06505379507653956
P 7.6648186542659635 4.433040151151706 8.469574052611023 -0.7397017515162616 0.03942863830926758 -0.10495654480874826
P 6.95231954488743 0.5249473028407133 3.5833187487815676 0.5714598163853061 1.002432499155422 0.12745446880094824
P 9.232283050301634 1.0723093839276223 12.873980782485756 -1.6800950740517515 -3.038158448711181 -1.0109598199001428
P 5.342986316904229 8.268496183466583 1.1406892238183581 -0.20699951551512738 1.413474504439882 1.2138573974317548
P 2.7468383645148355 0.1901732813952484 4.416115049665773 0.879659237880227 0.0035049278294649318 -0.6206910426072922
P 8.2708886881493 7.5455205203797515 11.574367565973702 -1.996795848149464 -0.2955645063397297 0.5707851589157846
