# total energy = -340866.2521295221 ev
CRYSTAL
PRIMVEC
9.23757935720381 0.00000000000000 0.00000000000000
0.00000000000000 9.23757935720381 0.00000000000000
0.00000000000000 0.00000000000000 13.52013113809695
PRIMCOORD
 96 1
Ni 6.942410340912439 4.79090422323243 5.507506665515183 0.6121462383610747 -0.48798895225415956 -1.8625703791732697
Ni 6.914679127878644 8.338966053395906 6.390952722417724 0.30037221214101817 0.832937665453972 0.7356959727909782
Ni 2.6328486618345783 3.2870540272754316 2.453903818342613 1.3606902707593147 -2.564260941553081 -0.8571708269697238
Ni 5.18187552917593 2.478193109332308 8.22326814404068 0.8351462430695165 -0.6625948819299299 2.221718266691599
Ni 8.639261281011711 3.8891224951937184 13.402559922288711 1.073843861018873 0.0028642089216724866 -0.3670995382652387
Ni 5.271812601160287 2.557322213545332 11.607573558583667 -0.8178375765877399 0.5629258107723659 -0.5897334178835134
Ni 3.596577596603682 2.0091088328978755 4.461088463474019 0.5417890287937508 -1.590363316612558 0.36528562498495154
Ni 1.9509213209392204 5.243656459479071 2.10115022544489 -0.3971577911031999 3.878226811672662 1.2998425433443228
Ni 3.4192899748366545 8.18182559206416 11.619606429369085 0.7694085345520749 1.0069905508397496 0.36319968899020033
Ni 0.7901289546553382 6.954409956412407 3.5265502792668073 1.654012260921771 -1.366997186813949 -2.691620022426745
Ni 2.944995703681682 7.4167230872259955 1.5249220380793809 -0.14476107840019586 0.8143601595621007 -3.2510252216403623
Ni 1.3645567378168875 9.312680811379378 10.906500410848254 0.6287555647829817 -1.5849933105498961 2.2161736827242864
Ni 1.1049438094018955 6.886467560721678 11.239690658321935 0.2997294363506967 1.6564414391885536 -1.6477040593155556
Ni 2.7375566231064234 7.826086413539345 9.352050450562833 -0.4348427072484834 0.4144803415420475 -0.9105818956010124
Ni 5.267858917223423 4.45724285921487 9.725746559472856 -0.5761237975198787 -0.2577196675778142 -0.07388939109029855
Ni 6.8847678461319965 8.3262274315526 0.28048893385638984 -1.1736947091699401 -1.7345885771139418 0.2693665077881232
Ni 6.104552661572551 9.497801900385799 9.433265400179932 0.43650363989067403 0.7569155442913867 -1.6159097976230947
Ni 2.5267550636689724 4.167441521674479 11.707635941229697 -0.3984171174315977 -0.5223417187024166 0.4634076633703696
Ni 3.471269833511262 5.724084483283757 8.231975486281073 0.4220851504724989 -0.40568382629634 -1.8735957837494956
Ni 7.180961588542271 5.548856841698788 0.4726776947789188 -0.24696422883352306 2.7188199798803048 -0.7676578704095554
Ni 2.0550657898742695 8.801500886112498 7.220493809121262 0.6614376283970351 0.9207390386396723 -0.26919604364852995
Ni 4.292666146553273 7.718579465742104 6.814334999064215 -0.43386465960593024 -1.2893023059346311 -0.30974696848769884
Ni 3.9055838614915945 3.3812034354168206 6.493961892857818 -2.4249691137975717 -0.39005280462730246 0.6838684465967254
Ni 5.202401430362171 6.8188022924097 12.72724299313452 0.28324429421147995 -0.37361342812435655 -0.592107831652961
P 1.5748687055518764 4.282772699131822 0.41191105068201084 -0.7299559849834073 2.635281752846332 -1.2825660156520622
P 7.8783526371719965 6.585544177714034 11.890738619160873 0.8674562680561319 0.25228075595043004 0.6139601516413621
P 6.129909816728371 6.748993905702038 1.9751016084932727 -0.6941569730069271 0.9842198328021371 0.07357391673240878
P 4.098261290358657 8.747728937055292 4.629698303254389 0.43961518893646223 0.08871899990396334 -0.004136133655560618
P 4.686251687436335 8.67387449061785 0.3753976710155598 -1.164933160927226 -0.19025134952251105 0.3770360806526603
P 7.067385551150357 8.949449956048966 4.278648119978062 0.042656401217945894 -0.04978735583577232 -0.5955685365080517
P 2.4504896090363872 3.7552053082013988 4.481734453191054 -3.2427727518235834 0.07418866749827224 1.4435700382736816
P 1.3866345523241403 8.291845161428753 13.21529294361282 3.142829858179342 0.3497633609796364 -0.3416618149184245
Ni 7.061002383859766 1.0476431050552475 11.850895092159751 -1.3875009631942556 1.1916674915982768 1.7167273805628047
Ni 6.143867799038187 3.6010393474015907 0.27264992406942135 0.6339062557459857 -0.9519244631035414 -0.6083587462941845
Ni 3.7953518278032905 1.1491918142093185 2.2543462404190655 -0.027211527417785392 -0.40688478858297666 -0.9109526486768698
Ni 4.783227794840996 0.7189155321374041 6.563739795553817 -1.5969705375164303 -0.5210975618826703 -0.3625088335707628
Ni 3.5010887394649908 5.990542457953927 10.379904813259323 0.9115226622477269 -0.12097477461387553 3.208836246977138
Ni 1.142097353313264 0.38162287570026177 1.5511512207203404 0.18182687290424168 -0.040511844071117326 -0.36311381414461336
Ni 9.472029054161851 4.859918178121001 11.005170690295019 -0.7379868257076838 -0.8427762488109486 0.4960642730631264
Ni 8.189474307717717 0.3181810286404666 2.366834090970412 -0.9806074328605308 1.2942442233209388 0.33727628425621914
Ni 2.8300525045545917 0.7273171105032394 13.391405545293939 2.0153612698564776 -2.823805321044459 -0.8662185389942888
Ni 8.959001613036623 3.4607574682772646 9.170258585133157 -0.17556829358903955 -0.38540065056727174 0.503969386842816
Ni 6.700127111248746 4.877820606788388 11.562484010302766 -0.5634204910205974 -1.136068928397366 1.7024664997684165
Ni 1.606562840101828 1.7100237281692887 5.744689827651906 -0.44050530485089945 0.8019124207170513 0.32292464352023736
Ni 3.9422755264383764 2.7272290094582607 13.72996375009405 -0.7132435573247329 0.8346484774974915 -0.3940074183996763
Ni 6.280519309500861 4.833674215353175 2.837497069705803 0.390893812471359 -1.2002722025481523 0.8193761247194533
Ni 7.882019956150817 7.506272180880099 8.44343014257445 0.5045959646832212 -0.1907588852865489 -0.012577836665010595
Ni 8.765908493101433 4.989983294548666 2.1060175059737065 0.16557133027732776 0.1865906128414722 -0.18340784423811637
Ni 7.319830118034961 5.29857386836845 9.467336363881648 1.8201533476596397 0.8446122735784228 -0.6884928327426143
Ni 3.852005901599517 6.591964295321792 3.369392266534405 0.7367478110942601 0.18338239031681966 0.6205861415983118
Ni 4.322309538500459 4.486738449893387 4.311123753736094 2.01806607038215 0.4221483996102665 0.11535177200014328
Ni 2.3235467944093298 5.921750204968357 5.542672282362969 4.479293652291124 -1.463759111627047 -1.0685036797528824
Ni 8.742657506024129 9.015110669654636 12.909047791175208 0.7861518154486847 1.3015276443562294 -0.22891045665560575
Ni 3.8276002171107466 0.701465744855312 9.703884904321031 -1.263988509760191 0.2916327753854913 0.17015894964801015
Ni 0.2815078388522685 4.557895523177642 4.265574174006465 0.7019720981759717 -0.07015383530726628 1.568863494867569
Ni 2.772982739690237 6.324868927680493 12.784540926207383 -0.2194400552713253 -1.234990322755628 1.5348421436168018
P 0.49059582733110213 6.381393675366635 5.513036280479217 -4.058967907711894 1.5100680219959155 1.3870517914719789
P 5.249254432529864 7.3878371767807325 8.749254985154288 -0.46217404807358464 -0.40825852900205173 -0.05674090433547002
P 5.182540634884935 0.28015083845431227 11.428444887263797 -1.6168824459490088 -0.6913141042414932 -0.1306521498026395
P 4.356202216921844 5.46380644915976 6.328692361749343 2.4231202335142914 0.24461218366157875 -1.3463694832612685
P 8.033968897920607 1.9192548991271443 0.1679807606306015 0.34265786028310663 -0.8257763718188423 0.23738764088868153
P 1.851755907242418 2.176382918712659 11.254035695204076 0.6258257927306964 -0.5739800117039986 -0.0801158316159846
P 5.0094191613784815 3.137977972665371 2.0196369020166687 -0.46817834528613567 -0.6238879522780353 1.3622010509768863
P 6.802248550318906 2.8239649398013364 10.061140893365547 0.9288968918601164 0.4224109092430338 -0.447048762396372
Ni 6.440274005772169 5.824432307129903 7.335211611313633 -1.7197013755894641 1.8462333325761429 1.149595502128891
Ni 8.130769491318725 8.960996930163638 10.50581763779535 3.0741690624778344 -1.230313486105249 -1.1966675159160294
Ni 0.7665389484180279 8.673144721853804 5.178967539214891 -0.8695645726483863 -0.09788344001205078 0.8249528474762824
Ni 2.350816128478539 8.481566564922458 3.3271017047789013 0.9907499206111712 2.411588321615292 1.6553538625513295
Ni 4.457150483421952 5.4993434166950745 1.0667085449554647 0.1241734840568313 -0.8741311089731462 0.7461341374051667
Ni 3.470604727802257 3.0934343653206122 9.622385437261746 -2.5965190302558376 -0.13526110932956062 0.30418798634268257
Ni 9.0797737246968 0.5993212118369239 7.207365361431844 -0.8667479291351976 -1.1151190656185763 0.6564625437799468
Ni 6.06408282669545 1.180488732849725 0.6966095494216454 -0.8284379778114055 1.299143203284453 0.4899535321796981
Ni 8.983361109628934 1.8171704103741524 11.008618154886697 -0.01853071181433583 2.1508887454735475 0.47196480891176135
Ni 1.5091895167876224 4.266375995888988 7.264149685096084 -0.10998973635728154 -0.3308264148658173 0.6200428675003322
Ni 8.789436607557487 2.8607397429617434 6.9500230300067605 -0.7585998739723452 0.39637951817627864 -1.360940696207224
Ni 5.853586107374626 7.127854745194071 4.775499636005528 -2.5612401524488857 -1.0169744015253388 -0.5239828538502653
Ni 1.205032981027872 6.699554381332659 7.6051142793016915 -1.4681233021330133 -0.6829551907538367 0.5734303098481156
Ni 5.800396125812802 1.6706162149107364 3.7743474200097378 1.1472223739110243 1.2079220057839262 -0.18715085622031638
Ni 1.5191383896848236 2.367332920252166 13.594897408237838 -2.4507315674736567 -0.6520492452035996 -0.7321393657879713
Ni 5.652225353973331 8.912776766260768 2.59934026671173 -0.2123823770935955 -2.134071931026525 -0.2214396021998573
Ni 7.943218918958578 1.4261529165341935 5.197544311170576 0.48758991704352794 -0.2016863308323301 -0.37948582774473355
Ni 8.239394186210268 7.311608672465314 1.8955762121286333 0.7387507004569019 -0.3025954450445821 0.5932846255698815
Ni 8.051243171196157 7.031894771511501 4.4006266594937395 -0.8876576827046713 -0.6688938275647642 0.30731470489712237
Ni 6.531042459892783 7.502401635156862 10.471084339658416 -1.822313588535752 -2.1053272547936643 1.2339071169937783
Ni 5.948871737768899 2.585949471770427 6.152470756632582 2.586053097727507 1.6416650522103275 -2.5142414151018437
Ni 9.381777904481574 2.754784708485514 2.7146529690104892 -0.4178055492605385 -0.9531274822727069 -0.5357340808489225
Ni 0.2669928305111613 6.576583725801049 13.369179005760088 -1.086536368884877 -2.047336537211493 1.2943480958886546
Ni 1.172258049700787 1.3616838506571574 9.15350715884552 0.3049333491491394 1.8470684268829285 -1.6485270694374832
P 1.886175127683432 4.851576644020562 9.446028963487326 -1.0153795462343933 -0.35763993551423573 0.36524165912089357
P 0.5168074585714074 8.456449586828224 8.987818241637196 0.45967570713176314 -0.32132978822929176 -0.18064467967068246
P 0.8535162999973119 0.9276469500555766 3.660940430318863 0.09851593138972711 -0.005760813743177175 0.05745952766904943
P 7.621889723295487 3.2986471892865623 4.103292076040937 -0.0679686547304894 0.1583105349498564 -0.5191319535158673
P 6.837397539523968 1.0853416661448285 7.393456396263897 0.9634900564539536 0.0643955926672504 0.008652019248043163
P 2.7631077674273694 1.5470358791458714 7.744547224889107 1.8843543078175806 1.088337426649358 -0.8605777957687437
P 8.450010994061882 4.929430962291326 7.591512867552537 -0.11632082078163193 0.5110669171195457 -0.31756260787737567
P 4.568657303052516 4.550634785854336 12.396864664797244 0.5696847267627544 1.1138062603444236 0.2466796077135687
