# total energy = -381171.0857870952 ev
CRYSTAL
PRIMVEC
9.27341608615042 0.00000000000000 0.00000000000000
0.00000000000000 9.27341608615042 0.00000000000000
0.00000000000000 0.00000000000000 13.57258181334049
PRIMCOORD
 96 1
Ni 5.628796730507343 0.5829862941220115 0.2591363431490508 1.5491338776491257 0.47591788002223845 0.15154930496662286
Ni 1.9802731221399144 8.397857363809406 10.949137380984588 -0.7039094244080006 -0.1460882818520516 1.2417181283977647
Ni 2.8572600950716973 8.260360421357683 4.516439325542397 -0.23118588295334377 1.742158933262032 1.619767737916604
Ni 8.110205265751132 1.1302810638555294 12.918790586857174 -1.292249304378097 0.5981854053056084 1.9683936428576871
Ni 4.55093828860363 1.7259311351821052 2.1734856766469566 0.26700829196859177 -0.31426851050713617 0.11786785355377766
Ni 2.1811445911118432 2.2307295476970843 12.664630358857483 0.23316074729152747 -0.4967695266602671 -1.3667279923129623
Ni 1.4715056874782202 6.755980473341837 9.29590241031773 0.05917033971256907 0.34033589701814937 -0.8244473685947736
Ni 1.8563246408011576 4.509189368733281 13.100825892781423 -0.4287738753465842 1.1519089807534162 -0.2907516583321186
Ni 2.2005445778663457 6.886309065047275 6.739790943286383 0.5953129688538199 -0.2757778106311057 0.9215065129333162
Ni 3.5709700284305717 4.319316171410893 3.658625140667466 -1.3893503576981687 0.3484608401181289 -1.4257211830177188
Ni 1.7615317800915387 6.288257178916964 4.418676189614104 0.5054009770830199 -1.0985858438502434 -1.365795453196364
Ni 5.550696019012878 0.790466926841519 9.445390807297297 -0.5328220494084501 2.0828529849505486 0.356269023308638
Ni 4.206811085700749 3.01252490302133 13.608820851871103 -0.3859045867868838 0.2789793482875389 -0.03569179697465466
Ni 8.759502049971971 0.6297363673655454 6.420998713525614 0.4672725456424146 -1.2353852442012014 -0.482115267082202
Ni 2.0517989815268534 7.4556226342788285 -0.01219083297680154 0.04141687238388996 -0.4308104461606387 -0.52124102943907
Ni -0.11605309475998825 0.7448445010116312 11.089857762918085 3.1371122389692747 -1.1279645541226768 -0.7841065028838818
Ni 7.924143442499537 5.662904355403642 8.909992903246069 -0.3349556065428425 0.13584269286464346 0.14592373124972932
Ni 6.761488882582839 9.143894426148298 11.27891026290406 1.045562754685993 0.03647778321105976 1.4346796777625872
Ni 1.110853256852335 0.04263453112037508 1.447108256717025 -0.8604746945319761 -0.37438398774179393 -1.4594946799237378
Ni 6.963473161502445 8.723623202575618 7.52520942233194 -1.2166203048888724 0.887485161682549 -0.5484978082724941
Ni 6.6681797684701225 1.9246697184209869 3.3990770578377747 -0.7773632706227773 -0.2881792696192521 -0.8983509007524593
Ni 5.741301816217487 5.520464682100987 9.647255459147528 -1.306335093047202 0.524779895830264 -0.3412712643482252
Ni 8.39905363450316 4.990952615331347 6.744975710300935 1.7107791333991695 -1.6082445677683528 -1.1164357275474708
Ni 2.405014132335764 1.1077744826637619 3.0654761096982948 0.1391272771531862 -0.2592173351692632 0.07808028924319456
P 8.502368764728738 7.299319203711364 7.752930213316446 1.5568618424210028 0.8607971108684014 -0.9282376610095627
Ni 2.829486213460925 5.9110517003193825 11.06777590418968 -0.08832536400997047 -0.15226612852798938 1.2912357755119181
P 4.611326775097569 6.645274430380437 12.370485942096138 -0.7424867704605664 0.5883385944185158 -0.7065568893331766
Ni 5.551697547965787 5.241028830823061 4.258642063697051 2.6713641003911865 0.4769000414298496 -0.7976986397460198
P 1.1753776869851398 1.3961962742691791 9.067421199202311 0.6880120364514538 -1.6287827969310205 -0.6337381055992376
P 7.831112530873741 0.2748742578340728 1.2834751179608606 0.08389072527738456 -0.9530444356405975 1.2900921488257782
P 4.202712235726805 3.5255117420679665 6.890025850272516 -1.5235884250798535 0.8215011414822561 1.7612586302059603
Ni 5.466669594547034 3.9917791101446296 2.147264164913194 0.7099929115979191 -0.2747614535514494 0.07577246704562433
Ni 0.4318129174133371 8.44966794029 3.5228447075600338 0.28309799844160277 -0.07459361624617476 1.0562289761505874
Ni 5.65405751631961 2.0283557852957914 11.90831185994368 0.07802089676016886 -0.05951461042586525 0.15053371921791495
Ni 3.196463113956108 5.587771137102984 1.1453086348572843 0.7799724261108504 -1.1914093528408836 0.43138688748939896
Ni 5.609656399407298 3.2389168134599857 9.230469185394323 -1.0942090549387864 -0.3494653701232433 0.29451446780866053
Ni -0.034931104257581044 3.17322393288212 12.420514167977203 0.29396733705593886 -0.16791591925010435 -0.7739845839585314
Ni 3.3357127320754234 5.205251991005245 8.76130572942883 -0.07726576376169919 -1.014243375747421 -0.9192891935670232
Ni 1.1254403405831344 8.698853907823574 7.540818436531357 -0.5882953998854062 -0.07913881241469597 1.4783969161448798
Ni 4.882833855498296 0.6840405654705599 4.320776734467219 -0.10310637897388694 -0.4927876591943835 0.7733508070292746
Ni 7.084992007788773 6.409729658122139 11.361241506882944 -0.8168225050596641 0.9623436015543361 0.572875208675594
Ni 0.7178477316809871 4.609564826013747 8.782804290276326 0.8484401319649453 -0.7049748895580376 -1.0029387493678792
Ni 6.905653411304394 6.599547214947143 6.2525628725036 0.6216906875164003 0.8596131178626292 -2.0160369557672633
Ni 6.208459432252292 8.434645005996362 2.417140978740574 0.18490268361608803 1.439808000128088 0.7037356178342976
Ni 8.710093288295111 7.2310575868376095 1.5888607698769905 1.7483462930196663 0.5297912330019263 -1.0814108747328537
Ni 5.995597436094143 4.731185679878612 7.278011675238218 -0.3500299843774617 -0.7569191438358125 0.08136024554604698
Ni 0.8954670367962055 2.538115475494164 1.0296088572556834 0.3290433548234656 0.49154170260242447 0.6434813010289305
Ni 1.7470467039392763 4.646584303606469 6.3936087513467905 -0.18436455172443086 -0.8048257377091044 -0.12318000979531041
Ni 5.062506294966978 7.553698284334095 4.708138458520598 0.5429588807321358 -0.20562397532383941 -0.14632148090878025
Ni 5.1431664693411 6.975278220364051 7.49418242630746 -1.6614792587227771 0.3253607637655558 1.0951511071370816
Ni 4.576319628826896 4.240074829720061 11.421313769883417 -0.06220321300162191 0.36155238319476446 0.1700432500057523
Ni 7.158437464335456 8.00512818644173 -0.12044313000357401 -1.4600017014671436 -0.1475080450177137 0.399413419906596
Ni 7.856818440665079 4.083020252437913 3.362661279641668 0.09861774707491403 0.06434545615560532 0.39311961647808424
Ni 1.1573037987516193 3.22871605560628 3.5791037418064677 0.15347814655821956 -0.9873771474841962 -0.26138503224454335
Ni 7.348737238804453 8.457559617502277 4.6114751497572595 -0.2415849667994807 1.7746065122677759 0.8886619555994696
Ni 4.845703096910807 0.8797198486949528 7.210257314232281 0.9664033734460066 0.5813361949587537 0.015291378941431729
P 2.9343129105320984 3.188432335500372 1.8081937558808812 -0.987004594636126 0.4427215957759278 0.37999387772940363
Ni 0.4584721343931858 2.7167771125937064 7.100224521289226 0.46913942364782435 -0.21169383566700317 0.17277119045987666
P 7.50261103431949 4.15118913514936 10.292197447106457 -0.30402086463719896 -0.30173026883080933 -0.46444356083405175
Ni 7.54900593572139 2.496264548045278 8.067271203286507 -1.0575009008844753 1.4171172433987917 -1.2887052957805807
P 9.550134970964018 4.792974452223377 4.621667561536357 -1.64856383621269 0.8187827141098285 0.9901184576747593
P 4.441029759438066 6.491326447535554 2.7290931366896216 0.7877489847324756 -0.2944969843071638 1.151872985309158
P 9.04997326656436 5.699654903925675 13.268623722766767 0.4591751133462609 -0.7983820389662895 0.6469576896133052
Ni 8.944729265762806 1.416671977306436 2.795938702904956 -0.3975570834241476 -0.11068933352746743 0.22456632075429714
Ni 2.6468833744633598 2.7475184873982834 8.373251281183022 1.878320185808359 1.1974779276324667 -0.7292489316140537
Ni 3.3924845862394117 0.4745067983975883 0.3534395674816921 -1.2385392164491509 0.23291443560867628 0.4938446397039882
Ni 7.439394155875206 2.0313047316571353 10.498201751962046 -0.060371301999205707 1.1615819850668059 -0.3223903682833222
Ni 2.5551600145260833 7.625817642359796 2.390253635721452 -0.8784963279203774 -0.2621496783247098 -0.18608641951154406
Ni 8.53823833870886 9.98719107791416 8.827974173394159 -0.11475733294925397 -1.7612336905052959 0.31168789426415355
Ni 8.681531166304735 7.774924901932283 9.972129195272352 -0.27695151922423267 0.4840057992366955 -0.47175886354854235
Ni 6.021015869982332 8.009050841507293 9.579460295110175 0.8000334585267835 -3.045216383999226 -0.5553066036642114
Ni 5.0441912979114605 2.989146620703883 5.113022302541775 3.737453000054989 0.04768753588395013 -0.9397428334356848
Ni 2.9739382180856304 2.5478432891201073 5.0117306317377235 -1.9598264700139667 -0.09648424567167899 0.19706245890707352
Ni 1.0433149664445718 5.077538502676849 2.1618271377617937 -0.5076537776729386 0.7150101623068524 -0.5560123714819843
Ni 0.06785822326772042 5.517302447166338 10.967433831207645 0.49804402249731644 -0.7569579674935479 0.6483535415195673
Ni 3.878958728282643 7.350925765034884 9.56524971207834 0.6637541923453537 -1.9665961846376323 0.7081476308590643
Ni 8.200964190400423 2.282614311507525 5.039295861483305 0.7218359269794343 1.9423393689727968 -0.14107385935659575
Ni 5.537592681878981 5.200596736057464 13.600269834764829 -0.7127509339590306 0.4117434022268586 -0.13983613029475273
Ni 9.054480146852452 7.623675483210517 12.322275305796277 1.199069954709935 0.7963410972768608 -0.06974091613956376
Ni 3.6866095288266734 2.117278573531414 10.612686712037432 -0.22728629078862148 -0.3211037882614147 -0.1692094412505473
Ni 7.89251181973682 6.522559313400356 3.5912648998513315 0.8253158872426559 -0.7410706068393301 1.537791970273745
Ni 4.364857918519575 8.932896386652509 11.659661895868238 0.14866864098471813 -0.5261937454586552 -0.11823834951931894
Ni 7.227774797491963 4.260800914995544 12.388102650909488 -0.23459773684837015 -0.1305487914555558 -1.026642263632406
Ni 4.378730949200615 7.715686319050945 0.9720561814450751 1.4988107039145413 -0.22952443609052084 -2.0329028782846668
Ni 3.0653370084548346 -0.0649241143723454 9.14231516336422 -0.7712957242724587 3.550694494177085 -1.8695522098077415
Ni 1.4356546603305596 2.977629037745426 10.322694931064168 -0.3516747190697363 1.2732408815963943 2.5347999559794863
Ni 7.938897447722488 4.068479535788266 0.987547423258362 1.5980969378113896 1.0348633659906177 1.0580395469967647
Ni 3.8835676161492723 5.608831065362771 5.693779267401941 -0.05401244966071343 -0.522006703960501 1.3013402109357717
P 3.716256640516035 8.365112931099011 6.648474686321632 0.12055311369542464 0.2961226928360448 -0.4345364888619742
Ni 9.383306212974773 7.208207889245309 5.6729317003738355 -1.5472302328685095 0.35130653709704013 0.633187118191774
P 6.582623230326222 1.1661691846681126 5.9294000816733305 0.05938862637096224 -0.29760853335295195 -0.7552556400904606
Ni 6.659240195223783 6.302074569100619 1.6977538599653004 -1.427824602513967 -1.547105020144555 0.11166815250096898
P 6.406604516852413 2.8574733836450017 0.3739774024076942 -1.3655578832642612 -1.3076412134531352 -0.4903001168858394
P 1.5112051823615973 0.20028817109102184 12.856777397839627 -1.0182589246647173 -0.5587128011322829 -1.0586460702325122
P 1.09343778117119 1.3022936615177017 4.8644131414977485 -0.5260168535611586 -0.3857680612090195 0.27988283393841473
Ni 2.6626574554716815 1.0807424743514416 6.704081799407051 -1.7334714327903629 -1.0414299634645419 -0.31269036738673894
