# total energy = -340867.5554501815 ev
CRYSTAL
PRIMVEC
9.31722662466970 0.00000000000000 0.00000000000000
0.00000000000000 9.31722662466970 0.00000000000000
0.00000000000000 0.00000000000000 13.63670296490542
PRIMCOORD
 96 1
Ni 4.508838984862211 0.7157530905671519 10.316847851561123 1.1686926279696583 0.22257397291461667 0.7842152605476043
Ni 0.3043602579224114 7.878851970981356 12.368476038989755 -0.5071094751336943 0.49547394777729503 -0.08159267327182722
Ni 7.430264768904224 1.1099053267194834 7.086312819090765 0.5096142438334191 -0.42250732561158205 0.5043316552782411
Ni 6.464962802302655 1.9528721052831528 4.6730252922930005 0.9087705534238866 -0.6556379909961225 -0.6425991555342933
Ni 3.1504245846204983 1.8717190597530606 0.9360058103374743 0.1101198341772426 0.16393250912232413 0.11081737446489946
Ni 6.348078191949612 4.942295010597108 0.9294613902249212 -2.3275273893086306 1.1288870659369463 -1.2143410219363926
Ni 9.318810740279254 5.762071211626402 11.583916160140722 -0.4662029667273197 0.12386906544253505 -1.72232492925524
Ni 3.005206287533011 8.536443204899019 3.8205540106586944 0.09783124661787668 -0.12473038500156582 -0.7317002213680237
Ni 2.064846537106419 8.829190471323301 13.431470992157584 0.5667721811016496 2.7089060632007023 -0.16540420857184415
Ni 4.526327419587812 4.102542675283482 2.6602070814259147 -0.2904523819241449 -0.44227190983301895 0.16205920335901122
Ni 3.0767160033129715 3.0267943020557686 12.32042057826294 -1.0659775708969188 -0.448966291134059 3.42719001116282
Ni 7.186582018870466 1.3425751146617868 9.807121938868159 -1.701943794495727 1.4787357875415372 -1.1219952239131192
Ni 3.393604204406423 5.4925052055096835 5.943652781514675 0.9569008332722101 0.523784107575898 0.2909578608056538
Ni 2.426597185298309 7.199383888509772 1.3825162025582736 -0.5932591716485847 -0.3961308925005823 1.1878997970257283
Ni 4.302350604260845 6.725640174040992 0.16742497547054402 2.165436047160103 -2.0653049487644557 0.2979350634544353
Ni 7.3954742439892565 7.159291861538935 3.4411127439193896 1.425773119301577 0.9236842373109254 -0.4549392208880423
Ni 2.496439117478971 3.4593651912435517 4.670598154708547 0.6780194440151162 0.9135337791404848 0.11952698642375546
Ni 9.162598115553934 1.3208846106440997 2.1907502230132083 -0.3853582273651105 -1.3551048062517372 -0.0435215774317186
Ni 1.457121101085088 1.3901954608964942 4.66469382807796 -0.11458841147155747 -0.8915007105998453 0.12744469860893534
Ni 3.579855568372731 1.4089044523344303 8.449765043869576 0.08148160161525968 1.4798207930756 -0.7450709862479749
Ni 3.508112921922477 4.515184016320993 9.085917338893468 -0.26012981968120363 0.11722764886661746 -0.6813464515058201
Ni 2.289037648650056 0.13349722575834222 10.853738139023662 -0.16540935077816674 0.5659759104525995 0.6194535706557653
Ni 5.657354899489468 4.932083330011461 7.605803185482415 -1.1698807347404885 0.834411421786021 1.4123763862796965
Ni 8.004979270331626 3.5382261989779606 0.2996066088030712 -0.09691079168613632 -0.5426063824887235 0.561418115878588
P 8.685779716237287 9.028103946526738 8.423295734220158 2.6764109187864746 2.77053643441799 0.6589256606084587
P 5.043163308060802 3.3152929130539057 0.4090942727902889 -1.5645041894576086 -0.5749809421646871 -0.30673646379614916
P 1.0462966192758623 5.291569892088103 9.284249419143855 0.49765630014059453 -0.8518383590132168 0.9886490722180844
P 1.9561797208013139 3.7957357136003127 2.5728236063268244 0.7214937131486671 -0.11910686816720134 -0.1359689340298626
P 5.926632071575024 2.2716703378730077 8.240332419595704 -0.9784518199701084 0.2048089356217118 -0.6643375756526495
P 6.877781170649588 2.351304675432789 11.849940688346306 -0.5947041316252274 1.409488266098624 -1.5827862755962483
P 0.8315662198368472 1.00693133599634 12.185171713863994 4.410879939603416 0.28731203652295034 -0.5547736139788768
P 8.75101893837296 4.559291768047681 5.835813334950451 2.768506805582471 -0.4763328560724699 0.5367933753513723
Ni 0.39907452707696384 5.670836926686028 4.081697243737618 -0.5088339140239689 0.5398208493237865 1.7949462522663924
Ni 1.7204072963307073 0.16837905949606427 7.836849912514117 -2.2742885845891476 -1.5118096872773703 -1.2393144040522786
Ni 0.13341337071703674 8.236940949036239 1.3275920822258578 0.07279821490864881 -0.3792659984244436 0.4096641511003267
Ni 2.7847141150336268 6.969071358950833 12.16458064261009 -0.8803266962608968 1.6248022150167178 0.052053783272445836
Ni 5.546125845811138 6.202664233099077 4.251132876754132 -1.6674907550241798 -0.8051571529065938 0.5820234508337654
Ni 0.8673620735247991 5.646807798738599 1.8781013601190897 -0.6098957517640012 -1.1773047951187015 -0.21449376700964348
Ni 2.942091393110411 5.875061221172146 3.628181228677086 -0.25547817984180515 0.3735285817200341 -0.7004374066990001
Ni 7.094108542764133 8.706650304295543 5.290945637891717 -1.3950924023882685 0.09025780514599294 -0.30027913820657964
Ni 7.030089877340796 4.486841012359737 11.84287636697766 0.43482136709224467 -0.28560456691354036 0.26557464484585874
Ni 7.307659381288785 4.135264775846247 4.283274514086527 -0.7221915105466401 1.2130063622853688 -1.4102400566629842
Ni 8.404119949718954 6.092478708823662 0.2710651479107255 0.24426251363164384 -0.059092178176465976 0.04605128583210779
Ni 4.6065673768903554 6.437253369764596 10.650687815115822 -0.6329168952495229 -0.587517384068801 -0.21768244915027027
Ni 9.010606194574326 5.877725948040299 7.700305021865661 -0.8021687597022313 0.05856458780777011 0.09656446409031111
Ni 9.107048809302453 2.483544075571549 6.050946238587733 0.3931586972461358 -0.06597862088365412 -1.2586704399813873
Ni 7.208020957764236 5.805433585208154 6.154080485612038 -0.8683067889818852 2.013968760384325 -0.7136274230267129
Ni 1.215814243888319 2.505467510259529 10.306920346393236 -0.3276253914300164 -0.5981823199818149 0.40745943013952407
Ni 8.43700976036433 1.4254518471520472 12.96539535535485 -1.2034436582975983 1.5194031833539123 1.7020900902656042
Ni 9.17768270576211 8.204265434607533 6.336403706754524 1.5914637487655883 -0.34548890197399856 -0.4116045626561492
Ni 2.4895071007310503 5.0271842640786994 11.241906852117507 -1.6897986744927609 -0.8912271452234846 -1.7268125327129487
Ni 4.197242968597817 3.234568459957153 6.842720446157081 -0.4556539875668798 -0.610385032695594 -0.47022468629220304
Ni 3.491984802311388 1.600783421295018 3.2041616902571004 -1.444108941496287 1.0173194435695836 1.2594854796835147
Ni 0.2986199144837099 8.606965294636936 3.7669622537603553 1.242146988405067 -1.8331816415985074 -0.4007282820632776
Ni 1.9800690903465672 6.465018705663525 7.673495633437613 0.41413452816685453 1.4405687895535126 -0.18529040597280994
Ni 0.3122743103762874 1.9629906136006823 8.247518796635585 -1.4454551711115364 -0.07809802985500744 0.9643871143469261
P 4.6210929334898285 7.195014109135074 2.4763027268934787 -0.3188980388593476 -0.19366937406512452 0.26144751005136263
P 7.01652399510293 2.1807714730978547 2.2218008130859506 1.062990720354453 0.7086222565026377 1.7327309550799128
P 1.3280495580623133 5.671861821635318 13.39889237688772 -0.006398190216859949 0.316099650178604 -1.0917541656403906
P 4.737138993429817 0.7970253966004341 5.089872429513323 -1.1934261261605963 -1.1863522500329504 -0.05451124367400289
P 4.822494108251996 8.242139961597179 12.366198908756969 -0.22043455797411066 -0.45951244208102154 -0.7866518950135549
P 5.0773109443257605 3.9238755339419154 4.835111496800429 -0.5761505369927561 0.5821887727670361 0.5252833178292438
P 1.8049797641007013 7.224810600478959 5.407430539214538 -0.9226861350637141 -0.7404512280877764 -1.1462587244461744
P 1.8257385454372161 0.333609828052448 2.11816157236845 0.5243890881497485 -0.5783789121026426 0.06612980174953771
Ni 5.395736487843147 0.6306271795245417 2.8986172128069194 1.6995475263494086 -1.4322502423854881 0.06963678646153168
Ni 8.939096478794365 0.29788385356558394 10.58339041757744 1.0964202036574924 -1.449999338838793 -0.473481502666604
Ni 6.891542714650501 3.407170086644289 6.5157258491409555 0.023457716802307987 -0.588653040335141 0.5962833031868893
Ni 4.263665478538578 6.80768767334501 8.26513767253655 0.6929405841013228 0.7563373031904136 -0.34377140506225956
Ni 4.573407366667439 4.870133088940326 12.241382543219109 1.541366574998881 -0.9333215032903732 1.2918777799712913
Ni 6.469612098481703 7.597499672947809 1.0139546615670156 -0.1428988283804765 -0.1172099082548046 0.7063856538626351
Ni 5.272972707371907 0.09986203696802848 7.26024867265734 0.06465501697622414 0.09679483493356233 -0.10894458292221881
Ni 6.902658166236884 6.763887390103108 12.092987071788823 -0.9760270125786996 1.426487371759782 0.3772983331751115
Ni 5.760170497356811 8.118314017269403 9.82700396916169 1.6254398486007167 0.8937018320162221 -0.17699319896102422
Ni 7.286313614663131 7.88553242260536 7.654199656710539 -2.270225727373684 -2.110954114062139 0.18877090832224264
Ni 4.16775394573872 1.0125775754442432 12.653415469345813 0.9647339561633836 -0.7878304887026882 0.3382669303042626
Ni 3.4385877754534135 8.24149707294717 6.264060099174915 0.7603942468686066 -0.04900496914379302 0.33536029818042884
Ni 8.6036763135724 4.002149556387185 9.972521349229835 0.26068954883941553 0.11446859806424159 -0.4845269618474881
Ni 0.9179779081794748 2.935457527620465 0.6012928226305185 1.1475213932086819 -0.748330373725537 1.784484176392804
Ni 1.1228376375341524 7.557910776224805 9.843831812506341 -0.5563885238744805 -0.5977169503096221 -0.02780468091709405
Ni 5.712130875915577 3.616230021845691 10.035058575590108 -0.21204787657231222 -0.38737011558881673 -0.3284057212394667
Ni 4.085110143918751 8.766699831097087 1.0721491285103453 0.9952251827737054 2.813875206414941 0.678519009359354
Ni 6.574216603896898 0.27089836955079566 11.926469594209742 -0.7132705539079264 -1.4691365738888762 -0.35600368546239336
Ni 6.509694808225729 0.8507541167329059 0.7409655063196696 -1.3447728281981097 -0.24683207413103295 -0.8505021567002965
Ni 1.605730868732042 4.17463005912577 7.151823172526659 -0.9820446795276893 0.3808755090034086 0.17456222092202842
Ni 6.8640382611023 5.9317472290946585 9.397447202847498 0.3108065201004647 0.18913137698545493 0.5570750084185438
Ni 9.07937664567164 3.4588061576348483 2.9029814018455298 -0.021387207426524456 1.0697115840180544 -0.36817580204855305
Ni 3.045335583411094 4.455926453798446 0.5825111568234509 -0.43395130578246555 0.6257597153794513 1.1028698159375778
Ni 0.5664613019175798 3.695817773271414 12.227049853214638 -0.606936154915045 -0.6168526426978086 -0.35095686706710527
P 3.2672439743858592 2.802165280851981 10.429350570144615 2.3182997000627754 -0.687642568927177 -3.6104117075320596
P 3.0661502681084793 8.520119423524884 9.031465601960408 2.067750839201787 -1.1860223774973573 0.5344125338240215
P 8.165356695441785 7.434205955845583 10.478075007756512 -0.28026824230229147 -0.024846369619718502 -0.17257810061246406
P 2.0356183965980494 2.1500618935264213 6.931140928600316 0.753411130682554 -0.6445773623065867 -1.619346334108469
P 8.579563330583666 0.7825277916813959 4.644756826146239 -0.39650627356213003 1.6312741958943067 0.6350650519407772
P 7.969806739117379 8.760802026525267 13.533200201378682 -0.6731338337880408 -1.880912372015567 0.5729310016141939
P 7.7156700606008695 5.3984571180721685 2.3867772213503744 2.1119362754697497 -0.3437994300867176 0.4949653835719927
P 5.571300992656409 7.201620022944584 6.361344991206821 -1.845781589750705 0.20741037780030086 0.055273575761324155
