# total energy = -340872.59608352726 ev
CRYSTAL
PRIMVEC
9.18623517902386 0.00000000000000 0.00000000000000

0.00000000000000 9.18623517902386 0.00000000000000

0.00000000000000 0.00000000000000 13.44498374338363

PRIMCOORD
 96 1
Ni 0.16195608498391 5.947398417537304 10.397880494688646 1.4195299666053423 -2.0342179975516643 0.841477584604183
Ni 1.446262520076052 3.4850739647763094 4.605511740685938 -1.1002573180153956 -1.4782326226528735 2.5761240115392536
Ni 2.7330060634049365 7.0314109330612204 11.786411200122298 -0.8141817250027075 -0.004914663692797987 0.37921894723659205
Ni 2.0896021399167903 7.943953179655529 4.667493107798434 0.42811541582697876 -2.249052692840494 -1.106730584444565
Ni 5.724687327859311 3.8203348098880086 12.57368167395511 -0.32205535354140663 0.8958440751702056 1.3519073823603622
Ni 6.4140775454791195 7.376896058110702 3.779573646419967 1.9189204758282246 -0.05873453772673111 -0.028849320131524508
Ni 7.898508873409159 9.125661308062034 10.737043652574444 0.5994102788516451 0.4329043525751899 0.7191488670655743
Ni 2.3824133915042354 5.176333381474704 3.4648798636197706 0.2586516924737804 2.8037471168420036 -0.4236941468308316
Ni 2.5898202130992574 0.017030361704092993 0.2476866263310419 0.20179714537858148 0.4883427360491525 -0.36897232980791944
Ni 3.12609426000661 1.9085873724648499 9.799847387564121 -0.18866189354820412 1.2574370817949183 -0.0761067104565915
Ni 2.2294166418512504 0.4665440902822602 11.255145488724454 0.9627079268722903 -0.3740384314769171 1.011300233958697
Ni 8.991441223452021 7.618889055775583 0.36045042104826114 0.7146327243627757 -1.0866348421359544 -0.23305173251748895
Ni 7.326592233367397 2.2478809748925292 0.9336788554971345 -1.1850109055137075 -0.6791011071150692 0.7075773601778911
Ni 1.2405918969610308 7.94093090822738 9.81026733431473 0.12178338655809995 -0.5256322165282302 0.9619813331189111
Ni 8.881674897327523 1.2518542214926764 2.538682278186725 -0.7599820990318524 1.0117005547209093 1.6446611587241742
Ni 4.8398966982389835 6.110095831713467 2.68771976040648 -0.8049782041265684 2.143158466708825 1.597405825281636
Ni 3.972091417769564 0.876540471657953 2.14830677688211 -1.5306147357990154 0.20422272410093864 1.4422142955767354
Ni 3.4431296141959713 6.52837268562817 8.901776217507088 -0.26344834253147537 0.4717532071215876 0.7411117444899107
Ni 5.028627903379817 7.690752974871067 12.70794309662417 -1.095785398286971 -0.3143628699931554 -0.6079208874258175
Ni 7.898646666939317 7.239984406544921 9.404941234987886 -0.11459406789851233 -0.9962541382588519 -0.2010805789275311
Ni 6.740639025720125 2.56364862860443 8.0410553617349 0.6358438390883308 1.1416027137314015 1.6011262115560168
Ni 6.9502046126209684 8.928726794759081 13.447538846269103 -0.3292937802713748 0.9957126639330852 -1.362078409356093
Ni 8.18727818144528 8.992598689105355 4.853961743174059 0.04669920382875183 -0.6494300624131977 0.2933261039275142
Ni 5.080272918483335 8.250075286256314 1.3969609136087686 -0.953391534567371 0.1932456562641446 1.8666072682468047
P 6.5321022971778016 4.300352351549195 6.67106523509588 0.712447800896315 0.3382733580621658 -0.8307815383429177
P 0.11030647676272068 8.259279894070923 7.889113191899398 0.4057889844156366 1.555285241962502 0.09543806379535176
P 6.440175640091196 5.476971305575169 10.271618445757072 0.42833061716157844 0.11653525078528318 -0.5583759866181545
P 5.6797850094982305 0.5038411244021092 11.794289315553245 0.33292649192795565 -0.2201514795160531 0.04059386226196234
P 3.5898613513444033 5.156555416779245 5.475886411181052 0.2999256115219028 0.08287385397709598 -0.11508463438168569
P 5.428890549785092 2.4252304344422457 2.205837412970477 0.717324669372642 -1.5315467606949815 1.107314739082809
P 1.746624857116199 4.723102902076387 1.3294861777606086 0.9658932665788075 -0.6156827907594236 -0.7257463177774339
P 7.211286607330515 5.388296575800311 3.05355790848395 0.19964976001827553 0.4813146255577775 0.21802877674609547
Ni 7.9741483352309945 4.004408593709474 10.924291280707232 -0.894013192609054 0.8701268729097594 0.3818766965744133
Ni 5.731108506364711 4.1650482911686 4.60774399587451 -1.4417245004245107 0.9044639556287327 0.5941197198766671
Ni 0.4026299392534035 6.145380161669465 2.1817171148279466 -2.030736980981599 -1.1710361885011704 1.2780020504304637
Ni 5.181036733970791 4.746353263731847 8.298781624673312 -0.15528306097744224 0.47569599381941946 0.18034823147618617
Ni 2.9048529679836443 2.6295966121384304 0.6824739010293712 -0.8329538634038881 0.847578041074966 -0.1183432505282994
Ni 7.448714046029467 4.526232692420841 0.999554267771918 -0.2725970989102789 0.6675532543764697 -0.10053604714354943
Ni 4.393491591701199 8.432771134776193 4.19514423540235 -0.08637646781371575 1.4278765387978247 0.52781919687722
Ni 0.5179658798669202 2.102132164925897 11.493982095925164 -0.12169185528555816 -0.44906013639944603 -0.054269559976842026
Ni 0.2828147902861914 3.201981750182732 9.266229081294695 1.5546033854041292 1.0411983070697102 -1.5006914658770218
Ni 2.286261066159426 1.0296575609939433 4.246907752941804 -0.388168443120396 1.0290179629534342 -0.7553327731852992
Ni 5.581473918847601 6.300645911452397 5.846658486261741 -0.5137403501866507 -0.9147190576978376 0.6331894321846192
Ni 8.271231186253363 4.866849112738044 5.310391788342663 -0.1654682290405602 0.4022537175688686 -0.2938562653993714
Ni 5.451470316260448 3.3782747926678978 10.3714333231335 0.2513441030687736 -1.4529476228338396 -0.8767220096287739
Ni 7.754643241688029 6.907993861215658 7.089593791859006 -0.4111309654538403 -0.2801224607530466 -2.1814411643391076
Ni 5.4572392720564284 0.7737262884417334 9.664738075372817 0.0718484494008698 -0.1998222810403978 -0.12543563859870654
Ni 1.1834535131218493 -0.01263015497435539 6.18196342530309 -1.6862598081015667 1.0667509587278337 1.8000285518853065
Ni 2.840264547280544 8.982043704695192 8.215584647034033 0.23203948920289072 0.46151918809840514 -0.05402273407335857
Ni 0.14173626236840803 3.34155740999825 0.3439510237470467 1.2792634336413906 -0.3780925469416327 -0.9588654131977487
Ni 0.9776359102413253 6.3856461470896875 7.968304052305193 0.010737183911846025 -0.9435367532604783 0.9063475458046907
Ni 7.920969218825042 4.940798307256599 8.348071289034648 -0.21852037167053337 -0.5056678575911614 -0.054961443837544054
Ni 5.965908681755303 7.671342459589365 10.576510515445305 -2.4779762621222226 0.020526659198442068 -1.4404623458826353
Ni 7.701895878343242 6.971525864854207 11.913371402940014 0.08237300308127748 -0.4481499658803508 0.6314251411953448
Ni 5.3296883943061015 1.0445760071924692 7.0390006007023675 -0.8292383622255138 -0.30703702575570346 -1.5790370929664612
Ni 3.2490703925556645 4.988236026572602 13.196036257776196 0.47154417643457497 -0.5601963276563449 0.031397540474674954
P 0.6100854478957485 8.615568031884854 12.07788493584367 -0.31303360965877053 -0.7118567042795354 -0.660181901613063
P 3.0407541336615944 7.5723699599939716 2.7718721065215264 0.42974369545902114 -0.6436504796169431 -1.8580897176940967
P 0.5739422049350958 4.102388979887722 6.955385649354939 -0.3654997978782866 -0.8643699158213243 0.7113795075328007
P 3.3637605408245044 0.6091475332671343 6.121501461516479 -0.3398643566983695 0.013356366702247966 -0.12874336281570087
P 5.1994367633646625 5.765648751257849 13.620575368324848 0.6985129359827776 1.115332467180963 -1.3280843117988352
P 3.589310177223768 2.806091751801162 11.936510611147812 0.30298779538699433 0.4874626474370443 0.06602644340245402
P 0.1482474659801784 6.999672489947978 4.44870362198876 -0.46403835497583307 -0.34662790067444815 -0.0006044663532183139
P 8.729661074856338 5.209027193063714 12.609781741609646 -0.30117979564397807 -0.12496255561702994 0.8141619275083655
Ni 6.954145507583511 2.0979156829030376 5.426691365043758 -0.1809105317375594 0.7011678571071215 0.07844821410557457
Ni 6.888895677935648 6.830434476206942 1.1850399759657442 0.053559421283694855 -1.2294747922540374 0.30560235019170595
Ni 9.098598658738847 0.8029403540824672 0.13947736709733813 1.1896520038301448 0.9612357132021382 0.14569284618584585
Ni 3.4414944643047543 3.245138683828467 3.424974857285783 0.7181376521922406 -0.5056395754563873 -1.5415663497145127
Ni 0.9103687833119378 0.9322283489363294 9.250391092938244 -1.473414889549256 0.41195011892102606 -0.3339927284089409
Ni 1.4064126311541278 4.338107778812706 11.940812525159371 0.5067580053315467 -0.16590197414386912 -1.0420969076245794
Ni 4.366557549672826 5.4065679978993675 10.894040089096169 -0.517176115341077 0.5084135386570986 0.3574558445278876
Ni 3.3615374718712756 7.259743998769692 6.603060453468376 -0.29857526814159546 -0.485398565819164 -0.7763003765759017
Ni 0.31902049964718265 3.738531384150402 2.652022968483542 0.04707149956650603 -0.22595060269633346 0.2510062601133806
Ni 2.5953135818349216 4.59074762324119 7.878585766195265 -0.003810631995341824 -1.138934165760303 -0.7610802171920376
Ni 4.99104701458784 1.6409831506611208 13.531166658346011 0.26946369548761984 -0.6879801547722539 -0.7201150876335857
Ni 1.4910178586716296 5.726313291515185 5.8456773963270106 -0.16366331462133749 0.36803696247784357 -1.6493439089118238
Ni 7.311186916695643 3.264604316522233 3.2604218235701463 0.26699826466626275 -1.3442881752522073 -0.47279578945348893
Ni 4.927459893537227 4.330409713594501 1.5969948627167607 -0.6987489632529837 -2.748388437566041 -0.5508552527610772
Ni 6.336453856822996 0.6100441098367008 3.451556147876949 0.6721699272128747 0.1633900063552928 -1.2571899987811188
Ni 8.564722219256257 1.8058117714370747 7.110003769546126 2.231484602049744 -0.9246221757441625 -0.16799588055842035
Ni 4.804860396637274 1.9099653077664378 4.539698794811493 -0.6693337433156601 -1.2836829028653247 0.668209914123862
Ni 0.8362919001221025 8.335194942953075 2.522103879261552 0.3950482009593648 0.7785832590728075 0.39249792373368536
Ni 5.151861250518501 8.145903377456264 7.997896590842095 -0.2553851059073666 -1.9531948236300622 0.30552958797224156
Ni 3.7162731359120844 3.1568681484087415 6.381553679243971 1.4627306703625322 -0.7001586991163168 -0.4451248059007818
Ni 7.265347602329483 -0.23480660575533188 8.055615544755012 0.10458270640909731 2.7876666663403733 -0.22903052717323782
Ni 1.7751205591530383 2.03143489771909 7.27806594516314 0.5587025167196378 1.0630292869018725 0.06599764704704762
Ni 2.117620157715746 7.027966094807251 0.7526815418923474 1.0576901340771463 -0.9214694890477936 0.38857622008177595
Ni 7.287137352565262 2.0164521478731565 12.066093484156214 -0.7595357555230532 -0.43407343318262653 0.48951927285575697
P 9.051794789661576 1.8512468914481024 4.932884365507812 0.8454175430885376 0.014863547375393756 -0.5791224751368864
P 7.753991018978611 8.651660750551114 1.9269616803997585 0.04831719904814904 0.8048414214383881 1.8930860312636237
P 6.00679661527109 8.384993524752465 5.81617947601415 1.2176112080472319 0.5031980558944302 0.3926020534117174
P 1.6512258030695914 1.225315187584092 1.7955507465579161 0.7681234971920643 0.21257958070606617 0.05506634484652452
P 2.0478874452200504 4.868539380041325 9.871629549165045 -0.015824111516450166 1.115672109908569 1.063974424423961
P 3.581336524945246 8.25737834335473 10.27462969370281 1.0910872214803533 0.14872032015826 -1.1602221286048018
P 7.9248825550815525 1.9224677740695126 10.014845714047357 0.047389545027557094 0.4219468251224217 -1.4052528878610377
P 4.666635113417311 2.5010076897942404 8.502003197445644 -1.4992434205765859 1.4590395946641903 -0.8057099400862704
