# total energy = -340876.11994698935 ev
CRYSTAL
PRIMVEC
9.17730557576632 0.00000000000000 0.00000000000000

0.00000000000000 9.17730557576632 0.00000000000000

0.00000000000000 0.00000000000000 13.43191436639642

PRIMCOORD
 96 1
Ni 6.431162005577721 3.5100715582893742 7.465565473440242 0.4078970318975749 1.725269613705861 0.24461269788221102
Ni 8.632467206879571 0.44927040104864174 4.754575669124596 0.6505641760176408 0.061889024195312774 -1.2806723981737749
Ni 0.6425040742823543 2.737938961853347 12.214445706784863 0.7150968084833877 0.9509286748491752 0.8988774626798907
Ni 8.742420503817826 5.790879756951719 9.974512308993337 0.4789070445575494 0.18356776685474838 -0.6864246373596758
Ni 1.9653199682269584 6.1075243278774005 6.565533359202698 0.4298642801972855 -1.5585754826779998 1.193641584605512
Ni 2.46069256334699 1.7430731614534245 10.912113558668336 0.12384541129345125 -0.6994629586008728 -0.13099230675087764
Ni 7.7939551599173456 8.484740120591692 6.908087298955363 -2.026664610684439 1.2606100802062612 0.9762039044761961
Ni 7.01975766974865 0.8471350431898519 2.516630075699719 0.8785701185811061 -0.49076857188182577 -0.6969126813751932
Ni 4.594590455909045 1.6285954529142554 1.848983855328387 0.37402069086510425 -0.4419726334250453 -0.08026367004775853
Ni 6.079368354669275 1.3820563185390558 8.095682938518227 1.5016214338904592 -1.5280994255763294 0.42299840631538765
Ni 3.911193226144914 7.528703499671425 3.33817970894598 0.09801713737643765 -1.285780408824302 1.3351638443534362
Ni 1.3277909112445145 1.8216308963496317 1.584549893000604 -0.16646273174334558 -0.9515909910235224 -1.6345600657344301
Ni 4.488289726551245 6.98494815006859 6.02348865934106 -0.8148070172915323 1.9574960221085773 0.7678321912038906
Ni 6.076661049553108 5.46542497276665 9.064379652346124 -0.4347033534571416 0.9387871543906348 -0.5344482721579634
Ni 8.733004588396856 6.6792429272733145 2.033457790482844 0.9471018449039172 0.6058102688407179 -1.2061358604177808
Ni 8.63103554722492 0.8656585165677145 11.555623465631138 -1.5588151094926315 0.19310116026648036 -0.17271565463159286
Ni 6.43841207690576 8.550623996622052 4.216156922657524 -0.6397668282918207 -0.28729738123493104 2.0611168788250374
Ni 3.0378533048916707 5.171136317986665 3.7102304262371844 -0.521251056741399 0.7132381580080942 -1.4060123917348817
Ni 4.015474948297437 1.7567289920054756 7.064072124712823 -0.043240298745873915 0.784488825923965 -0.7615998371409335
Ni 6.599418724221071 5.947683198357864 6.625398758300237 0.6090004936432415 0.3059360793820408 -0.7045046347898383
Ni 5.110455974162631 5.283870338484913 4.620726504181347 1.7932588372616407 -1.2276045718145179 -0.4285411905104878
Ni 2.144075524337744 0.2902295325668321 3.3690328922342467 -0.21573612405717688 0.6027015480084073 0.6716593061250432
Ni 4.38470547961509 4.888300940443883 7.351031783337654 0.046038687426617486 -0.1830761719303105 -0.6386134314136679
Ni 2.446678817881276 3.5843343142216297 7.775090290775681 -0.3904004177747083 0.5823474098320873 0.05447190579563522
P 4.043364779646687 6.658447153058968 8.520910634674218 -0.8103420395416432 0.07587325428954675 -0.6836959255746032
P 3.777571658377534 2.4775053869836547 9.11907455753706 0.21785702705492158 -0.619470797046946 1.1992558454684958
P 7.616594554239296 6.766601698123431 4.4993685697249255 0.6148014165957347 -0.9156246002312424 0.6001641262985341
P 5.315880779994022 3.301159376376143 5.761081963793484 -0.7431380308913202 0.07410304976300142 -1.8571643776663498
P 1.4365144492486461 5.509677939784116 1.6576865935506442 0.19900724133827016 -2.5950825549196272 -0.015736694008966445
P 2.4223222491412604 7.012324052311042 4.845468620314493 0.13511198534620603 1.4386690014276384 -0.8975376608225446
P 3.4954704652730344 7.396596187308002 12.978533477238411 -2.1261956136022415 0.14463612278655735 -1.5221709759070363
P 0.7279227627543097 0.4231628024233228 6.715984269756605 0.09168322473860983 -0.5897650424523972 -0.30457750847161735
Ni 6.020807968410782 5.1274523439088675 0.45452807935729095 1.275579814142216 0.6283094783844986 -0.6082278771432751
Ni 8.669488457179957 7.663912741286591 11.721346330231862 -0.05079677093689316 -0.03760881149170942 0.11240014557098707
Ni 9.119580227068926 5.212112986948296 12.23126220134372 0.09080159346460491 -0.027644501190145936 0.04610887854292059
Ni 1.253775942560179 3.5416323118300346 3.1287893894173173 -0.22127170916342537 0.018078197657949515 -0.0845404430462415
Ni 3.556462837483337 4.795380722473779 9.824008170067655 0.5967533008447722 -0.8324201023876051 -0.27576701199782827
Ni 2.8791318066405136 8.464072828654045 9.404152868538795 -0.9527227906351204 -0.009187837146855143 -0.20364782543407509
Ni 6.9318574378753 1.4972590342110286 5.928121771730379 -1.9144956072876513 -0.25938857063980486 -1.2723569363295442
Ni 6.607687476457224 7.050841203404427 2.356360366014334 -2.7404768960284476 -0.15000484329763844 -0.20328529988833377
Ni 3.421969425695497 3.67603395056309 1.8276539619351904 -0.633644774554483 -0.32216873919081934 0.4326996927635516
Ni 6.149024103251309 2.6072265999226603 3.7043606216531173 0.09632098062093734 1.9222145731984637 0.25523109682800565
Ni 4.133274841419834 0.24299669446048755 12.111664474078077 -0.6324510113566979 -1.8578014970297165 1.3700809679455952
Ni 8.81519653626256 2.264591899881785 7.017181600100827 1.2201938811727435 1.1335497615199381 -1.7185541493588983
Ni 4.624453407936178 1.0068788932713169 4.402054257891701 0.4049490050128445 -0.7917609341053461 -0.09396122213950915
Ni 1.962208861669737 1.3237437195284834 8.305463293529726 1.4969998759580478 -0.7747482015974335 -0.3031361480394005
Ni 4.747291641766287 3.328425150952852 -0.16037341323729207 -0.8857121289425263 -1.1900713507557503 1.3276909330151585
Ni 9.050732081369004 0.7700585253978792 8.84980507295264 -1.3091216546534035 0.1403341529770938 1.3945928370440306
Ni 6.825391517018886 6.191349836118285 11.186568220848123 -0.9376705242876884 -0.047881654172627214 1.877795166542824
Ni 4.876517280209453 2.1708549017240912 11.356253845954479 -0.36360412351747057 -0.1713570837211694 0.19483254113529025
Ni 7.899659364419041 3.495149259581286 10.91948844135088 -0.07944348813930834 0.08923604874969794 -0.36011462230697333
Ni 3.6413896223816438 6.003866662497417 1.2265230162111398 -0.07611313821449474 0.5316323999757232 0.05861163899562164
Ni 6.822610793458892 2.943005852771075 1.2484907323350944 -1.206270329113116 1.0773906978298673 1.7648574033008122
Ni 4.914740757527525 0.4506157940317941 9.723900286446765 -0.6965714959856906 0.43036127443836203 1.8351511066200523
Ni 5.750536322068107 3.277555346685366 9.71962825074651 0.5691093138752585 0.2519871359694112 -1.2491082502142488
Ni 1.3981166031264813 0.1356359863199175 12.870204563369857 0.6714006531470179 0.8656464685409025 0.486723969498807
P 3.2037606333325157 2.290224114083316 3.635025161032284 -1.8892046939313465 1.1402852804715589 -1.3774255812361247
P 6.419460941092598 8.891817859702797 11.865000528348371 0.07552615536277316 -1.0810984856987575 -2.405967890104721
P 5.127837790738965 8.738630276655194 2.3165886772620334 1.8876427487608654 1.7302251579389232 -1.3085022759018499
P 7.753997171863832 6.4752773130130095 0.03818126171287153 0.19051154516243318 0.10905642590973474 0.2615884065046011
P 0.9947373181232232 4.106724896670451 6.225933594083573 -1.0535288036106047 -0.37881528404027015 -0.5710669518222617
P 5.058650084736335 9.188134698993538 6.274355810979934 1.204522493184074 -1.0397191514210222 0.7232603181307866
P 5.262101769889842 4.881794230859606 2.3789530566413766 -0.24716940286579367 -0.3663917135649367 1.6059930527300148
P 8.358405333374265 2.0138954461248115 0.27695639565323577 1.3693111796591064 -0.9506525383696532 -0.7686752559304761
Ni 7.450476147772446 3.917901836449719 5.348843825811802 0.9427898477921246 0.4763711655095732 0.2322914573126967
Ni 7.329243942401079 8.646242342402843 9.76082425730908 0.4496805435922643 -0.40626566694173905 2.005112852655592
Ni 1.9541603647650674 6.797015288479275 11.085614189662115 0.4382936419115613 -0.22835355571087126 0.216426208145666
Ni 3.861287038952674 5.2666445361017145 12.064639043075548 1.32163135708464 0.9570820960450807 0.4490105141084331
Ni 1.3966298796389598 1.9182862776494978 5.090265902109868 -0.8794941730572725 0.7074403203793945 0.1358275233559919
Ni 3.0541980859489306 3.5602255327295342 5.429690380694354 1.0188556777084516 0.4566034959643426 0.07993713994627523
Ni 2.1204347854250534 4.440962362198472 13.277917372020077 -0.7967380756049633 -0.4689579037646375 0.08362795853430113
Ni 1.5883529683909063 7.170320543429394 2.819667455792386 1.4274829029038318 1.6992832169444283 0.7793504762561352
Ni 0.7021299457069042 5.391969819716505 4.370180558234222 -1.1762295597766517 0.9610559930911643 1.351581109369195
Ni 1.1536423624839507 6.963069453807777 -0.034134069996840294 1.0268230121846444 0.015425076305818597 0.8887874254337402
Ni 7.712433155351574 4.951596816329297 3.155223700117672 -1.8493163423768408 0.5326729254250955 -0.04191540928686329
Ni 8.579973019542386 4.709710575831711 7.726238575982924 0.4863437033412527 0.20856943110540854 -0.05925647166847215
Ni 2.7840824537993907 9.287708463435576 5.712821267473545 -0.21162158766817105 -1.8667767039451333 0.5903067738884802
Ni 0.7729044078267712 2.9988497566079233 9.498324870976171 -0.2737304411837737 0.49688856873663456 0.2783864518985464
Ni 4.4955856844066755 7.120607079652204 10.530660691914377 0.8734055436610313 0.4460627443340188 1.0870073949840249
Ni 1.6255027009679912 5.682578374999601 8.740737385993064 0.27484604284545566 -0.1525846882096727 1.013685189251106
Ni 5.8394919440714865 8.116023518380837 8.277403682029124 -2.2147307796301727 -1.8098961887080056 -2.288500871533788
Ni 3.102755209235827 8.803201798002123 1.3514922203733633 0.33551302170820924 -0.40515392193479904 -1.5217117768824309
Ni 0.30112115870875017 7.628726952081911 5.8877856786911495 1.5353296247761816 -1.424955765606604 -2.56893109333524
Ni 5.5604651483022955 7.3677152069670715 -0.033145674196802734 1.0191883784575222 1.4318172686131279 -0.2507720326153875
Ni 8.146446286042162 8.747798404828245 0.5932577353540205 1.0871308079357664 -0.11056566346540958 0.39723492419803846
Ni 0.6429142998372446 7.81076798355401 8.24013005582808 -0.0027793625173500518 -0.3799910495159262 0.7555839699641568
Ni 6.313600722397767 0.9822470053669454 0.016954154141034242 -0.546096140809537 0.9957088072783434 0.43189416614312065
Ni 8.813406961694247 4.3083686526446865 1.0268083298484902 0.6498170134389711 -0.30036732704501173 -0.2726374652299111
P 1.485429487449205 4.577860228021687 10.773644538147195 0.126154261932286 0.31207638795182385 0.6487541193920956
P 1.1463922911559128 8.861083063655204 10.78453799975021 0.032730657463801695 0.4450402166067755 -1.6337632808647475
P 2.865512685310377 2.175902419737282 13.262497663355052 -0.3927028406556398 -0.6708283255833156 -0.0993710803011708
P 0.11393624751593598 -0.24916935012534605 2.5988871824343214 -0.2934878263163591 0.16259450703719094 -0.1730208445768375
P 5.982015498153041 4.143360700140738 11.753381550465763 -0.024781577820054093 0.677317275741769 -0.44946997024335494
P 7.680881579116392 6.783221798345046 8.355886163020408 1.008167087646354 0.43506459345130233 -0.02252106392065154
P 8.341665928181428 3.0311905811142585 3.4801553778904655 0.4405466996117961 -2.060014646899794 0.061650425821945444
P 7.896208697559114 2.715078293906332 8.81692370515362 -0.9131149464355113 -0.13723185990268627 2.169416629074406
