# total energy = -381176.47273904324 ev
CRYSTAL
PRIMVEC
9.13053965540816 0.00000000000000 0.00000000000000

0.00000000000000 9.13053965540816 0.00000000000000

0.00000000000000 0.00000000000000 13.36346771478363

PRIMCOORD
 96 1
Ni 0.6632067760168526 7.230976364375656 7.601621482514269 -1.915002371720741 -0.5760914016200466 -0.7108362334348209
Ni 3.719580897104793 1.1543923628245834 0.4444262682135674 1.3939238360014639 -0.46945824043982376 0.7222429326098658
Ni 1.6909485131772366 1.910318853828523 13.132573577506603 -1.0326162218276538 0.20055915920642234 0.9051422126426799
Ni 5.473712743225795 6.475031612292831 12.15237638533246 -1.2953490263493432 -0.4878544835588244 -0.1331242654922159
Ni 3.073741320161977 3.7748845745094726 0.6710955620953806 -0.19885220381764462 -0.16437885263112334 -0.4807772649970688
Ni 1.274833308613775 6.546742869076116 12.155370289215734 -0.36054811029996614 -0.14247845301360626 -0.24460909833778516
Ni 5.108399860121742 2.294522823039606 9.59848415445081 0.36298011678022646 -0.07535517700254764 -0.3818874952076907
Ni 1.183692263896338 1.017397749025703 8.29244540118358 -0.6904851805822947 1.1618828041366764 -0.461298844557483
Ni 6.115936626549285 8.740948455258332 0.18656705159535214 0.0028984045937175892 -1.1607849430868074 0.830164473584209
Ni 9.076422735463506 2.020606639757387 11.557501653451133 -0.30823233161538527 0.049637974742101604 -1.7103672426727319
Ni 7.779557435174399 3.71047774928038 1.9003921313463754 -0.5308435855258405 1.1001804420308732 1.2359763408179811
Ni 3.703063751252875 5.084989156990555 9.994189864197912 -0.8649586984452586 -1.981013645614543 1.0850659549869377
Ni 3.0468336204242203 7.098053971168238 10.684185642939765 -0.35088307640637634 0.5504140514586006 0.8586340417788116
Ni 3.1232562355599596 6.769911514135582 8.325507084505745 -0.8346345935404206 0.15869491487246865 -0.5586986600648959
Ni 3.003883562885568 1.6648990841470976 6.523924737954763 1.6199220041062812 -0.9761943913944996 1.1766879874703091
Ni 3.736782833414916 8.982770792399316 4.677882142641301 -0.7693805095276168 -0.5564324897385384 1.2877347043371952
Ni 6.502861496514305 3.853124166994317 6.537221542545226 -0.679450777145004 -0.630081739793573 -0.41530129478144606
Ni 3.458566166055166 8.69420922385094 2.36879519613658 0.7092663178445398 2.644196538837459 -1.648256589384916
Ni 7.446027959870526 2.3613127190632537 8.268124383269951 -0.22888140318988323 -0.47728030758740386 0.661017510140481
Ni 2.666546652634073 7.069475382712461 3.4161968108250726 -1.870507117521843 -0.6836290768924097 3.83152169430664
Ni 3.4227835819790653 5.571528212275874 12.559802055508266 -0.4446221552327504 -0.02146691162452432 -0.15236691577191178
Ni 8.190221707690544 8.69477531729639 9.118869700278864 0.07101232665281963 0.9300281772510821 -0.27215924004191194
Ni 6.112832243138753 5.1202878224761905 3.25488665743623 -0.6776839150525683 -1.4339330294045498 -1.9873347027365649
Ni 8.709311136089234 6.466448905216655 9.812526825337256 0.8131831085348641 0.4302599729738074 0.3632218004773874
P 1.714377477387309 4.940215323586459 4.343647789692449 0.11044405028588077 1.2524218879685138 -0.010398055404872415
Ni 7.610998546521964 1.0363618794482752 3.965101102720088 0.9194056645402295 -0.5717992020025958 1.17097576757688
P 6.989811426074548 1.0181464532600077 10.365560860222223 0.363616979033277 1.3648914533248557 -1.174638818250764
Ni 0.22129323225792757 2.9029180577277427 6.923652450326394 -0.68834036632515 0.45956540680614405 0.593699601620113
P 7.89260264401497 7.344888974463288 6.16007730643127 0.2560271103667397 -0.17893643873032408 -0.02382692721626864
P 1.7928179417398937 1.0815854413081696 10.456231682158359 -0.2762267252430662 0.5793736719157441 0.0146516884749038
P 1.5075433673909056 5.523465052649288 10.063599311987682 0.4841474670208824 -1.1181624804305905 0.14147597989102087
Ni 6.405794731698529 1.6317734870488347 5.977759607892569 0.15143951886163595 1.4064013996431843 1.6783302688418449
Ni 9.033993118673092 5.076032097797226 5.666471213617269 0.4876323402456893 1.564042419329842 1.4742160452943127
Ni 5.43095442701544 4.561297936712723 8.692534682917143 1.2439519028242898 -0.7658074474643779 0.17535334936475605
Ni 6.766752347488394 6.8627234475710415 8.012400799827393 0.02275914807338661 1.2170558497643942 -1.619453806220611
Ni 7.930585688096771 4.832557133017104 7.958078655412808 1.4202527037039798 -0.43884462931902485 0.7287928179132417
Ni 2.3134139091466364 3.6398895488485525 5.99240590621267 -0.5327297468049599 2.438799849033077 0.39933191593638323
Ni 3.5400562305816266 9.163135468551216 9.119203878022468 0.5145898426711396 0.42492261992129404 -0.061218994711481664
Ni 6.140817346530753 1.5674123145169556 12.302996503141742 0.13942732489210827 0.0753160962344961 -0.184446827025592
Ni 1.9254298966062589 3.6884366270656046 11.70804142251332 0.5199451934457818 1.152876229762692 -1.0773094509699706
Ni 8.5105666840391 5.297201154718732 3.337780085875039 0.6796266406012359 1.0278828209077264 0.9249062826434845
Ni 6.614345383110167 1.564371844882523 1.9115103892258005 -1.8726673583979556 0.027259349936585308 -0.8683641245823818
Ni 9.094674683809545 8.359145817920687 11.487784506482143 -0.43873175789024443 0.9376029042745465 0.5266832835005639
Ni 5.0918918448092665 1.6248434076117944 4.2031717012040515 0.7868673534584706 -0.7933020533402209 -0.6052721369490609
Ni 2.1838606849935895 1.746936981040122 2.3008813307075306 0.465349874698405 -1.2234481264439834 -0.7837573470745792
Ni 5.203056162524634 7.035299773578282 9.68453127121314 -0.9198874892726544 0.6189216094116954 0.17301030305387624
Ni 8.073387324981235 8.798069110012115 1.9785413314907365 -1.4067901504411708 -0.558291140213832 -0.012020935720276071
Ni 5.968889288823947 0.2798902952396041 8.421256312479931 -0.04082526154647807 -0.4274911519794186 -0.7359638817403842
Ni 8.959013128769305 1.8564030184191396 2.0107739618314997 1.4896182387819958 0.020765000461493273 0.5211759805290895
Ni 7.424096404129063 6.4258636573936725 1.6713425058318396 -1.0713295792374515 -0.4690766887306889 -1.166022794446979
Ni 1.510446878933697 4.918639858883263 7.792558410286917 -0.651803961962013 0.2295311209587402 1.3174273463056214
Ni 2.878603431191724 2.3229827144826287 4.2692265888025585 -0.7098242472305388 -0.5960837855815735 0.12052200334717308
Ni 3.707482932343161 1.7437504227746057 11.493878228506228 -0.6591776287182647 0.8287493384042373 -0.5616266323449682
Ni 2.6824885745010985 2.7878458691308823 9.311931304579838 0.5508603949673996 0.1312933829310642 -0.4739610134061838
Ni 2.285994899200086 -0.20603062252544235 12.189967729272167 -0.858114936050548 -0.676581426017009 0.3241153213942289
Ni 1.3701013571593308 8.207222772132926 9.499420540658907 0.010707102004858979 -0.4231146201782777 1.1446754391194545
P 6.7987640187746425 3.061031609257682 3.890800424950842 -0.5940065913375705 0.7210944208277194 0.2898800543604427
Ni 4.4761191342513955 8.60492167864038 11.597672374783414 1.0465839968616557 0.7243864613154298 0.16898858348899284
P 5.553741921441416 8.861727231006903 3.208582039706315 0.1928569054661582 0.40336520546549237 0.008605739391140017
Ni 8.524015968638256 0.7791354092134419 -0.015859747012040477 -0.8864148114365057 -0.7106757965975566 -0.49986873441088103
P 0.010594164915411953 3.321388941467431 0.17416869208605462 0.5647502655756144 -0.6537903962644224 -0.527603224211672
P 4.602157100718988 7.936949674088361 7.348690931087245 -0.27397058221903786 0.18325486360001988 0.3356927418191831
P 4.229804571704581 3.265309168210118 7.410924687928966 -0.04952407487205664 -0.10587494285795959 -0.20796213653871282
Ni 0.5675634623002004 7.99074681248499 5.1415811535106055 -0.4011003206907157 0.06527053907303598 -0.6107750690451611
Ni 2.4650630387511154 6.645955310660936 1.193262895340219 0.3646217661487075 0.321104302482047 -1.3428352448557648
Ni 2.2292029438662393 6.463609307449962 5.957540941350565 1.2291135522598766 -1.3674548431766578 -0.9525633822391208
Ni 4.808114678928888 6.5524859783856 4.622236070007519 -3.1550431124160823 1.5487523259399907 -0.6912883932098804
Ni 3.655256246730685 5.295667224092353 2.740740503091839 0.08255863672952234 -2.660728989274843 0.5010077331113306
Ni 4.554714817774507 3.8196698704761154 4.757688535694521 0.9703456459232063 1.4206751359533791 0.9141935242116707
Ni 8.970846307887097 3.3180836861891585 4.27111113214354 -0.19048429146892357 -2.429422007362603 0.1964425659348875
Ni 6.7277466829890065 8.196074383473341 11.11231115908621 0.6855008399938259 0.11617529634270314 0.11865692511397628
Ni 0.9162770246973505 1.4261172166405445 5.331742898484565 0.0054921334628228 -1.510215346207057 -0.7430770957463977
Ni 7.064252714151213 4.039332388389569 13.20335991064434 -0.1783898221982347 -0.4729479987606371 -1.3696474799526026
Ni 1.517103042187455 3.8270199547275214 2.561161966385961 -0.40971840137702986 1.4739936448708615 -0.47030464760051904
Ni 5.9707336577913805 8.552055855266913 5.789334491520619 0.05125159908612464 -0.9244457980672983 0.08338061841018543
Ni 7.116068525488766 7.55128481856644 3.8288743672883423 0.6767210369186668 -0.22465399537209696 0.3249941244547564
Ni 5.07941039739104 7.023010067488353 2.03278404021217 0.6102263956305426 0.8509405297892958 0.28477795724718696
Ni 0.5962963568725609 5.372281580556388 0.6817947282143841 -0.8609991995768785 -1.1103416988345909 0.45605379410845975
Ni 5.211410606114741 5.0489600483495005 0.8937994626972116 0.1456540225281104 -0.8380042813436019 -0.6583080816291178
Ni 5.245841870353316 3.8682260792326097 11.70348437027745 -1.6745348063551548 0.4255599963949768 0.30488732640255234
Ni 7.20350257119245 3.3253881177433513 10.630985641822695 -0.7354326918272625 -0.4264130884238914 -1.4063507489109068
Ni 8.7645691607967 4.589803480852959 11.561591222067536 1.6036569483976704 0.06623521697915045 0.11673733949376025
Ni 8.224516013837478 0.549365384136874 6.771416227035746 0.6596517401412059 -1.2737707859579352 0.04067099535680093
Ni 7.6053102204491365 6.295233029586383 12.528050604596135 0.6332012592591612 0.39540686985036416 -0.7576583359946822
Ni 2.231439926029711 8.699313195399434 6.720781907502084 0.9550673796078971 -0.38540707832517496 0.32756445628509395
Ni 4.281218639306654 2.907684199316853 2.501934896182735 0.47870135630464655 0.7041966166311162 -0.8275283215129426
Ni 6.628990768376323 5.743629750232093 5.233454467491351 3.050540881535934 -0.49191219856796575 3.4001890570939444
Ni 1.3033479832934542 -0.04491038435700834 1.2694389859110038 0.2997564329338902 -1.6209553304668018 -1.2068562835235732
P 5.262541626994088 2.770068708835866 0.5740607541676546 -0.10708053313028655 0.8036152623407707 -0.8801315495309552
Ni 4.5508708606691135 5.518032381680857 6.835561005782832 -0.26611534784067714 0.4156378521852584 -1.243254362536633
P 6.818139023472138 5.637724623235743 9.876016944406297 -0.0776570856628469 -1.1256330777760226 1.583133117412706
Ni 0.3328675111942738 3.4212313902737996 9.475673833676227 0.1645904544212972 0.14295436420876026 -0.3242819288790802
P 0.6242175464884616 0.14021130284455793 3.3614464441106224 0.35619908930265104 0.6156452526532689 0.4185110599679953
P 8.775735810535172 7.464882523819785 0.37210143917973026 1.7326707912659385 1.6658370214708405 -0.2500888905054338
P 3.9666076417281406 7.951092879685167 0.3061634224860903 0.4636814858570466 0.04751784307530526 -1.0630583403675948
Ni 0.482631184403827 7.105029703302492 2.5603603050228876 0.42660232161656203 0.3148750337428835 0.28762262578483366
