# total energy = -381174.03590111353 ev
CRYSTAL
PRIMVEC
9.16993286244234 0.00000000000000 0.00000000000000
0.00000000000000 9.16993286244234 0.00000000000000
0.00000000000000 0.00000000000000 13.42112365520413
PRIMCOORD
 96 1
Ni 6.201433106905459 0.2193365439816738 3.741983721759833 -0.7985890127707731 -0.18282060427607869 2.2114235696338107
Ni 6.921639643285201 1.5387239242558812 7.264505271456143 -1.4436597697740103 -1.1849715676353398 0.2039424738563584
Ni 3.1341455441373793 1.4707838907947468 2.9945213935786974 0.20381031915386835 0.5407634157427138 0.2967695823914244
Ni 1.1375943759060545 1.7976186421271472 2.0643435657714546 0.25601862572630746 -0.0003373287347607093 -0.07174483394346999
Ni 7.619095575937438 7.312728115020107 8.93641513632428 -2.529770878196011 0.7568638651178449 1.4460974326812257
Ni -0.14377079425298916 7.428507688846573 2.830273221984359 1.2408005016795016 -0.5781721954084752 -0.5986371481310464
Ni 5.667440399584331 7.46027233669505 0.4634236540741518 -2.0078803880984 -0.9320297810621433 -1.0198792338769596
Ni 8.600956980015924 0.6345648642908059 9.106769566291108 -1.3146922067626454 -0.1795049096392844 0.3966227445353363
Ni 0.7759817367474025 7.730060934948532 5.30963786757956 -1.3029669479059174 -0.12933085988805468 1.321413584646879
Ni 5.2960672837599985 3.4041450508494377 6.7370956590225495 0.010680619642297735 0.12841786115548207 -0.5189591753834288
Ni 0.57627160032638 1.7415995215421736 11.03338532364449 -1.9964595478559681 -0.1679377736269753 0.6749621452460312
Ni 6.798533293006387 2.377030027506448 4.816278050293474 0.3632662805620776 0.032268887336034745 0.4524064271638596
Ni 8.090833608246063 1.3212589635957646 2.946419593130091 0.8243093003550126 0.31639661259373253 0.04370952507280859
Ni 5.294902702271327 7.824052748010568 5.451325253059115 -0.3221268302092904 0.2859712062243398 -0.014742705526813319
Ni 2.2768026600168816 1.9080246352263588 5.207919468987175 -0.39842097408633964 -0.6993547151577827 0.8281091337170771
Ni 8.860328534402237 6.0971159493060725 7.482035338640429 -0.4206121654713981 -0.6823491817387216 -0.959869686092547
Ni 3.4559368323298654 4.783027873301967 10.268166337237664 -0.5436502503722057 0.5819979969124686 -0.8323645665593212
Ni 1.2016922074478724 6.87711044872625 0.70525037568665 -1.402916012197745 -0.47996093974336046 -1.7244622873132172
Ni 1.9621639195500917 5.166019294214066 12.198271254090567 1.7440798044338286 -0.6409413082158961 1.0218998638514143
Ni 7.984774163380159 0.4514889862985186 12.19790904173779 -0.9023407386381427 0.6508076594870147 -0.050239098661210256
Ni 1.7243875573355936 5.810097046980048 6.51242588201874 0.7893489822297437 0.8250924583779403 1.1036131218615057
Ni 4.416689050684567 4.23949843567991 0.9722412273874255 2.1508452938301215 0.3461964695639844 -1.4282202952904888
Ni 2.63060618424835 2.2837167894850547 9.98657786922338 1.1082974147110525 1.4306497306675876 -0.10748625320913746
Ni 7.537052185550507 6.881301108098869 4.283311458472993 -1.9003460552601465 0.7727666523910304 1.0348569382327144
P 1.0055106612381937 3.848932650124958 10.645648462414378 0.30551776089769966 0.691649633204041 0.8674657811378287
Ni 1.9451170141371819 3.5704234456059165 3.5950089529230507 -1.1251150004890236 -0.3163932701596229 1.3184835554842778
P 8.623735093542374 3.4283353340550624 5.163643364578518 1.064823659798134 0.5555865967984754 -0.10854040550526468
Ni 6.520629304064136 4.708916474944174 3.5914125052076433 0.0971938701441939 -0.07998599090633966 -1.4149068660110342
P 6.603837275939737 0.14920856451111478 10.089624991104808 0.1430302117520182 0.03189093517132573 0.4041751029612975
P 4.41637727296319 1.597374815606592 7.878710133547765 -0.607104047951477 0.3772826494458276 0.08453607217086732
P 0.296940769812182 7.04124307916502 9.779584055035023 2.0254528497645246 0.17553589768920735 -0.31956498301938513
Ni 6.930681197205119 8.415898562513002 1.936560549671993 2.172673702559123 -1.0460582062651727 0.05010694395872015
Ni 4.941731903415593 2.019503510484425 10.766278013794848 0.7548470917981323 -1.3211729293909826 0.818307831355939
Ni 5.065443469271196 5.36553869602907 5.23499002814234 -0.9142043228449481 0.6684287150028875 0.8625711720496886
Ni 5.662131008387949 0.5028406109958263 12.626083473430432 -0.5965663816449468 -0.03810400596057308 0.17234335889383867
Ni 1.5920654244102095 9.447048356367922 9.850152191288702 0.8063612005170242 -2.9754528421518436 -0.985353175075632
Ni 6.615391391496632 7.475540275109518 11.443736156600675 -0.7646553361378057 0.554188173789052 -0.5469883136065031
Ni 2.922100013869425 6.725256358549926 4.871196778920647 0.8794908306231628 -0.3926868998160398 -1.520028732753053
Ni 8.301696217159384 3.550625560298508 11.95063813091408 0.22773057741489167 1.1641587446550468 -0.6742224388665292
Ni 4.126442331948997 0.06364942181901477 9.867962035125686 -0.8360785250757987 0.24559383084855765 0.16980825117681078
Ni 5.08731375943246 3.38308171479056 9.05841284170561 -0.19615460238082347 0.5817336875074884 -0.22350882602406022
Ni 8.415761013518278 4.833251596242531 9.503900106867633 -0.8411986199111835 -0.2869587669485897 1.1536570737927745
Ni 2.3134548821445846 7.973779413735146 2.4307264040671672 1.0839033021374043 0.9646668503708741 1.5048808213680214
Ni 3.742735656264329 5.510432807072313 7.694907079870032 1.5858939679872945 0.22289690347167418 -0.11597037942074866
Ni 3.6669553301038733 3.4418059656051243 12.166920170219562 -0.41351694918751364 -1.0595834944451172 1.3437191901226149
Ni -0.00433279333383534 1.3998361193156272 6.684712416864805 -0.010547693608859253 -0.31759011868120146 -1.2497713377195443
Ni 8.818632849134621 3.8188827797440514 2.871543422361627 0.4546155190000364 -0.557169367904563 1.2253245175310896
Ni 2.1816829451981006 1.0975125988432095 7.657046260575345 0.5161247912584273 -0.2553012879443087 0.24026496243647652
Ni 2.947995904609639 3.9297839492242725 5.758762845155405 2.207054751142154 1.8210709743779026 -1.333090763874491
Ni 2.7342355968741137 7.57844526302973 8.044795959711628 -0.4030337902680026 0.7718467116799224 0.22052840323949763
Ni 1.006400144737415 0.32657707621561566 4.027987512504787 -0.3914329728042807 0.8955735951176382 -1.081607821235008
Ni 6.2652558404578285 2.874269643437075 12.43841529300093 -0.3680248782929855 -0.13406888879367232 1.7110359866049822
Ni 0.9929203432543716 3.6342186693593397 6.784431770067187 -1.8910900838795173 -0.1940925776454722 -1.4440894011122614
Ni 5.053467536797146 7.2815686827484205 3.1432943862731832 -0.06206180232775119 -1.9584766408542913 -0.5231806696639442
Ni 9.266584075288813 -0.2551588871745368 1.1157983622019418 0.38391866670510655 1.6065586954254978 -0.3308099598055851
Ni 9.54296585535611 5.5788588469814755 4.717041952559224 -0.461280846835354 -1.6174938542807626 -0.6214947694555103
P 4.223478562760946 8.140993141655755 11.923581326658388 -0.16278785399491963 0.38681681418850805 -0.23905937216414955
Ni 4.558126096993722 6.945087161919311 9.60559191265437 0.9980919627985392 -0.6112373533935601 -0.17739300550260417
P 3.1859464955507883 6.398962633263443 0.8607641861159556 1.5000869995238035 -0.7916940854231526 0.9678773868883718
Ni 7.001711498081074 3.8559659887218927 1.2954474362389823 -0.9708279848762636 -0.6109234216975673 0.1557998527128607
P 4.695033196409938 3.1716322301664137 4.491755039065751 -0.6032893021910771 0.8769688355322574 0.977531107928052
P 3.0137993436860455 2.00248411487046 0.4615832485247322 0.0783134882999232 -0.8114183033249573 -0.0456134269637408
P 8.062562704863598 9.270618845800744 4.967868963393224 0.515770236132486 -0.21541422194138385 -0.06057287648705053
Ni 8.631685425437475 2.1464337228165915 0.6900548797427377 -2.05427954418823 -0.02147976714033075 -0.831834147977148
Ni 0.5778845915378544 2.755298932932991 8.825140750571705 -0.8458407466688851 -0.7009966216365798 0.03954639483405448
Ni 1.1195296079321801 2.941228494069172 12.858161639290126 2.516237619596266 0.19169142440314726 0.849413294511492
Ni 7.180250093234035 2.3011304922172315 9.609403853794847 -0.08945047875334916 1.0202908674930815 0.9408023850484507
Ni 2.7102837319260122 8.805299766579283 0.2940568258894492 0.16828075878869084 0.25741499185320177 -0.13493612188997406
Ni 4.287603904101709 6.050798617815697 12.400058380331934 0.2151421992269198 -0.7698258245951516 -0.4509028460351396
Ni 7.38672947418212 5.094677215616735 5.801857862196025 -0.49214514051437813 0.45862129772531984 0.24309189036231035
Ni 0.842630643644719 8.689602722149653 12.194285084223438 0.6309520582136682 -0.8443878162724426 -0.19737304816895684
Ni -0.03349684818871347 4.742615978651782 0.7538134237642343 0.009729825693254212 0.7085027002056379 -0.786797933673116
Ni 6.360357215410645 5.119050897481993 8.325593062509595 -0.36575433709125393 1.2838320268486791 -0.19085967253047129
Ni 9.280063876771857 5.996815222352652 11.645039110380612 -2.620398665086913 1.165097197308916 -0.09959373783493816
Ni 2.948509420856612 0.9342419421047159 11.76741278301419 -0.0554178146486723 -0.09504751322515244 1.6128869516363706
Ni 1.4164520378783987 5.090312327517464 8.82913975834501 1.1572843861327167 1.0667404172048724 0.13019397921929834
Ni 5.405730512287695 2.270383706929718 2.732245721417093 0.6588690963389104 1.1930340329285 -1.131503934734503
Ni 3.908106227655623 4.757984786329048 3.098280102259502 0.36972489170322775 0.40839736857276115 1.0228406304981288
Ni 2.3067333212690264 3.8153156758141846 1.4005348682088299 -1.3851180647843757 0.52740344949604 -0.8693709685803415
Ni 5.462125600124916 8.865766304660363 8.10951276172971 -0.1992612663306052 -0.30548536499786744 -0.2414965208507325
Ni 2.924383327181859 3.387529132286666 7.996305354104599 0.7174624805020868 -0.43379909647531745 0.17243463305606432
Ni 7.263448895176655 8.29340659774396 6.856140645983785 1.8511536526958956 0.26488173254389225 -1.8223344144713582
Ni 2.4324347625816505 7.307042756571477 10.777310360165083 -0.2634609409369656 -0.4335766960518661 -0.18753112237787056
Ni 8.018180229232355 7.3401370447022956 13.32081410200052 0.9641037787785524 0.15021258843307034 0.45904630107788047
Ni 1.6829211203925176 5.771482459194269 2.7888159549742646 0.13410231313476903 -0.427851877752947 -0.24810451308555337
Ni 4.6409214218851504 0.11829488644333552 1.8289229593399452 0.06701606100923296 0.16979359588879148 -1.1547379655617789
Ni 7.7628801250899 3.5727159288513324 7.443999373625793 1.3263593586879288 -0.25254095159035217 0.33380760898132833
Ni 4.8235498071479315 1.1761539440939435 5.720579244219765 -0.28271593251183563 0.014883859090367916 -0.2738823933806057
P 7.299330842933899 6.072357130255584 1.9115972411160143 0.16968740932823034 -0.16119428425555465 -0.3842341410629963
Ni 0.4113338497718203 8.356981743105823 7.854551945107575 1.5523570125721136 -1.041316063594497 -1.1577091323749609
P 5.683946278951323 6.825731314229997 7.242991691687866 -0.709862556667642 -1.1982952813274395 0.8389550752926453
Ni 6.693198272846034 5.457448934304269 12.999311666696956 -0.11022190697274567 -1.0135586909755705 -0.9609762888931642
P 5.408857459434442 4.337323280728281 11.124206173881467 0.5654686317988777 0.538522442227337 0.09834726702234675
P 3.8728661752070956 8.860869560448156 3.9904494748510544 0.25007937742373704 -0.09865682784296557 -0.7939399440345358
P 6.703147650131138 1.1885975431500593 1.1989898281981766 -0.6813405379685492 1.2214195260497287 -1.2084477963804092
Ni 2.8421106884703864 8.907837957180229 5.7754181944299985 -0.7576912461151467 -0.6543807215502536 1.4433298972384174
