# total energy = -340871.5732896501 ev
CRYSTAL
PRIMVEC
9.28188520526727 0.00000000000000 0.00000000000000
0.00000000000000 9.28188520526727 0.00000000000000
0.00000000000000 0.00000000000000 13.58497722524700
PRIMCOORD
 96 1
Ni 0.6737107849688375 4.325228548738261 7.181630325726375 -0.4406269180304282 0.5737630105971859 -1.1303101715367179
Ni 3.5723655596855663 0.629446402721135 10.145858834693211 0.920414565420718 0.22786787432370434 -0.20758855524937797
Ni 6.281562206807418 6.820746917069542 4.886896769478399 -2.041817921386109 0.9635299085529534 0.417928447991648
Ni 2.4200195142553276 4.790445915979574 2.2446726367036867 1.5537819179440981 0.9309668870152676 -0.7097496852388615
Ni 3.1774491908179034 5.579025599215237 8.762418909304133 0.7389059950878436 -1.0115331759051096 -1.690900906418004
Ni 5.441263859333839 2.29111269283821 5.651703688384173 -0.5317205888141553 0.042410860866043086 -0.09671590206651086
Ni 0.7945674273670131 6.780482099147058 1.7407108243328133 0.2620095532024197 0.19840766008105828 0.05147862749526618
Ni 6.315320423216841 3.1258326273169965 1.4036001800058708 1.5258101153215207 -2.181273528412992 0.20422503809378376
Ni 4.210355937717362 8.450246834086025 0.9239132819532717 -1.0697198115481705 -0.4479823299542349 -1.150822689667773
Ni 2.317389709790389 3.3800727443558984 11.560584282279049 0.28574109249140467 0.8385519263169559 0.9804328549558793
Ni 5.563125729897299 0.22154282010586032 11.417059419887723 1.7250330722150227 0.13942089713420502 1.0937485703626002
Ni 7.836240847366285 0.8836920888911465 0.3731466353601955 -0.5622092443213156 0.6409464504222188 1.1748069683975122
Ni 3.6046479563509415 3.687878620784071 7.170870764422607 -0.1759326189069938 -0.10111197425167749 -0.5034911616548168
Ni 3.4253033708511182 2.5581154020033026 3.0664963199096515 0.9641323180236429 0.32876696123362736 0.21628042659642105
Ni 7.677659839020126 3.602169693007165 6.294911414077156 -0.8105832090181717 0.5838918715010718 0.9579706692976212
Ni 4.474954638620139 8.877167143063584 3.183680120341039 1.0371940710063232 1.358149763725648 -0.0845250164272738
Ni 8.368529116937674 6.963149599542283 3.9656446040070037 1.464799122855787 1.683240818769585 -1.4166392753211088
Ni 1.1979108197920352 1.5746625393571851 3.0697292005187804 -0.26469275646153767 -0.5347424063596146 0.02574676994680082
Ni 8.379880862516096 0.22439143066842612 2.9097930369359495 -0.26722040797939783 -0.6372196363899348 -0.6194180894321397
Ni 1.2867477428755052 0.9838891112497037 9.664379604611838 -1.4719498749679554 -0.2253991010682376 0.8672325820811
Ni 2.2570110466770283 8.201028216930956 9.297123253588573 -1.0549832766689442 -1.7273450081776511 0.47209722072456756
Ni 7.076267934263654 2.111703134142108 3.594272665093737 0.722987009864742 0.12049012166797313 -0.5624172465670637
Ni 6.0071154257258135 0.49180347097007504 1.710797164766059 0.20455748173253802 0.5169426591740323 0.0035249824341229614
Ni 3.00315395085746 8.47170655262839 7.2292454685250265 1.5969923918933013 0.11132619578051794 -1.3510707453916795
P 1.5212731357863858 8.36142847477292 11.384863344754546 0.0006561455267601602 0.7154091975174841 -1.2306965804762806
P 2.588309374502574 1.953419146121795 8.287501972046915 1.0179426789758792 -0.04479941570287768 -0.8274573590656911
P 0.8407123195527275 8.334334651924665 3.387305189290246 -0.2807845198170777 0.8437496684678114 -1.39371223421129
P 7.567186841575819 8.533421807208057 12.394144909298518 -0.06968795141444127 -0.30425894878993404 -0.6245183867731825
P 3.7444888385132615 6.939601456833813 2.456979052864258 0.013967517923685623 -1.5600970615288487 0.8594452248261973
P 1.1034676380582238 5.555978678306633 8.951060231002932 -1.6331989237208453 1.1912874825510387 0.4665444092271384
P 5.634095024004102 2.04894830842198 13.28011662919053 1.871198487161913 -0.11354608624997219 0.7096856647701455
P 1.9261118399143382 3.845382930449038 4.326312672927599 0.45731980530507693 1.8195576230571695 -1.3039709636903996
Ni 8.916123215175308 7.086143860098029 11.111926726392163 0.47330409654847516 0.7600466337212007 0.5923957952070249
Ni 2.2497247668086215 2.0495701947292204 5.290492629180391 0.3007324236939143 -1.079693892041747 1.2113107197505009
Ni 7.993392445394311 0.5191386228330799 7.898726498416115 -0.9807257036059498 -0.33046131821691477 0.4718766200733293
Ni 0.5351368801339543 1.8426491283516422 7.259757809686064 0.4892300237501123 0.10574407370705013 -0.615421823788553
Ni 8.194465924106797 0.39739648858847615 10.215304971441538 -0.4741085947276416 -1.045781041344386 0.4839314943553343
Ni 9.317063527526534 5.71752988991125 13.302463695956362 -0.11078857810949308 -0.10150972391072842 0.32057156990702856
Ni 8.1269773369435 5.52370556352644 9.179654499282076 0.4393963880574368 0.20721883061478508 0.3902649206381085
Ni 6.779015561288194 4.955320042479592 13.443584550085374 -0.0006471466656956596 0.5416982688521573 1.5991104666775686
Ni 4.55563278462803 7.364730361971112 9.063367328959337 1.3998993368586083 1.38377492049292 0.09020561175181883
Ni 1.401833837255606 6.723676961829031 6.656068638346878 -0.01123752058703226 -0.7911443835672697 0.3244858173597702
Ni 1.6893773583299787 6.507668929857606 3.9967138582790023 0.09759239113419323 -1.085652166507711 0.3007586489461595
Ni 6.175934353428474 7.090413527282064 2.375550930533606 -1.1575638650463482 0.42352368269123836 0.3023825577028276
Ni 1.237173194114789 3.3886492062646987 9.190875370279423 0.9735204441067622 -0.004954258681481791 0.9843568726006338
Ni 7.126390114250148 5.0092756410465356 3.59950300739418 -0.9164722929435184 -1.4787468432851307 -0.7190917885753938
Ni 7.672777567414035 1.9736536558200464 11.92815343283297 -1.9837063619553579 1.2002868578361716 -1.0093893900892292
Ni 2.296895307307022 6.257271513284334 10.804295349405425 -1.0961540944802992 -0.5209479236786835 -0.10679334090717092
Ni 3.6335053373839066 7.534514605732771 4.793038346511097 0.4457698956839484 0.08907149814737562 1.3348123745512883
Ni 0.30905707455079795 4.209372057887998 2.6529558484229327 -1.5197240570284407 -0.7325124328566739 -1.4730533924447793
Ni 4.120256678249047 7.743876807913395 11.580541263610337 -0.3334926488440708 -0.42850365240433297 -0.9492957672314426
Ni 8.16992461968378 3.195678813316695 8.834636616968005 -0.806592856911856 -1.0818286789965625 0.10418495675004638
Ni 5.690268993129707 5.10635487817223 6.5353660752427345 -0.6009778804490812 -0.8736050612663471 -0.4002438862276913
Ni 6.06392056304384 4.48858044606832 9.551054283850892 -0.12968387235209924 1.0027533728299503 -1.5001145103276294
Ni 6.524552679004907 7.219988644432336 10.695167297124089 -0.0433498277405447 0.028621777501750705 -0.7042665506371032
Ni 9.135482007697682 7.588126774547955 8.702197110050358 -0.5525691501283903 -0.40385860016214314 0.6120197400855395
P 9.219380967863964 2.6948468526294227 5.17265631222066 0.7955301713397911 -1.0164023310719528 -0.07923677144514096
P 3.1077607968663106 1.117919533287663 1.3654126479872715 2.4477514017994104 -1.8412245665076419 2.4567505199742268
P 8.749531939916492 2.161602548884218 1.8577999495353377 -0.06162265790780355 1.1152890155375372 -0.26114026322358896
P 2.1716084211111517 4.9339624246742355 13.419145346399365 -1.124401519361767 -0.555807711670346 0.35110804793298883
P 6.6231634271857445 8.951969855750834 4.112906353372879 0.0920524351525705 -0.08629907760856105 0.3134565561288021
P 5.831901279132285 3.2594917739476483 7.75226763211854 0.1323508776613011 -1.185567806458442 0.0786893835821032
P 0.7698553362566347 8.876860840852554 7.400049791468262 -0.006891584913510712 0.7800477594334759 -0.1408846261639251
P 6.186478574996002 9.068531769874982 9.162700207807386 -0.304620703004727 -0.3325025170166596 -0.5735637501021864
Ni 5.447853997813544 3.9067826009324937 11.573626259149238 0.1375388496201438 -0.5513046815936699 1.736636717892222
Ni 8.107735988959796 8.17237503737201 6.128033328566195 0.8817431169924492 -0.0743043671405301 0.06902049303377146
Ni 9.197308644899541 3.1458165261153157 13.266396146513488 -0.2584619450604775 0.778078551522247 0.5078908333844092
Ni 2.8990483266484746 0.3102395867230719 12.591277299562435 -0.2519665671441209 -0.8453836045268085 0.07406525454653051
Ni 5.19159971169 4.929469992245817 1.8205638107479634 -1.5225029053251586 1.7405370813878926 0.6603374533543208
Ni 0.11340978591610815 0.5070554647022617 12.407377164814951 2.380249402292694 -0.3030266190447298 -1.3301363092318574
Ni 6.608266001467536 6.900793894885011 7.546346224775138 1.0703037090760987 -0.09130475835326857 1.797532010715698
Ni 5.545963524194517 8.66068573494784 6.612229366440542 -0.16463390606472292 0.6676159892936051 -1.193985598208492
Ni 3.628613783892632 3.393141638693118 0.641446023885309 0.9728789538680211 0.019185314679199216 -0.4175229850231132
Ni 4.162359309437702 5.6737472375045295 13.009041956995794 0.7466740690690367 -0.8158056337593758 -0.020669098313577307
Ni 9.20345325289048 4.927455823161175 4.745531801769084 1.6075704245194637 -0.9987509365387768 1.50704594734014
Ni 4.093404184415542 5.149933329104932 4.149993053808812 0.0864497442538124 -0.15212780317791216 0.3032906713393938
Ni 4.592351922410729 1.0611143959696359 7.842172900186538 -0.04113276548456787 1.0385780958380437 0.37305472740740914
Ni 7.835553987862766 7.835980954581169 1.008707944039683 1.0976540760645936 0.7574133098634117 -1.2726842377619758
Ni 7.668006678430134 1.2233524670777722 5.679526139219269 -0.16145319434389613 -0.5815046022158179 -0.47326270178757857
Ni 0.39232393833613927 4.698787299800568 11.169934796029866 -1.4286653532477074 0.1393530200107471 -0.5150235877744485
Ni 4.0257113957782265 3.044291265987116 9.565032802936013 -0.2998687901420384 0.5680878145892796 0.4143805827393896
Ni 5.853388843330198 7.361917950760759 13.05042152932872 0.7453946881359809 0.19609495278748162 0.9149599700640499
Ni 6.187620246873472 1.9067683911936244 9.815961143341733 -0.1387477823265804 0.6123457559663906 -0.8265636436068282
Ni 4.096736381196125 2.102913188874106 12.000656094371951 -0.3261444360091157 -0.22305759741925457 -1.0406169806449432
Ni 1.792044290335648 1.97231706435374 0.2633586410423708 -2.5646080404798544 2.558499356478955 -2.2854692837963153
Ni 1.4666492414862897 8.784524647055212 5.3726271029734445 0.4126988241615924 0.8372406637047 -0.5106462846423593
Ni 2.3358977888446613 7.184856709015876 12.919300050107015 -1.487953192374747 -0.17667078262459895 3.007515527014343
Ni 1.2897829193302428 9.106197659946314 0.8377105578846474 -0.4874698465258959 -1.5085883521265953 1.5180998911614563
P 7.972220465292608 5.985043102761391 6.042135978520081 -0.7084880449176185 -0.2689687581290723 0.9711845968847338
P 7.292897852542319 5.243439040435292 11.485555091593339 1.736926481218499 0.4529209049064329 -1.7584160185508424
P 8.040433039500153 5.851198318427085 1.77783836506355 0.05158301428361439 -0.9450573036700626 -0.5479326797976434
P 3.893425968154611 0.5239345729069728 5.070103547402738 -0.3539730281856097 0.03853775106388201 1.2437978937449288
P 5.507388009375281 3.4829531597207697 3.6526334463683825 -1.237749887778636 0.5631433260998108 -0.35128262583764014
P 0.4562380715155841 2.4902648213178815 11.073468163326229 -1.7576709128547017 -0.6093943866475505 0.1853343718368679
P 4.395204681130517 5.6877071928192855 10.771976753387838 0.3555257173847103 0.04193057879551488 -1.1368870534232873
P 3.75551571811029 6.059558077007979 6.308075911831756 -0.6518160461468709 -0.46475440720625116 1.0096303024554416
