# total energy = -381177.9428024913 ev
CRYSTAL
PRIMVEC
9.17509702526233 0.00000000000000 0.00000000000000
0.00000000000000 9.17509702526233 0.00000000000000
0.00000000000000 0.00000000000000 13.42868192949947
PRIMCOORD
 96 1
Ni 2.886247033525513 5.894045755048591 9.9152954378972 -1.8546120435581412 0.7273306315454183 0.6849897046853622
Ni 7.919558567980236 6.992075515096039 13.0129706592782 -1.2854291961324702 2.007147109476801 0.1820366749222026
Ni 1.6743543169525688 3.8420719617285872 10.114080341780719 -0.29207217691575504 -1.7219181807351247 1.1721638743477103
Ni 4.434085934883393 0.42607316479702 10.592276316386416 -0.21127783117550708 0.6778273826089681 0.46009068318199475
Ni 6.638320466603125 7.309579754464679 1.49936594522413 -0.7425363927515792 1.5289610022456765 0.36361209393727056
Ni 4.661674221476057 2.8609879908732414 10.558717480787086 0.7032105985687631 0.20859359947512465 0.6918846320329827
Ni 6.3704626783029354 4.45562906316074 8.881327124163747 -0.7360168464655066 -0.5309852533100274 0.39316975298972934
Ni 5.176910981076847 0.7057677460233612 2.4531650119605777 1.1637594523340988 0.6117232918910432 -1.4545401641319402
Ni 1.0759820014228894 7.232811716007883 13.151433886475425 2.041773441301419 2.201725368509441 1.1806495432212183
Ni 6.369416717219623 1.0631276902148135 11.91788794045847 0.7039708737735554 -0.9222241078256311 0.4496543183400192
Ni 7.5158175898216575 6.683195867116115 8.649508200242002 -0.7184415565859047 -0.7565815579907357 -0.19429672323647829
Ni 4.370988791287436 7.182146829147786 5.728353591825521 -0.3315401531033903 0.19735299356429883 -0.17978001767754198
Ni 3.0592067912581595 0.9181519790093845 3.5012868306687475 -1.2632117794951665 0.21169537832889995 -0.45287693904237486
Ni 8.200160566321838 6.191796010098182 2.8870590296296634 0.009126902001932669 0.1430564370042633 0.02469338898162199
Ni 3.041994308869615 1.8526906816573294 9.223168308913843 0.2433124910135487 -2.336588471069634 0.14890878201998223
Ni 1.2888534320714025 2.5116278139496844 12.898208543224943 0.8401100148326952 0.24344438860572265 -0.6275515171725515
Ni 4.942533122539875 3.6118228969415327 6.983371100361491 -2.134409259761285 -1.038954762451172 -1.2651689032215372
Ni 9.006936040152898 0.5876677296007272 12.87174114026853 0.07027519137647897 -2.7460273935330317 -0.5601778157135836
Ni 3.343533879071908 6.478453572606329 0.8822131231906599 -0.920474472124376 1.1211521591865337 -1.15117287391834
Ni 3.513419979235171 5.72007673662152 7.605589493571248 1.807687868202777 1.64496891977258 -1.496029284514662
Ni 0.031112754679932273 7.460666080419984 4.886684305749328 0.4145369058115957 1.3077877663333284 -0.819273280593002
Ni 2.0270267039732817 2.595240474934121 7.503745914406622 -0.8951593903983551 1.393118052270717 -0.7360695540803129
Ni 3.1557012887423377 8.168552356391915 9.310400545752373 0.17917606554495594 -0.039737942019570274 -1.428033118980347
Ni 3.5684063368868473 7.60373337140323 11.725616438092878 0.2325315983479608 -1.3597721298204193 -0.03484667536553999
P 2.6057367861561325 6.430972444482279 4.592085696595506 -0.7517018613009312 1.2548898898930325 1.6424546379911587
Ni 8.673439606326244 6.103595800502727 6.6093023866189835 -0.5554487856690306 -2.526037636405824 0.5354877691660713
P 2.986393219704062 8.6889913961176 1.5877533268029147 -0.0392813140981259 0.004852442996294868 -0.48976609875924043
Ni 8.828581325253692 8.434437498789366 1.6974663868548836 -0.4861413575224595 0.37556540964440477 -0.6456430845669396
P 6.841236916765728 0.3777277425146552 0.6611776910339768 0.7473448698838162 0.19079976582681335 1.0453066728111289
P 8.206060153835606 0.27351974079590946 5.345730017433186 1.5394400474001295 0.4661697994965391 -0.05110736019877649
P 4.0464380772522714 2.5325286854214877 4.8662320965316805 0.37547850635755337 0.2938061288877262 0.5417689741890928
Ni 2.9662722314961316 5.257294007839124 2.9557465599630097 -0.9193616986761716 0.8924761871392372 0.14746047960922992
Ni 6.492858475244928 2.5109763820469198 4.785310491562469 -1.6586700714087563 -1.0846535500398673 -0.8856928456688166
Ni 1.8152929853803008 3.251012198684872 3.38656600255299 0.06522605898834573 -1.090107374065587 -0.46789038173207154
Ni 7.106323825704861 3.158930922964495 6.905538750626939 1.552413576841662 0.7090282336918048 1.0113277447625229
Ni 4.539590377839614 5.06080012573195 11.313033418741421 -2.1739116887312817 -1.2318831445852139 0.2696853245801226
Ni 6.2870977449434955 8.80683634483746 9.024369642384492 -0.816404186575323 -0.3467112044168738 0.6603101996608112
Ni 4.1592734228889 7.820027113315564 3.2726369853274946 -0.039940030728047346 -1.3568716683441728 -0.10833163192856826
Ni 5.611471110804252 6.24206636777773 12.934493300208937 -0.6193065035549399 2.4252599055651136 1.4629870093477129
Ni 2.0715167504029455 4.990060126150033 12.235960118345155 0.5006068981284862 0.2476391434133606 -0.18366572588519336
Ni 4.171164348888661 3.366618423682556 2.8176329039699435 0.9197897873525256 -1.483830428455625 0.09714630473571012
Ni 7.157575918787168 8.848876640308841 3.6543742453281807 -0.4808124891103784 0.23392745025422293 -1.473285048839611
Ni 7.558894671279129 1.9303854049335507 2.4898121852848436 -1.0833643989147987 -1.290131486704146 0.14251110602375455
Ni 6.8135739986412815 0.8052955306491453 6.83522631057557 -1.7051998395391794 -0.5162230073991884 0.302403383638434
Ni 5.880035381590538 3.1406266040065285 1.0886032651615254 -0.9386480577096094 -1.7575487854545409 -1.1281414460201733
Ni 1.4147908165411018 5.060901051801393 8.143286891171588 -1.0401472400973764 -0.7661679161275902 -0.5750896998284095
Ni 6.417659378413101 3.4536166955419247 12.072278218923433 -1.1385754968693038 0.2230768806929642 0.9503566043957892
Ni 8.653492944965533 8.282919943264623 7.390891301065826 0.28436143853505863 0.5760592628305304 -0.42388697956792804
Ni 4.77439946594602 8.849931776489376 0.12528228252804577 0.16679234716862243 -0.2467675394416847 -0.03602475483404118
Ni 1.3851827778055839 0.2559714498490388 8.228237281330998 0.3516724050768911 0.02984099462083248 0.25274355451946146
Ni 7.889721151814166 7.964305517132117 10.63589197605082 0.1458046891733618 -0.034532229448914716 0.8333739816604421
Ni 0.9696885001055742 5.684670036441674 1.5711023603643595 -1.1135319236371144 -0.5140321703954567 -0.4374104679756596
Ni 0.47702981974877695 2.2085101270252014 1.7396452262943163 2.5890448333659797 -1.1979651516815304 -0.504219555180409
Ni 5.108593207161548 6.465764413148249 9.580142899021968 0.21968508140259585 1.5912565178507885 -1.4833491179438323
Ni 6.6829481394911205 4.137565142861557 2.8773903121770794 0.7862844843718072 0.4697523746414748 1.4873500115731093
Ni 9.1287538059699 5.569449165527315 10.00561692997039 -0.1662228478183976 1.0244334289065453 0.5388769973532784
P 7.308515443186922 2.413601075229426 10.412237971146967 -0.37775984619256237 -0.6175591818465299 -1.048568631391852
Ni 1.1723480475459587 8.3412368612079 10.851409504738168 -0.11747781720421058 -0.4510046617203265 -0.32551065907985877
P 0.21395684464988046 3.8466686854368284 6.750263075280049 -0.24052875762082448 0.4873878283350509 -0.5377130589521643
Ni 2.441153892187207 8.718489333686453 5.294257722017551 -0.5014671892462524 -0.5287789896873281 0.04220825793693376
P 1.036272180645907 7.153887529703908 8.920123105257414 0.0759727559818885 0.9139096744226649 -0.0594935273799427
P 2.6412627625998653 1.8346524405188018 11.246212103183037 -1.7205022742242049 -0.20429754320293203 0.22236365667602348
P 4.60272422182446 4.451885623494149 13.430024703505955 -1.5488523418529647 -0.7585021720522163 0.5022164087074512
Ni 0.6304282702040372 5.109611642953194 4.230276747761088 0.08659141203799925 0.3025874746247821 0.19576482314157254
Ni 6.651532606602861 5.572761375624472 11.045655488025943 3.744762646342525 0.848267610942823 -0.9516457555208578
Ni 1.9188523077254482 1.918742206558784 5.335417208155616 0.2562729078289586 -0.3875310666467132 0.22589326709583674
Ni 2.305527605051035 0.09252810295509083 12.816696979504353 0.3852826369321687 1.0925540358338668 0.5288777200487215
Ni 4.088891252098643 2.0989778163885067 12.656747509632558 0.7089876102618564 0.5549620758405991 2.209460275259853
Ni 1.6728679512025983 6.990277196040519 6.788212194900122 0.4421412977924256 0.9154279108394041 -0.6045848810740491
Ni 8.534730486523468 3.4370372948617014 8.982525693993663 0.9989298853188022 -0.19911574189167644 -0.5706265218507334
Ni 3.6515235426212933 3.984652972559064 8.895198953653747 1.0074718613515423 -0.06801159215328287 0.007469311793851652
Ni 1.5540229168855348 7.506303014002404 2.8731468297118865 0.6347871156890422 0.6013550612828418 0.36458319960128827
Ni 2.935012675260647 1.7069993128685812 1.402236531012187 -0.07183713654696015 0.2338924832512294 -1.2785543233895076
Ni 8.151037095795044 2.4565038298396775 0.0984221854105283 -2.2017083992285755 1.3595247896963039 0.11211835266451015
Ni 5.05945138644031 5.675742666844631 2.1091218038771924 1.5179114292997342 -0.5927554925392888 0.042524503625771926
Ni 8.202197437905129 0.7012398355442854 9.075129950255699 0.30253528123060797 1.3444804937686716 -0.2198779141396923
Ni 4.831642897514318 0.3495345037707755 4.7479660108493285 1.3541776664517775 0.5144479177766366 2.112536113837278
Ni 2.458008545784092 4.0772755790155415 0.9564589274211169 1.4522829926666472 -1.0022941738053448 -0.3277919989148677
Ni 9.011551114055582 1.6532791186335463 6.920766659486357 0.6229104188561142 -0.6570706096775909 0.4662852420284808
Ni 2.5302899616993106 4.33441685376039 5.603063969219698 0.3742955417930457 0.3193353835070823 0.4283884669827073
Ni 5.888210393215375 5.680853195997306 6.808824968319154 0.8837264659710651 0.7487224669576331 1.0868083915993412
Ni 5.651492884886783 1.9936293500850617 8.733518142936152 0.8277923738076066 0.012242821923095044 -0.5572508718747757
Ni 8.666420656951386 3.745210460355527 11.558859046082329 1.0657119759403584 0.48468971267759753 0.09846039556144333
Ni 8.861620850350253 2.834270107762665 4.843577863980745 0.2620632892584906 0.11613981511907741 -0.8714982993359893
Ni 6.82383175733552 7.643296390624659 5.69745369940114 -0.24509349417337148 -0.12859475305297852 1.1560312304519058
Ni 3.8860757280054834 0.6366526561594681 7.221877752648379 0.1933510714937573 -0.35040587965964165 -0.12841246183884336
Ni 7.368474703532943 4.899813869874064 0.533545666107367 1.0097591147238223 -0.11748090252800412 0.18052820869747618
Ni 7.35306971529714 4.746635621752133 5.101596278020022 0.27626426334922094 1.132759918628791 -0.31487529085319965
P 5.74847366252373 8.03386192917239 11.195518773521554 0.2758325751284411 -0.9621888211440269 0.7157889494544061
Ni 0.47041824469057614 1.5109550105252865 10.570199197450748 0.9974769549223595 0.7025716794331835 0.8507744365250767
P 0.1162356366671159 5.801496549369889 12.213251752720609 -0.6272902930913649 -3.077487071107474 -1.8113087527848162
Ni 4.944469068053724 4.882335309666081 4.649546577967967 -0.25029972096465924 0.16437268198353627 -0.1515271934794358
P 8.754455714796844 3.9786708091702954 2.1733117015522954 -0.334634732868314 1.6408250728075355 0.3589224017710851
P 6.346497324358972 6.71634549337934 3.83316385983571 -1.4224168012348342 -0.7796374113689347 -0.4584667744253266
P 5.05544186895428 7.918264879271929 7.675217471369852 -1.3250480960756728 -1.0759143703946568 -1.127737268603219
Ni 0.5210409261034509 0.7385989964129814 3.5992089732806747 -0.31394095196438837 -0.8702911664017656 1.0573582046590242
