# total energy = -340868.5420964563 ev
CRYSTAL
PRIMVEC
9.30269741337713 0.00000000000000 0.00000000000000
0.00000000000000 9.30269741337713 0.00000000000000
0.00000000000000 0.00000000000000 13.61543799554223
PRIMCOORD
 96 1
Ni 3.5436299282859975 7.570172170563605 11.403283430104846 0.05711140030101132 0.19259131050959732 0.8701908933784755
Ni 8.891229593562983 5.858699151763726 8.955554023574472 -1.8544089264083998 1.3600855472957802 3.2443529518265093
Ni 8.58039857224955 7.003777451961012 11.894296532812222 -0.37739500665397585 -0.2283407001950648 0.7216214969757829
Ni 8.270293161317177 3.4713479710955215 2.00537685230073 -0.09048971865114093 0.12652295812561434 0.026330667474728845
Ni 8.802509770432279 8.238915163684812 3.681205656535485 -0.19419979264729778 -0.27944368951846715 -1.0381158114896445
Ni 1.057000363172908 3.4917952995259802 5.457666387656724 0.41343647365856534 -0.6257075219852772 -0.6402648509741619
Ni 0.3323556020788559 1.3976279235958786 6.864957953096806 -1.130441812018576 1.27419553220018 -1.3163791075467652
Ni 2.967290626383968 8.33547716054931 5.750656696293208 -1.664169661070747 0.4760713748809673 0.8182651510434618
Ni 5.132837597876814 4.890948865461529 7.4483793983719515 -1.5482558459195463 1.1375239156763377 -0.6683387263922425
Ni 4.6082585031572565 1.130426552118137 5.660073542914724 1.5078615012628998 -1.4124296081151353 1.1002912565771246
Ni 4.8933210532457725 2.169695974440974 8.25395018288832 -1.90941382188937 0.4674504659811756 1.1962566536308559
Ni 6.273152917111228 4.979315186098895 1.2463567645386924 0.18949775918593814 1.5517895701044178 1.8402802003165015
Ni 7.35596826499502 7.835671148455008 9.941611087682992 -0.07616790271183012 0.5385494388105306 -1.7033216486798601
Ni 0.4048198921343172 1.2320027027697213 4.196917420290569 -0.3918502628473574 -0.4350597083552959 2.0270639030053865
Ni 8.205658021219438 6.550029093669806 1.4504393355611724 -0.7900822608513425 -0.6716017134142305 0.4565883264556911
Ni 7.1194285834657745 0.955898650078172 2.921532519430491 0.09369357030041928 0.3540828142905966 0.9315718675891183
Ni 1.1281473913058246 1.0265154244710815 9.11032113623683 1.0572507325468825 0.8263744104141574 1.2599284807582043
Ni 6.568076326224443 5.8179998515438625 10.926810443110309 0.6724134106822484 -0.605620521427415 0.17015740698611342
Ni 2.1625235949050854 6.971757568222324 3.905697414929932 -0.866176887123076 0.9617193377067761 -0.8913073636421165
Ni 8.290554435803774 3.972447058099665 4.347041556783844 1.6865099764391598 -0.47297293846130156 0.9038787725492239
Ni 5.327654682494955 2.3184088917700545 1.592434775247107 0.3326418708080013 0.24324281411787785 -1.2474380616006775
Ni 1.23137011936059 8.094732659888777 12.49822298324042 1.2225706089350363 0.8050615078689941 0.14455256193381555
Ni 6.092857342811534 8.198746117204957 11.861891517409735 -0.14094633263979597 -1.2509141930747358 1.3671931048748391
Ni 3.266725843635841 3.394098373603923 6.31153119438141 1.401955448056689 0.29025543542199045 0.10249111398739123
P 4.64408319004793 5.773393418502893 12.096172504060494 -0.9184384155309538 0.9115902822608688 -0.27124058488238445
P 3.1625821485589576 3.076848491227242 1.6602932999222588 -0.5027337146635019 -0.983311719165571 -0.16927114772641816
P 4.588378639255577 4.806508283039656 4.73619849765412 0.05437240410329345 -1.4389870468886894 1.17180726233924
P 6.726612891789449 5.988313631755347 8.591450176514966 -0.34171966473955345 2.8213697150197734 -0.22159026884510868
P 0.959405766919975 5.259344977005937 4.000092813618154 -0.3100974098485821 -1.9872989644026224 0.25993878671632004
P 3.176247810735638 0.46092911025456923 11.645134021461642 0.5794839722413633 -0.13251851358741693 -0.30430111488177913
P 9.10316364101645 4.800442924469747 11.078690928833643 -0.551914804373843 0.6960703879795561 0.1764190716251091
P 0.6945337908193886 6.345341847329774 0.1630260472304018 -1.977692808771426 -0.6455363837857463 -2.6354517027652937
Ni 6.84704560965147 5.433779852073971 5.629956060752026 -0.8191146435279507 -0.16252071637646204 -0.2721445847538926
Ni 6.095006265863143 3.653550598319803 3.6358252390880486 -0.28125400325432853 -0.21698079509755536 -0.08217117148311655
Ni 5.590902407665625 3.9276731765092197 12.413548903119 0.3645793429465463 -1.0274950985510045 -0.11941360077434272
Ni 7.639626107807377 8.965576749530332 5.769337442526696 0.4112145263065821 0.6816398143765229 -0.7014514497858113
Ni 1.5909937874518942 2.0304625055516743 11.645107043639781 -1.0211683850020286 -0.06528313747852627 -0.18088379226468204
Ni 1.1455155269653636 3.9238218598712713 9.609176412677995 -0.3559736035554063 -0.5755797520909506 0.8480444391884234
Ni 5.95103772410255 2.993747497201177 6.365407765175315 0.7688670602263081 0.6146705474448252 -2.278822210793443
Ni 7.017815222025417 4.043649902415741 8.256754946092043 1.8210015545925475 -3.0959923290005134 0.5907114655260665
Ni 0.7508644131328367 5.011744388514082 7.470014681233971 2.5551245264694513 -0.6414298178165404 -1.691924976807144
Ni 6.670108309038489 1.0279480398388205 7.545988878940394 0.7830374381894192 -0.8645334379823821 -1.0844458049044357
Ni 8.68495158600293 2.7724456336742476 11.747276706372284 -1.3050649680855266 0.22651264584739056 -0.650136344451603
Ni 1.096806604462232 2.968890690301183 2.931118018618273 0.7161944124229407 1.069100432796617 -0.262725862543154
Ni 8.479752691317277 2.18313837188502 8.940413883892683 -0.7597746110067366 3.2755718006314747 1.0702407170486472
Ni 2.5983456557051654 0.7363782530637235 7.231580970556208 1.3817668889239558 1.671698108237308 0.4333812922116084
Ni 8.395312108895403 6.92310446190235 6.674791286805502 -0.10076487532490387 -0.5887366011878828 0.47649689245416
Ni 4.9967298352444 6.866041717319804 9.601184465519392 -0.3234072395836108 0.4130551790597467 -0.49476432330478015
Ni 0.3602841595920152 8.123636140067775 10.042637448930464 0.4720504266470321 1.3658139651391252 -0.21530237895386792
Ni 4.134295383865419 4.708374130349522 0.6086671049178116 -0.4327084345142999 -1.118687756806441 0.020923380416228484
Ni 6.3439650481451935 7.814405182671555 2.756717563529854 0.7529817564546194 -0.7794708038840834 -0.666268217016459
Ni 5.640541599888068 0.1434996858220607 0.3520977860620771 -2.0093112070076553 -0.6811829293447624 0.9128686347526601
Ni 2.892664389500827 4.241955498481299 11.481667026384287 1.5143892750790886 1.2375876511691588 -0.18079791741909507
Ni 3.2610791064396216 2.3077573034839416 13.11271450687084 -0.2129919856531364 0.5847603901489542 2.114767574270958
Ni 1.4898083500824204 6.214899427287964 10.784094044391908 0.5107943801844493 -0.7279921763888172 0.10622821243232028
Ni 5.151517413840582 7.149243727969697 0.2518342459844407 0.06695718274683952 -0.6572544435536228 -0.38720042278017186
P 2.644384704113875 1.6543823661257557 5.165656583304393 -2.284779713928459 -0.5556454750608688 -0.9829628204665847
P 6.6334835901892095 2.717569022932083 10.395726902513328 -0.20893632752652402 0.5680906428027571 -0.253126391780177
P 6.966929468379098 3.2544462833409336 0.38655590673508144 0.30905868417142257 -1.6867956260003791 -1.3247778731334217
P 1.88583347229037 7.00427979760944 8.71051725842904 0.23805792748282872 -0.6960109954965303 0.0915569835733907
P 7.367261739387458 8.021055298119334 0.04685861603142193 -0.7990736657166754 0.4204216467271469 0.15385301339913504
P 7.295677484486466 5.609238023833247 3.3560559237024132 -0.5382383353280149 0.807582474518635 -0.7688940568095016
P 3.1862761183098125 8.500432587177563 1.2310426644193921 0.8477567327446754 -0.7371568736072207 0.5469052669743936
P 5.702171968792431 8.756610262481468 4.518337701818922 -0.04030975536264026 0.15136110021521673 0.6138272256079235
Ni 4.464596950404036 6.872441972988665 4.94210439732645 0.5859032455041457 -0.40770497049142684 -0.8725907610692196
Ni 3.081192850816425 4.635664249088163 3.0850264923297064 1.017714365015157 0.5581381595757355 1.2208217445647298
Ni 3.581873316446879 8.9565717386474 3.618138951184505 0.7902149297744648 0.649868435502197 -1.0330080579494338
Ni 5.143479883465734 1.5580901474798587 12.18463185166979 0.7954198710141721 -0.8720012071143369 -1.2273418050714346
Ni 1.5908170362052247 4.2969716496813595 13.309485157899536 -1.2508488870544394 -1.0018794548654295 -0.26208154409093576
Ni 3.2558416879199004 5.14403804529732 9.090850591011648 -1.5387260520522403 -0.028104985766332243 -0.36933922622903487
Ni 2.319208923728662 5.650997831533125 5.850213231384169 0.9608410488668805 -0.043177563828738545 -0.2595657196476175
Ni 7.5668604103628585 1.1299986280472536 0.5002041675341666 -0.08785330946955837 -0.25542367245478587 0.15474467197546896
Ni 0.8617395398986554 7.781129434811795 1.6364393237796822 1.93897070961088 2.550882977584278 1.0440324340843956
Ni 2.182189496771323 1.1126956112680664 1.8671257482350225 0.36844165411543 -1.1430301902065476 -0.4283360164782171
Ni 7.763268256201021 4.943099785926112 12.803576576446552 0.946233840476667 -0.586509511629577 0.8763098617920199
Ni 3.083890633002427 8.823896671279243 9.368782623701643 -0.23620467632417383 -0.12191939791533198 -0.07658622119617133
Ni 2.759124171293712 6.374263932903157 0.20439235083901067 0.5879531860546391 2.3424816966256174 -0.45677678831741336
Ni 5.348055497439448 0.0066374744472850545 10.089243961867952 -1.7011341541102378 1.1814422143258425 -1.4858572290776668
Ni 5.747587736489201 7.6980470461801165 6.751895762220887 2.1527260557926025 -0.2782982630601143 -0.7323769357200741
Ni 7.22602819060164 0.8403368244664637 11.035462225246974 2.163986202087454 -0.6489790909187081 0.2617840674551749
Ni 4.24554633959784 6.811081382302901 2.3675885307511577 -1.0675595706720582 -0.2021517005045228 0.15654315863678844
Ni 0.7839001514050142 8.532247811578005 7.502188059476347 -0.15158221508708733 -0.9510903972380201 1.1250671779702237
Ni 0.2228758798920039 2.084064646778383 0.21382528579282573 2.2303296625096944 0.42066795840999804 0.5791348164320607
Ni 1.210039034696785 5.168104122935899 1.8295335488776592 -0.5349743198647625 0.19497832268453516 0.9923548032044457
Ni 4.9808501311357585 4.0125974991851345 10.04484404870467 0.9095459981373303 0.357750492950171 -0.3532783161114303
Ni 3.373920823392065 2.304110646184242 10.315586957003829 0.6143026225824453 -1.1182784371831644 -1.3312341702817265
Ni 4.163691906995651 2.178105612703547 3.602032261264352 -1.1601359966488989 0.4859258990775438 -0.2805135255438782
Ni 3.804821757376989 6.839798808538037 7.50009123152902 -1.912992026158931 0.6688074384985448 0.41800943774122845
P 8.59211997071287 3.800542516668158 6.647383680335157 -1.5569135215945444 -0.49899918732173415 0.11941668609813628
P -0.002825229137547962 0.7270867191072437 2.1727519104689113 -0.44667749509988236 -0.1538941510497156 -1.079999596207624
P 2.5364362058850087 3.000612887729693 8.29696213363039 0.6014216528547189 -0.8144138956181716 0.39099948481128793
P 7.347967945408945 1.8201285220154233 5.0861287552702015 -0.04223602585107565 -0.0561148407156969 -0.3275904244270229
P 0.06689383497622617 0.5304211885568314 11.745493379320365 -0.4331493787064605 -0.004909778596791544 0.2238150444105694
P 0.6207327031772771 7.981230451435624 5.482923210536022 0.3687075061823069 -0.06353504443916799 -0.9694701852967883
P 8.27077690157122 0.23441122441146217 8.658302149353823 0.91742720065762 -3.302017139307197 0.08694185339888252
P 4.844556314559482 9.114336180345376 7.9393524994813935 -1.48231656291426 1.067567026871226 0.8322200705616571
