# total energy = -340864.33114555164 ev
CRYSTAL
PRIMVEC
9.27742813451815 0.00000000000000 0.00000000000000

0.00000000000000 9.27742813451815 0.00000000000000

0.00000000000000 0.00000000000000 13.57845385167462

PRIMCOORD
 96 1
Ni 3.8161029824473744 1.6121479276177462 7.456893192661095 0.25051415096831053 1.541620085770584 -0.6785814871661733
Ni 3.0761817184438685 1.1672952587071055 3.0987796773788534 0.7683906348105218 -0.7707416515412016 1.4055105123977987
Ni -0.10245156429712399 2.969426355333238 11.323560940517515 0.8002494311923315 -0.9699430111681488 1.0219561710106464
Ni 6.611169357394656 7.612695533972558 7.969669622367615 -2.3626085492824793 -2.1373104925684805 0.652401743447012
Ni 1.9616379149072714 0.7065967429038815 1.2256753293985339 0.11021547921484244 0.034373078163231124 -0.6867887055673139
Ni 6.36600404709992 7.8004892299911015 0.9336608635779386 -1.2238988408281568 0.42065664555608845 -1.096471625720718
Ni 2.3997273388620024 8.999253524213222 12.764439198990475 -0.05274258180935433 -0.32651364642307634 0.6654899440895378
Ni 2.1716974379411553 4.130830447309201 7.255361481374087 -0.810395775597714 -0.5169948525682064 -0.3050418497025456
Ni 3.056541403530754 6.580878555225871 4.5849141570032845 -1.093982283639961 0.40382029072504 -0.1997333208710173
Ni 4.198268070881912 2.811348260952249 9.665862697283139 -0.5551613363355987 -0.16957350945818536 0.19790552363365915
Ni 6.288296310816385 5.419010591853755 12.585665018398728 1.410611838180106 -0.9371167086667473 0.216598214947156
Ni 5.971574198951101 0.35284841619767243 6.412791043858696 -0.12339701090212296 -0.4446666353174406 0.5912408556669753
Ni 5.966703549291496 0.3274533127438852 3.851691195960226 0.8915269358520903 -1.3320687503678799 -0.08239434323751617
Ni 8.099797609644806 7.6147087358318615 10.598241420322108 0.745429398028658 -2.0961759273116995 -0.4436081121459392
Ni 1.713680098807695 8.365224822523501 3.0786151877880865 -0.15350771424457435 -0.5808808525888899 -0.3505580889667898
Ni 7.919722733658246 1.650528646935438 13.409374444946543 -3.1039550354910155 -0.1539424877891478 -1.5026794428413282
Ni 6.119577006607648 1.8528044079418757 8.65238069934079 -0.3109355894791613 -0.3474725080629306 -0.8326928964330176
Ni 5.036446574018527 7.499798513576863 5.622783729726975 0.17304449872592134 0.5172247091908253 0.6499823353722418
Ni 6.364232058366617 4.2635347763206255 6.18402173193238 -1.3881074864300031 -1.304640221843282 -0.13364439966174402
Ni 2.8079156126207176 6.38939244289395 12.370785871558818 2.02971548169562 0.3951176207447195 -0.28077243563221965
Ni 6.181642999412908 8.52430487912018 11.504195245407836 -0.8590317914378625 0.0634720524117165 -0.29422059071732554
Ni 0.8754505698175024 1.770216744570812 3.6084741455293323 0.8812551216124371 1.261603554467782 -0.34596918404452676
Ni 5.949781520759838 2.455364074116583 12.493765600621293 0.6074084665657732 1.6293376409932263 0.9066506788674062
Ni 4.358220205703358 4.552387494705043 4.83592517463234 1.391868496134332 2.562774586815541 3.74194111773333
P 2.8464911579247936 8.406129002236264 10.8511533829326 0.3280897326609446 -0.75088373627501 -2.123118260228498
P 0.8847929397360219 6.067883178220368 6.364560479315093 4.161950873734039 -0.16517075240479942 0.007314531383542241
P 2.685397899468811 4.199344252520986 11.733182576890343 -0.2384446213982861 -0.14730158543386243 0.4043787343316714
P 7.13742217890221 2.120532422945489 6.603717727286856 0.7422985657091602 1.278776723812959 0.12984070964493769
P 4.425750603555298 8.100205816473421 7.749725927624505 -1.271186570170527 -0.6320218942390793 -1.5666644303337214
P 4.319190066431052 3.7562357400598803 7.157447507074131 0.07572053076176638 -0.5397570859653866 -1.0811486222104028
P 7.917356989537867 8.20902076858297 12.666959408317318 -0.5529141921726348 1.5856417427671725 -0.6819637733748448
P 8.75834655333517 0.10365299121316002 3.3280110052157372 0.6519898527205739 -2.9999706247875495 -2.890844264871828
Ni 4.329979715105568 4.056369810798736 13.338875270159225 0.13628260861553948 1.2497821363528219 0.30989634958136947
Ni 1.4283713578898862 1.0090130609118095 10.97101032975617 0.8719531274852208 0.030263941090864006 -1.9872328870513774
Ni 7.992105226313947 1.0313252750667645 10.871195410474781 -0.7771542399357648 -1.228670036964555 0.12448510175997915
Ni 8.946112417069944 4.426325804086527 1.694944333117079 -2.573343363470323 0.8061755668687793 -2.3579561381121326
Ni 3.252981662373588 2.160601634145178 12.695731495535098 -1.0236281593964307 -1.0934726909933943 -1.625044927155143
Ni 4.891282659306436 2.047277852065022 5.060540054334709 -0.3380512147490307 1.313699503832073 0.8347744615523945
Ni 2.007023092306872 7.886685812824236 6.735497096734352 0.6933923269267607 -0.6861222756279087 0.35274944019115373
Ni 4.519202135024264 6.7886279987069145 9.676657912414408 -0.529640823466991 1.3878994841842547 -0.09849896210886262
Ni 0.3208886047455292 3.9344458530339055 9.192667486067554 1.2820412534968437 0.5972461813207907 -0.619622749243778
Ni 3.2744217983037758 3.661077161853072 3.4443109861736096 -2.1591944371257656 -2.431493030959019 -3.3782356927513044
Ni 5.072238890945686 2.064246267736295 2.641389492372992 1.0422737995220759 1.2195495627205253 -0.9625577744476712
Ni 8.34234668526524 3.7778150374089132 3.9281789504718794 1.21583149043899 -0.013865959348814832 1.0682897639698634
Ni 8.40793810068126 1.9885146236003712 8.673182548229871 0.7981838069125544 -0.7306373273211482 -0.6604264135237013
Ni 7.5817089247095435 4.6287685587955805 8.072173140261107 1.6252418736572978 -0.42666582786464585 1.4112312169316599
Ni 0.21957909182573376 2.2238551377245885 1.1210630521381297 2.1345820378937237 0.3057720430003508 1.5567661973834028
Ni 2.640986852001131 5.703651357961103 2.2256447535709465 -0.3895339560093549 0.8695563451182702 -0.5115160888418222
Ni 8.17407269759681 6.556970623468151 0.17349346861794215 -0.03968497729444778 -3.0806531275402813 1.7928883412960996
Ni 4.685036159148929 4.910329218832474 11.006450104422255 -0.24634819251607898 -0.6420749075997071 0.1180246908466161
Ni 6.707923653204231 3.498629398920323 0.9225251668418919 -0.7826653995619811 1.2329573514859993 0.6660527585715432
Ni 0.8928058542331673 5.213060969389786 13.244179635605775 -1.1945563831102974 0.2220034451231273 -1.5981684144792734
Ni 5.409436286237159 6.824216212219765 3.377395681792968 1.145920110159833 -1.0437280154700992 -0.1514893982629649
Ni 0.5511042676850493 8.757066268281786 9.286834307229388 0.6631255576224192 -0.9174994486564522 0.8981418700654467
Ni 1.882649893570354 3.741243416536218 0.7359449583956839 2.1199730297312973 -1.5763790865183238 1.733723400900169
Ni 3.9893589489104864 8.055117516767359 1.2596214381690038 -1.1547204820602823 -0.705439745009598 0.5988734325115685
P 8.134114815532199 4.045849207533988 12.99128066139438 0.5468368756303034 0.49392922899799446 0.1555741098552998
P 7.03436850953288 5.355385991157422 2.806041572180259 0.5505382357412906 -0.9130884640729501 -0.6568482092541398
P 1.6990774272568014 2.198490649782947 9.012100906401072 0.033650341064593664 -0.09419236431370875 -0.22896856358705084
P 1.0465866440001952 6.202841922217097 9.789386083621904 -0.3271389387119011 0.04500021885977411 0.020148707033733042
P 2.03058775923144 1.9335922502958665 5.765208019973387 -0.6134150777711693 0.5406065784498755 -0.14725941934201733
P 7.762405388366949 8.971439795299894 9.004388580568634 -0.29349091164015256 2.612894643400384 -0.05626576447126439
P 5.125315056093502 1.3814090177433658 11.103821349188712 -0.9029891708554191 -1.5262353757843972 -1.757361609144399
P 0.5624366458930649 1.2061305719930273 12.796375816872812 1.0942126544832125 -0.14973230636254212 1.0427947050225526
Ni 8.789370272309876 5.15549452912721 11.033932629158729 -1.2102581101162704 2.166889491777178 0.40388508252470445
Ni -0.4519155747884648 9.001470829486832 0.861540922132461 1.0587609985438218 -0.46826447724203873 1.0383700935922955
Ni 7.625730320204455 1.8320415242500716 2.358061482316756 -0.3875212964547003 -0.598268451937718 1.3205270682768677
Ni 8.323504229153508 5.394063588168652 6.045018957103991 -0.306742120223104 -0.9892345124079093 -1.5433195849601937
Ni -0.008952717945751162 3.0885021427256896 6.459989958417253 -1.1594173733153192 -1.3861416209528838 1.0596626844224848
Ni 4.747575300778264 0.20644318162947564 13.077394675118997 0.2564701114414293 0.7058593490455198 0.6717739773260366
Ni 8.430482250534292 1.1487775125726813 4.935672368689892 -1.8857614725777525 1.2495018861082416 3.842004339005518
Ni 3.4655182586629287 0.25828544886352484 5.485627163055274 -0.7229327595880388 -1.2249049134951677 -0.27583103246654433
Ni 0.20547461815430834 7.689456972607942 5.047749264457189 -0.3494322028924627 0.11059625959302888 -1.2800998134997565
Ni 0.3828349187305812 6.000148676954121 3.2972832361917757 -0.1319335876182244 1.778615376316853 0.8389702448012971
Ni 6.2106164068166185 3.588481288355142 3.9573991374583435 -0.6942641880087528 0.27163936298269986 -1.488167108157766
Ni 6.9535157251834265 3.361175026812293 10.26379014369586 -0.21124774926852005 0.9106140343905285 0.25471816174732903
Ni 9.056578751349798 6.744708654919156 8.079438294067655 -0.03102010253059819 -0.7445145995238726 0.8108220645018552
Ni 2.788887607950525 9.324186159790411 8.67399803414431 0.1187271162302794 -1.2520709323869985 1.9496868104768035
Ni 2.7682267759658745 4.785399374420573 9.482173335377754 -0.08607462030258078 0.4283267605068365 0.45298363982356826
Ni 1.0719696867976825 0.6592660888688154 7.392911410989725 -0.9679601764101652 2.296763625763212 -1.9740955783384713
Ni 1.2526012084596256 4.230200977793078 4.94138911977608 1.8421532489694983 0.7469280940613717 3.7773791468259654
Ni 5.009792523595581 -0.1180589812920848 9.488610014870773 0.6221701982559801 0.6443477627942837 0.7744504678513566
Ni 4.975299046577651 5.289599749755016 1.7109395465992236 0.6288116148318977 -0.4236771775499671 -0.4067143244433834
Ni 5.4038883843391705 4.922324933136988 8.556014200018401 -1.63927006961559 -0.8639366849386476 -0.06372710584531605
Ni 8.324858733630276 8.589460255423818 6.8504787551843584 0.5735784053902057 2.0150995315546587 -0.531168315855111
Ni 0.6569689977150662 7.341358599506875 12.532301252985297 -0.18787076510547646 1.4668310656841512 -1.7543775868154108
Ni 7.74163322724722 7.453309322254419 2.623587963674228 1.1902073621129825 0.1913337839534124 1.5599793050040618
Ni 3.845466041823854 5.942201862146699 6.96243318890307 -0.6461688751634226 0.31187815589808865 0.3807610949127313
P 7.117633425142326 7.034136573834802 5.830153726405964 -0.15502209400657171 1.2920649562814328 -0.5736791926341281
P 3.617074321214007 2.4875660264375177 1.1675132782632973 -0.1761542479994966 -0.348694810505806 0.9023368819834008
P 1.8458741692833514 7.340746289263953 0.7531137665100953 0.29579410585203253 -0.10032418824305948 1.2275971156153505
P 5.016908310812567 7.0469208695127765 12.853486735424365 -1.1022195839480888 0.8184407573893775 0.168830974865206
P 6.727990729801805 5.745334841619404 9.905645243896915 1.113560977102837 0.29544160760862026 1.642175416187843
P 6.0691263535620585 0.603658113640797 1.3804534426672908 0.1105494655154935 0.4969567029704087 -0.37751739116445304
P 4.144514653495712 8.350046950441378 3.6366357779897753 -2.597201915255475 1.8875339910971427 0.20800481685119016
P 1.0996164220083962 4.071018869489245 3.0493133594358994 2.309195423768662 -1.724288223629198 -3.917500412461305
