# total energy = -340893.51163522335 ev
CRYSTAL
PRIMVEC
9.06758667791959 0.00000000000000 0.00000000000000

0.00000000000000 9.06758667791959 0.00000000000000

0.00000000000000 0.00000000000000 13.27132966884458

PRIMCOORD
 96 1
Ni 6.128781651359884 1.9161714267599086 11.507569629755643 1.3375763104496705 0.8125706717618458 -0.6959793709276465
Ni 4.801504623693877 0.27411676406756896 6.219847421628574 -0.6210656523378918 0.5609892558712856 -0.7758383493378187
Ni 2.657355939531261 1.6540093686091213 4.950789739236604 0.7800675569278178 -1.660870421494185 0.21890655136535847
Ni 3.44809481200772 4.088583777747926 4.871387605361084 -0.19457903036358745 0.8525927206807382 -0.0706333460468461
Ni 5.229494702025267 4.267006675445527 2.892393219709155 -0.8812103844174308 1.5479493704227212 -0.2731845959826327
Ni 7.231681253426099 6.260996128735944 2.5056670068324824 0.8864765179123766 -0.5285272786878381 0.43813011975050353
Ni 5.337915832673751 4.3297090354383565 11.830381146337094 0.07027416293521446 -0.11987614223305806 -0.97614322644159
Ni 5.7893093515172875 7.761101353287467 12.460915715721532 -1.4654156733938635 1.1541918632503219 -1.1851595152764298
Ni 1.7344116572651476 6.484104092238992 0.4782081853613669 0.10524887923818647 -0.16489564436654183 -0.06293006386531742
Ni 2.7523570422998618 1.655831953476592 0.3697589451950266 -0.2852564395455023 -0.3513417612103497 0.5683978896305308
Ni 0.4466031129456029 9.344691845872825 4.788786427001766 0.19224421158282376 -0.5769259817062 -0.16532373304289594
Ni 8.597967037807818 2.238687340024546 1.376236553702925 -0.1798548367795354 0.7782734411418726 -0.6854684440939937
Ni 6.894421444666402 0.789745971765076 4.772715036856966 -0.3019598683431122 -0.8391803039295742 -0.6445187411545094
Ni 0.7386093182322396 7.623518864759454 2.90169656336102 0.2808737370967743 -0.33916990173450623 -0.9394659256252144
Ni 7.857526067121703 3.877154865534939 3.6752287838747324 -0.41487731987015003 0.5142604843561789 0.29583627194387757
Ni 7.499646566876295 3.6416333762429995 12.77772902389586 0.8292725578975589 0.1546641964465207 0.0827373283992317
Ni 7.621514928163877 8.862613614633666 6.8597642226666045 0.8643056382422922 0.05198359215614273 0.4539182358226957
Ni 6.7704222005735675 0.8306516675567829 0.2837673962787575 -0.11317121940905671 -0.16213530801258527 0.0978710987168766
Ni 1.8746600161963258 6.617977937927225 9.132425995434625 0.846674298313774 -0.5989274256779556 -0.4417746584816263
Ni 0.10212097161406317 4.688740119157242 1.4480482109985453 -0.3696099633919183 0.8580146630272577 0.02486591000374427
Ni 6.306080168343225 1.9883856848919255 7.092808447352608 0.6670907129177542 0.6465488842106606 0.18819858075854037
Ni 3.3661328984899774 4.392220976116675 0.5745367827797078 -0.7881081678441072 0.8522955011552935 -0.16970952081541738
Ni 6.101388472829394 5.532089127957404 4.87984131616677 -0.2061515656925353 0.30998196731664035 -0.19585686863474655
Ni 5.566482483192805 3.060156262828655 9.352491783698687 0.34362176685827267 -1.5769714686866843 -0.7300027790609427
P 0.12139140624266212 5.807353848463887 12.519548542935654 -0.10837379802041334 -0.9877023920340988 -0.2487678577011651
P 3.981985231966913 5.864787940755222 12.411984299202473 0.19424221584945903 1.6497329168201265 1.0498050749021146
P 2.298206977189106 8.399069530006992 1.3459517218677766 1.2518153647327668 0.10533732518693471 1.8701937000464826
P 6.249153860890588 7.695506433231337 5.663778592080594 0.3862077198495994 -0.3924642422822725 -0.25419339959211057
P 4.641742818818438 1.0185982512558978 12.727974270531195 -0.061914221006293374 -0.6316963925788605 0.1731514566174308
P 4.168197186386689 6.017341014438427 8.33995521395475 -0.4057023382391013 0.7949938392203469 -1.269141257605724
P 4.780658242548033 0.9116007316730502 4.042168616456343 -0.6070253721947416 -0.4539321197797666 -1.4508223489607208
P 0.32437567523636973 5.645778526307382 3.7007368111915553 0.037505967365257985 -1.1207592946234892 -0.8073533892269644
Ni 1.3581521593761428 1.1630811730383632 2.560848710660735 0.4908102237530385 -0.379738567185488 -0.004759369061856319
Ni 2.0487032696601544 6.392376388162713 4.9072598839391945 -0.48365458654486376 0.33468615493153975 -0.48086828204897825
Ni 6.198493255644031 5.42673284151392 9.185644566806124 -0.6730273901171635 1.1613971227495095 0.11182421846285902
Ni 8.544957927682283 2.2233812541723554 10.157517545315379 0.4094975436154754 0.7203392878292496 0.37232684810244904
Ni 2.5624273774539024 5.187647790764688 6.958303497650563 -1.4694847012569143 0.4064844678207645 0.835842754915909
Ni 0.8733926428369277 -0.21062461729883536 9.13270527709591 -1.026120329690665 1.0322760648794158 -0.06723254789541325
Ni 1.6328818922847117 1.182431402427329 11.406150489329352 -0.8130746079814577 -0.13136640226084473 0.4562425130804981
Ni 4.0955295489344055 6.9541768390775 1.4640534077625864 -0.7155616639349482 -0.8087551546704975 -0.07511940684265772
Ni 5.517834882128231 7.926548534839045 8.02543781865825 0.12704257807451022 -0.9726326421851701 0.9491579561019975
Ni 5.373497041728251 2.7580061486303804 4.842721337699286 0.6615420151853831 0.7639436547827617 0.9043297440437136
Ni 0.7173467348703906 7.757347372515661 6.797839861587352 0.26256208327178004 -1.3909526691882819 0.2994144762134392
Ni 4.821199421366245 4.404833988806483 6.987249046973647 1.9463883422311896 0.35024904236680326 -0.20257464697455432
Ni 8.097454403406632 7.114165333613073 9.02151762583516 0.6543100162133183 0.9511225360275363 0.8863687886899186
Ni 4.593847827425505 0.36923393194215826 10.576174356959765 0.15486062872804296 -1.0839966331821589 -0.5094417228112968
Ni 8.291391941443745 7.159222170461138 4.700187040235326 -1.041260013545581 0.6085549214653906 1.1185522596698414
Ni 7.22157089458416 6.242752144888428 7.0292655221000055 0.1804464476169473 -0.8096313866278637 -0.8161689306360654
Ni 2.3748371499005168 5.240765711927088 2.621061111426662 -0.8678362771033699 -0.20455233952621546 0.15068155764968888
Ni 2.171451186829053 5.481392252365225 11.306575695977905 0.5384445378015501 -0.2991334546379106 0.20765668948315205
Ni 1.1995419379741792 3.1984097527506616 3.89122050556688 -0.850265358099142 0.8852094782744948 -0.5400615045796828
Ni 3.6594330483566546 2.444204185901261 2.905452357650106 -0.5678271047287253 0.18547346851789348 -1.0607960266959795
Ni 1.1918888950480842 3.2968293355940705 8.190241201575052 0.022064693109523293 0.11652548059327028 0.6546139206069823
Ni 3.438310886276373 2.5599337911924374 7.2622308587842825 0.1171029503632951 -0.30797959217463083 -0.6089837814726932
Ni 4.155420957141585 6.905193737315929 5.921388721855908 0.5648880767050595 -0.058420348920421965 0.4208836739652299
Ni 0.763050997387796 7.53329638002646 11.228062185570108 -0.33503479652021007 0.007190861321484389 0.5814935464722243
P 0.2730504159063026 5.631469874959777 7.971397723958429 0.5201606518906977 0.5526737940270545 -0.36870107842440375
P 8.608122734581784 1.5610394051953134 8.08665853503245 -0.2020066902862263 -0.48210575400050515 -0.3980188535519145
P 1.8569419523603188 3.352105342320938 10.399771717513271 -0.348093172366065 0.11343681436561755 -0.14464615008888637
P 4.056647738428368 5.942007506582979 3.7684471991560464 0.23167902053967843 0.919244713482333 0.1676115006358081
P 7.0800349383834265 3.9012474426138897 10.497382471649326 0.7302182375058586 0.7917161969103397 0.6566021546816047
P 6.42315177642239 7.837522971511555 10.27066832903288 -0.7378114764720841 -0.9350672823368863 -0.16994991896099765
P 2.5626540671140354 8.55557607136292 5.740340757893965 -0.8610611631630654 -0.23040221070978384 0.4225422926145755
P 6.94581652441179 4.1627022290250615 1.6258046410953548 0.1488815283264726 0.07065648597529767 -0.8696203655869863
Ni 4.8694117782833635 2.8295222026091866 0.6207506436530925 1.892835091595082 -0.6485245198797929 -0.1873863692698902
Ni 1.3674555030280073 1.0240478706854987 7.028562784153592 0.5238041621805559 0.5045545699223246 0.03212850510342854
Ni 6.946705147879511 0.5699023393679457 9.156566630721526 -0.7367642661544925 0.6346369632644232 -0.1812925976673265
Ni 2.808503537321641 1.568420420529249 9.420892214988623 -0.1372017779956992 0.05687974390617946 -0.9328569049491289
Ni 6.233240246749241 2.238215825531469 2.450829871287633 1.2013780340178213 -1.7223647813542402 0.794552123697238
Ni 4.248309312277745 6.841539280750539 10.361749514198458 0.3409763588156257 0.30947031778754447 0.3914872230809839
Ni 8.13827667740341 7.618839990174306 0.0390223580953207 -0.08793069967471308 -0.6637086838193988 0.535085134411014
Ni 7.92863407971227 3.958146547307311 8.10880883510338 -0.5032865018431784 -0.8007675084793305 0.5524313389989455
Ni 3.104179394826513 8.236641854728386 12.553204703396302 0.8950825144138326 0.0864587431148769 -0.2997230085927935
Ni 9.136772089598699 4.9301192692670215 10.311836078071702 -0.20934744692201365 -0.6782881242954705 -0.7099725998829449
Ni 8.59243581010057 2.236891957916291 5.934752530700077 -0.06428632078289574 0.9183772232757151 -0.16568008794105013
Ni 3.657900626254154 2.725154283083884 11.529148671883037 -0.06060758637972788 0.1379484263537366 0.058240371699131946
Ni 1.2476908217864606 3.5346177214873413 12.566476022859137 -0.8399830023365276 0.010988123580387527 0.3689728440285517
Ni 3.1422360549696666 8.557253574847905 7.930322464300942 -0.09443173401802446 -0.21302643843549762 0.4057858990918431
Ni 5.421328560016345 7.881391954540522 3.3849318186254997 0.5102999570465341 -0.6134492734432144 1.8509019416964059
Ni 2.9236165467372555 8.436092485299937 3.508647247263847 0.865624871274348 0.23242438334613522 0.3767892547491769
Ni 3.6599136304361366 4.141393400972545 9.287965932079747 -1.7072850042029821 0.7251495647336994 0.4742854866251381
Ni 7.270862294283512 6.082083581372455 11.444384874166051 0.09587952220814455 -0.3061235128024986 -0.12691685112992337
Ni 0.7861751562386586 9.260816671623559 0.3051115879182545 -1.702983805724467 0.11620692091158696 -1.0385554701302244
Ni 4.587255692108833 0.27812917105192575 1.673461154965827 -0.3505508898779382 0.8698270822811537 -0.40838579860853536
Ni 5.976863308725052 5.7559950390641195 0.36848948309828106 0.2181125947091534 -1.2098539326993163 0.670247256268865
Ni 7.913509345588186 9.04780093178964 11.29082257811593 0.6513244512224331 0.3573972233758103 0.5469775149732258
Ni 8.989287796716072 4.743553678977438 5.823419798056843 0.5647572075541498 0.6955967907772472 0.10943283541254703
Ni 8.049133235452649 9.03916858953177 2.1615276202670644 -0.5016188843327684 -0.32476863870751166 0.7073999540597624
P 8.400266451412495 1.758758126763448 3.53373000477826 0.24365444773399975 -0.7501774542366049 0.26954391390625193
P 1.7118333671158859 3.221532098084243 1.6340062729989722 0.9762823231226155 -0.33365154301943833 -0.1138502477539523
P 4.759050184144141 1.2259739523457047 8.408966800568406 0.18220791039274425 -1.2757559347087641 -0.05920067872987224
P 8.727941821341764 1.7750253767746031 12.357625025461184 -0.5227610656280223 -0.47242323660541863 0.7039438771903619
P 6.2249978107068 7.763631209894552 1.317808653941566 0.878117861535036 0.87229122755093 0.2998597912809739
P 1.6991568813212399 3.3133776807837907 6.020949913827748 0.27263129458232405 -0.3020699115584152 0.3377277699713409
P 6.9372385876723515 3.9056814923660945 6.165062878084875 -0.8984681430566139 0.3869636241790175 -0.9506358261991049
P 2.6142486337603406 8.416896404879862 10.382612216999831 -0.7334645123572981 0.3843315858728091 -0.6102845025619876
