# total energy = -340862.99094149406 ev
CRYSTAL
PRIMVEC
9.30100730500911 0.00000000000000 0.00000000000000

0.00000000000000 9.30100730500911 0.00000000000000

0.00000000000000 0.00000000000000 13.61296435110961

PRIMCOORD
 96 1
Ni 4.765556957157715 6.878429513571418 1.9014448555666168 -0.5143299041415336 1.260501836763171 -1.7565170017559166
Ni 4.253285394557689 4.3367433303786305 12.957744408628638 0.1912844187727157 0.516228149605511 0.7651263622369532
Ni 5.623519046967923 3.6227980329735794 9.992215056798159 -0.20673366344825042 0.26331387383614 -2.2733707007605686
Ni 4.854893129403357 2.6403140614325373 3.007157868865339 2.4884074847578757 0.34935661245952093 -1.606912993441123
Ni 4.134009280775479 9.193896604483257 7.4874836346221745 1.4535551745108515 -0.8958605302304379 -2.157419861723846
Ni 3.5743490875048076 2.4434210442260818 4.5985276132304165 -2.1864933820510344 -1.3936710965607093 3.0623666705262678
Ni 2.2558662380487386 1.3033315090512643 6.948859528885908 0.8305807351860212 -0.1481888731348222 1.123086400094769
Ni 4.460586238598384 2.175858975825207 11.653363745987651 0.4596901053094663 -0.6741987847174454 0.09798885524166351
Ni 0.9849673404103378 7.932056887663936 13.083569361440329 -1.3326937855463887 -0.42454441064626885 -0.5203038623367814
Ni 8.261665973769201 2.145714412134616 5.506184983447545 -0.14280806843888308 0.2619676442208908 1.6719734733858818
Ni 4.79221364322289 0.0769881553509715 3.0223501337009484 -0.2509921190459935 -0.1595526348870736 -1.5810505238520642
Ni 1.1371597179694684 3.8144917872664155 4.189239590448759 -0.8462662642420782 -0.5937651647507257 0.9139227870487873
Ni 7.603424407293786 9.115024065113861 6.492185665735706 0.08651736426695422 -0.5411704213731454 -0.1336459423236408
Ni 1.2646021158986505 1.3795811644463478 4.780083269892046 0.569050178502549 0.5385993182118596 1.0234304415633277
Ni 2.595938957030251 2.08782494455972 13.2050377225727 -0.8745491703471712 0.5785090099226037 0.3665086987587753
Ni 8.318857865819014 3.5427349647080417 12.933459479348747 -1.3775039998825438 1.8049015637068915 -0.6825147607823083
Ni 6.6184849699044515 0.3828750230999114 4.27218411068324 1.217222971469878 0.7652824281988433 0.3275580285271907
Ni 6.447467354175078 9.079652335488648 12.004796714920316 -0.006587937630162847 -0.3861141316945286 -0.9415186943891849
Ni 6.910099442410191 5.754514429571528 5.589306222815047 1.2210595716071486 -0.3662425895815821 -1.0402403140318148
Ni 3.1004720818053553 4.355094217191817 3.06282160546487 1.7848572434615069 0.6380963825679332 -1.5073010007737395
Ni 9.250390921007988 5.603819514139576 12.848282717433998 -0.5981344974630151 1.7019954736692688 1.3637126025254063
Ni 5.303294676926775 7.590151870303205 5.229759985475315 -0.9175135897238391 0.8897852705706353 0.9717692657436102
Ni 2.479471747362376 6.6735283293370085 3.9626521782905657 -0.4245603514858688 -1.1141721283242747 0.31956549724001737
Ni 5.454510448750789 3.846357037252212 5.1291472723415295 0.14632585178415444 -0.5868800075951183 0.8752042874326669
P 4.9927898592017845 4.739253709358581 1.6230461839087513 0.9704346060925867 -1.5056585800743103 -0.26686405308124367
P 6.950586725886015 0.9757872465002443 2.2099555373905693 -0.14165467156073022 -2.124615927819948 -0.7838262526393017
P 3.5511988810790496 0.8973472039563998 1.2907686388948676 -1.701955621570269 -1.462987523568345 0.780167829951108
P 7.690249307649129 4.541635213606039 3.522340646656712 0.22545437978620528 0.46441399314769694 0.4750527038084657
P 8.360907718471024 -0.2761227152446941 10.844931378659743 -0.544684605173991 1.0933811597208525 0.0017748325122356528
P 0.09748199417721291 1.885221109054584 12.961216474542153 1.7481789142038666 -2.7157038028488265 0.6717030148787851
P 0.6400934416148535 2.7434343260538214 8.17981246165595 0.33433031425401777 0.3049096950000555 -1.4749642363142468
P 3.7580160727556877 4.570849676596519 8.640365774826316 -0.5166757786658909 -0.23898172484867874 -1.30198452938799
Ni 7.6324249471232415 4.897742868657462 1.2134000723575507 2.5778088554408445 0.54151546341739 2.661092286151533
Ni 3.470977695694493 4.3616886311556025 10.70816193090985 0.011961543237250368 -1.4788628000377047 -0.14642021127017363
Ni 5.567731606975277 5.89462479903622 11.388251562830867 -1.278952330158875 0.804327200806131 1.4322253026848237
Ni 1.7618060471568817 5.646511136274662 8.668490159796265 -0.7362924687243965 -0.5755828374147443 1.5663386715631862
Ni 7.236918226415124 1.5581511978606206 13.369006105095933 -2.0660341136209968 0.8520957264396615 -1.6334809737376383
Ni 8.119193148526229 8.989423266570899 0.3084325533651432 0.4392878875040305 0.344612155796 0.8004582047690278
Ni 8.310793892749054 6.6486481356090446 7.301776008435251 -0.6883182548379629 0.365508539629035 0.06255339725218904
Ni 6.831189699012791 2.8965102992780576 1.4887405729134517 -0.6892911602741935 1.2576378849518146 0.3823330673855415
Ni 0.669596235822368 4.714308408581609 6.616730799984043 -2.1413890335132284 0.24952350492026706 0.8800485028988456
Ni 2.8464894836260988 6.4232940369791995 11.078325267741347 -0.979938431817964 2.5517011026101986 0.7631373568313825
Ni 1.9219414846949583 2.262990809411587 2.6224970524212146 0.996094472752536 -1.8457214259367307 0.1472195672430174
Ni 6.519578061454669 6.101823331999903 13.548261622726187 -1.1301217096749956 1.629351010729665 -0.6833030610115587
Ni 0.10352950892933334 2.8721137579141516 1.3540433895234054 0.44771390678419665 0.6671092248605157 -0.7362415608818029
Ni 7.358687010073631 8.90951831542438 8.810568622342391 -0.8727002900638907 0.5880997389348323 0.6677609995119016
Ni 0.8907667415031159 5.653710115693519 1.8671948273857366 -0.11890683634125326 -1.0535683985992887 0.1453866277993367
Ni -0.030026440901677012 0.5968725921814048 3.2168658135179213 -0.3722641131853137 -0.8861371322950868 -0.8499743092212847
Ni 5.584147884332233 5.110791735024842 7.453710748100451 0.14260623684072213 1.2655116312729364 0.09500843245710089
Ni 8.30858025308279 4.591711835300004 8.70001778322792 1.1375678815403958 -0.057138653994520956 0.8659398314116055
Ni 5.863057181274459 1.3274211171841341 6.297125877009169 -0.947367439860478 0.6325862513829815 -1.1503884303438319
Ni 4.765110508821662 6.320006354231895 9.3890242905609 -0.35627185152211543 0.6469510047450858 -1.422068159646164
Ni 3.032639837746274 8.866175622799217 12.739025648393385 1.3133549760084606 0.2416438450618741 -0.37464058383729026
Ni 0.3052460283665636 5.901526146231041 4.691693940159116 -1.5896742609653332 0.8248335482895988 -1.0107775286860077
Ni 5.434178447446367 5.697564363703743 3.6651138944258204 0.47121404678866585 -0.8204367047734838 0.1626238176132296
Ni 0.24922234279608954 8.257499122632705 5.271048085653934 -0.6833670814802748 -0.42040596299786315 -1.2170039134805364
P 3.141610435771256 4.959064407815767 4.9915332931559355 0.763144298809918 -0.28591438484447534 2.9504100402506026
P 1.0497488541730553 7.042536481098968 7.114134702892798 0.8550707499075855 -0.567178672511449 -0.11064871009751912
P 2.631496706795487 7.162910113707308 2.0157802744298374 -1.268243428381803 0.3963486649383432 -2.0711511231325876
P 3.9546672637801144 0.2559692932746933 5.005432718018391 0.21506018103607477 0.42417520023230815 1.236839717259541
P 0.3329853516466681 0.5986007192822106 6.623483331066847 -1.3724720938855912 0.980332324822273 0.27568576513793164
P 6.057243605443592 7.301783449240852 7.745517751451113 -0.07745576828531822 0.13862308382325803 0.05861318165751841
P 2.2969301839586302 3.8053861014123305 1.204109296464144 -1.1097025225886954 0.9046182218184098 -2.492640806112933
P 7.3005185122887015 3.9805240632431946 7.041768217920677 -0.20213935920934864 -1.0477499921452986 -2.685062166703569
Ni 7.369401770138907 6.632985239819178 9.612359140570808 -2.6063982370427627 -0.3241317764544611 -1.7115286099706846
Ni 7.8525983848534695 7.0449361409052536 11.714908509313982 0.5134899247387414 1.5800531929358013 1.3706576663846717
Ni 3.5503524894419485 1.5146782911374417 9.164246854365125 -0.8954296133406062 -0.057227357053585316 1.6203709187182418
Ni 5.22468256575341 9.095426843362526 0.44231961904539296 0.7458981101349605 0.10449297490876844 0.5042519510802412
Ni 0.9196621799534581 0.79728883083988 9.438929773726048 0.6189262373973857 -0.5841713504147036 0.345151830349554
Ni 2.551768474781989 8.092201626209013 8.494652478744158 -1.721360765569758 -0.01963268662926296 1.6022772944413244
Ni 2.519159144236104 3.5747025257708493 6.529485494112249 0.8441121940135526 0.2587547937105479 0.46050823033538757
Ni 2.4452068375702942 9.007383511090039 3.370774226868756 -0.8796322412970334 0.4033230393736473 -0.7119484926623932
Ni 1.2537013356933517 0.4865282354223595 0.9267607084967039 0.03142093751344266 0.1498356647096258 0.3280311115088673
Ni 6.973932253458796 7.8375865595536816 2.4485775225074957 0.17409325170540985 0.5544591680622515 -0.05833267430262212
Ni 2.36416716356964 6.093136191460868 13.594354623121578 1.2020138678296073 0.015137112751754575 0.047838459639517605
Ni 8.174180701916779 2.4334317627068915 3.274367429100871 -0.5413424281746354 2.167061498578668 1.252561755980488
Ni 3.3731125000288347 6.387503762038935 7.131628036860482 1.3139126482841437 -1.5225188461647585 -0.8433496048159154
Ni 0.049769688462929 7.617348014774445 9.54824171870797 2.3804296366243003 0.48555437467073786 -0.9734728786982781
Ni 4.974150641171564 8.609988685960698 10.073144048815502 -0.6121436672579135 0.7753344131182066 -0.23130029704402097
Ni 7.49131006890243 4.792176439194886 11.023356316364799 2.695084583936578 -0.3806479663736348 -0.74954419152798
Ni 4.6353800631702065 3.000514159564448 7.481603537996073 0.08662509348941211 -0.8734916756169343 0.05888031927597601
Ni 7.587463879279885 2.024726913064203 8.060793985767672 0.6802120807910608 0.3867949598116371 -0.2050537046426662
Ni 2.492000203792869 7.9492916536369895 5.739348207555522 1.1450055687653633 2.3441809387049113 0.7189799455878779
Ni 4.766254532682798 2.457502768825759 0.72148841408295 -0.20315931583343078 0.37580837889314633 -1.9088548640621061
Ni 0.22884290635596177 7.866708012474151 2.4671051284537033 0.8187986549494285 -0.9150766981475725 0.27804989449473405
Ni 7.312665627432149 1.9629403235558427 10.552919753155058 -0.7051836631347338 -1.4633148250007768 0.6213389606039363
Ni 0.022487044626578852 2.9049370116210618 10.150316364105093 1.1139522990039847 1.034452246595128 1.4810114709495914
Ni 1.3519199696250526 4.233846289925373 11.973336988839769 1.5308186242797055 -1.1403822110607393 -0.7651322757742243
P 4.661208959612284 7.197714481905455 13.105104913050695 -0.7353884688528883 -0.022712096885535077 -0.8843751552986576
P 5.540888900770079 1.1424519909530988 8.422041377287908 1.283091292027913 0.251526908503541 1.6268202738880109
P 2.6795829129912154 8.793292931938533 10.577912489067733 0.10756955695156313 -0.0878733640742164 -0.45331685479327094
P 0.40843512043965635 5.787430693348449 10.576102513105319 0.07653685601547464 -1.16999617727243 0.9815890800475094
P 7.4178414146006775 7.758555903065266 4.66403274533782 0.9728051632072923 -1.2014806210339566 -0.3908791571833397
P 8.556386982613311 7.085088588129037 0.7133230600366772 0.05645911142899309 -2.7377780090400465 0.48073458468459146
P 6.243263745465752 3.5001735566709713 11.995703120375333 -1.0588311896601248 -1.3529137121376895 1.8878150126726714
P 2.344681553902319 2.4736307149656804 11.059089855162355 -0.2651799805106014 -0.40076273484563885 -1.13212974124396
