# total energy = -340875.7270634508 ev
CRYSTAL
PRIMVEC
9.11048933282576 0.00000000000000 0.00000000000000

0.00000000000000 9.11048933282576 0.00000000000000

0.00000000000000 0.00000000000000 13.33412204096313

PRIMCOORD
 96 1
Ni 0.8307481797101814 5.336724287573745 9.41399720399606 0.634808712955597 -0.2877138999470593 -0.29834721129118946
Ni 2.5739228101741567 1.2687449814368152 10.305463151678007 -0.7535754241745602 -0.25330945432526053 1.3149863409642966
Ni 8.046338727578865 7.056019414146895 1.422684010582165 0.014057506534330631 -0.4585449359614296 -0.49131878795834094
Ni 1.6663176304359764 0.9732098142495793 0.8315079945301024 -0.5742546055216239 -0.712755819055037 0.9566354954259655
Ni 5.463578742640641 4.826008470126163 3.0558877450233375 2.4816742797991007 2.2126818675209443 1.650611719880654
Ni 4.514001538017859 4.188993937467983 10.602347582352415 1.3787494422538706 -0.4127001097131731 -0.0924031336237699
Ni 8.046375169536656 1.3226608579870807 7.059031341958235 -0.5100405327375603 1.1555272942322938 0.2699298364907609
Ni 4.2100664995600345 2.447050134128364 9.022506717752046 0.847228113934715 0.5912781366628139 0.11696051124815986
Ni 7.556895902991182 3.094878817760719 11.611126569502899 0.9451776312980108 0.7143391043817569 1.0262789667557164
Ni 1.9011404959451168 3.244236181762925 8.254527988237205 0.7027120616657898 -0.49507748366982474 -1.2601858481846488
Ni 8.789226258106366 3.8611347537210405 7.520137811217381 0.3698488188756017 -0.5879588424815938 0.6223170082464895
Ni 7.959798188317127 7.426734340254845 3.6705642686052093 0.4811703866704294 0.5203732821221362 -0.006069346122531483
Ni 5.937679502998746 7.535987329709186 13.288612748952557 0.15283922742264 1.2905773159923128 -0.8017023615887741
Ni 3.695086973051027 7.075133221007735 5.480084216372665 -0.07617253069752043 -0.8615064782306001 0.3596124858595742
Ni 4.753898946149254 8.892029021031881 9.876797313243495 -0.28221199629222365 -0.05441431308482242 1.6077876827365922
Ni 8.331569931200987 0.29970686030524313 1.8884049427464658 0.45735580074933496 -0.5217241397230756 1.4982214070699744
Ni 7.640985720591545 4.085179910213797 5.652360838677929 -0.8343836538718792 -2.3464087995941654 -2.192539588245114
Ni 8.78765014343195 0.7463841363774485 4.589204984211138 1.104919242267439 0.22431023887943302 -0.1832875166101682
Ni 8.31036982225667 5.735171543559865 12.653428513624377 0.09338838035517466 -1.089807069216349 0.12289770266820126
Ni 4.973917266306217 5.459952767840538 7.862264932488043 -1.2909344422214153 1.393900438962696 0.5703532135846886
Ni 2.2063418924361433 6.26298774970039 0.6729854781437186 0.07112365541970331 1.1997029603082434 -0.48209726936007297
Ni 3.740329663647279 7.621106632617115 7.825463110364892 0.4153434608732912 0.10222063393482395 0.3539979678862742
Ni 8.7760160484075 3.8983966555612883 1.2308981861740385 0.7237012623229472 0.15361030126070965 -0.7737184747813385
Ni 4.0453306293704605 4.77710336277202 1.468500662013609 -2.1640574216450212 -3.1539259680925036 -0.3783892522464451
P 2.8753342430550255 5.063682918832369 8.40123055561441 0.8855030982555137 1.6815109805626718 0.24342690510422593
P 0.6139804821880833 0.17249162985622535 10.235658581531311 -1.2654617518716076 1.099461047366345 -1.0076438681530324
P 8.277435402903981 1.8971501015671148 0.6191042214533536 0.1287374492784299 1.535259947880511 -1.5174416887521673
P 5.386185134784186 3.898278219198471 4.901436945408794 1.9320834955727435 -0.11547132829714309 2.4513067232508363
P 0.5731190259671309 4.248020798598292 11.47010530334515 -0.7666361140132604 0.1129228508436765 0.6453754327278498
P 7.046826930294373 2.4503025788611197 8.887645964558692 -0.7221889394434788 0.4860017466208017 -0.44778589767271265
P 3.5085314806347063 2.269040280813792 12.142291791564324 -1.0588188483649508 0.42443436743096585 -1.031298788567811
P 6.265994211218063 4.848602483955947 11.731160912169402 0.8896788268997582 1.1215277973583975 0.1706862829063899
Ni 6.357053553245759 5.476825394297297 0.7940247077962805 1.2718661127360549 -2.3711476971017422 0.3521382889697161
Ni 1.2342708893675003 7.851857109343226 2.3026297443577555 -1.1140209474583913 0.7846942570665518 0.734579856908664
Ni 8.825404011702362 7.8828692154224935 8.495662600835567 -0.34336491365246025 0.5018335714467357 -0.22863252040387075
Ni 7.736144782870613 2.6506057998537074 3.357598913007029 -0.4209021859079913 -0.010675220325659034 -0.41896743077912363
Ni 3.3667267123844726 4.0772628948839245 3.9781553464783133 -2.524589076884755 1.2378483610297133 -1.5152487948659066
Ni 1.8558704738805225 7.635237001750177 9.498788529283882 1.460380424962801 0.28789104895487194 0.5615849804737554
Ni 1.6405258348101228 8.933499968996871 12.048605895428915 1.481674558454887 -1.406994553142493 0.733666343955459
Ni 2.436773502031592 3.5782085039291354 10.524995882747419 -1.5437965245966123 0.41662232758571477 0.22418554037611066
Ni 5.833710597423953 2.988759836676317 1.8996727960951256 0.8571325175326207 -0.5535585106248532 -2.4422376710700324
Ni 1.5886962603433332 6.781055732132098 7.148343292109902 0.060155329333657685 -0.7551337698006155 0.25722627288116345
Ni 4.700903229033185 2.2804283926231586 3.790063825541145 0.07076987162471038 -1.9065079610964846 -1.1126289522068709
Ni 6.565401336420484 6.0432245232479564 4.981081755207726 -1.1220366186740158 -0.7483373157040725 0.2757055626322736
Ni 8.521295873945036 0.6212816284313044 12.147492058940953 -2.062182343975074 -0.9809733008403815 -0.4004781137256845
Ni 1.23834327815053 7.6506883918531265 4.923998161476567 0.8332251147874037 1.1926403970345074 -1.4147261174587957
Ni 7.115110048703336 8.636534454966379 5.662855211472498 -0.5167719379241229 -1.1074602635217379 0.8130720368782965
Ni 5.811535666108753 3.469575027757225 7.269110118127984 0.6923710847510979 -1.1943231840535689 -0.017612827985756762
Ni 0.7071252152503102 5.628797468770932 3.3328502684229133 0.06080633265409528 0.1959561132167722 -2.08129618198639
Ni 0.971579036638478 1.091135989657933 8.185363885498669 -0.47688384347993357 -0.48349183571475435 1.7823789571243434
Ni 3.788879461912971 4.630643134414116 6.0428637478658365 -1.5718418607696025 0.23389813967818426 2.4176219294038814
Ni 0.9582959430240328 2.1702370227557273 12.405813609882012 0.6675092885124118 2.6034748927483804 -0.9982781106674162
Ni 1.664331543736423 6.213964205983428 11.646142735694339 0.45674670641042625 -0.6850881779364395 0.17874360599322764
Ni 3.289160005228515 6.410012828404038 2.8904239467269086 -1.1508396589486374 0.26856998002875687 1.4861485350658405
Ni 8.851068260475952 5.997981832651704 5.425067792697142 -0.5856559053800301 0.021057334890931475 1.2325876268514062
Ni 8.871913060331817 7.459568544223611 11.16350089147921 -0.43182474635776597 0.6866832903377011 -1.0774274646050737
P 4.781048204702783 6.803923060645307 1.4894347446660594 0.2501567676288918 0.2553169716735925 1.0444286410815498
P 6.4764647384340535 -0.175000658650065 11.719760045674809 -0.20886639352053707 1.8313271048882718 -1.5864835219421773
P 3.199321468786783 8.33238987525126 3.784943730471654 -1.6336524663184961 0.5079499687571187 -0.8003358202585507
P 3.445887755193742 7.414927145930894 11.80625867668509 0.14742139884117836 0.08268719188758662 -0.11466091658070575
P 1.7898103148967484 4.511304833141401 1.703554022905771 0.36609912202518236 -0.970348988357316 0.9555844284536318
P 5.681046125752307 7.329880726938543 6.612831455533079 -0.6854995544422452 -0.15483363214484946 -0.09261062164888566
P 0.9704675569258838 1.3503567459074604 2.9095987938670476 -0.1685458395246194 -0.11513862754807268 0.12373613940909658
P 1.750726315167002 5.435108463117225 5.2136288204528825 1.7961109619984554 -0.15997918090153093 0.441550201175646
Ni 6.266458846179885 1.8122767818742669 5.503832529215446 0.2551542208434831 1.1742793780288165 0.4931021051110088
Ni 6.137044343578243 7.486617587393218 8.743464269611607 1.245791784246506 -0.4293220345405703 -0.8040801177923314
Ni 7.301957076781976 5.738433098782067 7.207933181488066 0.016216718969178524 1.1460453228837877 1.4249393105463717
Ni 2.3168065769869997 0.2790615801682785 6.538226568496501 0.30180894458754476 -1.6178676926804139 -0.9162874306262221
Ni 2.4786453115322713 4.044346696510131 12.957379950963208 -0.4545859513136817 -0.44988597473485104 0.171982118899678
Ni 2.419272251802957 1.6760385226764516 4.598365581350593 -0.5118133083672669 -0.10525762098893486 0.13171967183520542
Ni 2.6921040792870397 2.5838805751402663 2.273988187632726 0.41824289390827324 0.3265974643861343 -0.5222154775371974
Ni 5.747352267951164 1.876970367440917 10.837627794431821 -0.381954086779568 -0.848255526757965 -0.2660366720839418
Ni 3.2430518181347505 8.454206229653694 1.2916523961035924 1.973292108600569 0.3711264000364447 0.41926567874583276
Ni 5.480496921544636 7.64074884786591 3.826372770185185 -0.7477878709585056 0.05984628273367113 -0.25960248642282385
Ni 3.797871514997647 2.046370808227608 6.787254509152173 -0.06460565179552745 0.5464378404196718 -1.0365088720138407
Ni 7.468542376329392 0.48804527550643834 9.618315417688159 0.4649025027483413 -0.35734451576100396 0.8187786003447705
Ni 4.171128267661448 0.22423101047748467 12.476151143661385 0.05235614500421305 0.30385040049760575 0.06615525567083445
Ni 6.330687796784713 1.0568714388459104 0.09867480015685542 0.046242318796991325 1.1568645249864784 0.2331067541251405
Ni 5.699686187161878 0.6816504646572294 7.766659456226048 -0.12264522033776297 0.11380088257325563 -0.2830362919657319
Ni 6.493291812443574 7.012307285777822 11.061361372185472 0.04774127194002101 -2.5614818361460467 -1.322926935967612
Ni 0.7165682375626372 3.375937417215889 4.121590892339648 0.5303453057331834 -0.030362928562573513 -0.04122095432299998
Ni 4.341512641308468 5.538476076388483 12.820998657081068 -0.004176499975192807 2.329172124000905 -3.2671820339058826
Ni 9.058350116385318 2.9876483569637227 9.734363010172439 0.0991507367602486 -0.8944849900391497 0.224941958926161
Ni 5.975734017420926 8.80575268596412 1.9376343835249408 -0.5228433409291834 0.23154326629276253 0.22097397541734845
Ni 6.566203059491863 4.727870277797765 9.343672424901916 0.18540970515949362 -1.6099340396556336 1.378162202291833
Ni 4.130213059552756 6.349154758894782 10.07587608445434 -0.4649644663345283 0.7907836577937414 -0.4711351139216144
Ni 5.273114850251345 3.2978787436297656 12.71835259457405 0.11663732358078623 -0.9040536075641914 2.0537537535917467
Ni 4.378510338954738 0.3377067117907378 5.027711062297887 0.724678795744868 0.16915339120163125 1.402987745975945
P 7.737046721325915 4.995281364060589 2.6437301134676843 -1.5859960407827975 0.984665147869672 1.062240729562306
P 8.01637432778606 6.176483652396441 9.434051213367882 -0.6040999710178305 1.0244010330067133 -0.051978964170452426
P 4.445836855971715 1.4151869888158228 1.534784027988847 -0.08667548711137331 -1.0514158710326602 -0.4706710298010023
P 0.16014236141014815 8.703250569190372 6.550587680578859 0.5280379977562454 -0.3243464635684285 -0.7197127099888444
P 0.520648073043238 7.645796059019823 0.11948498015281968 -0.19924635393226975 -0.3227140701713281 -0.13093677092259384
P 1.2661667129231746 2.8618233872043928 6.113401712413053 0.14838530541634445 -0.594305353524912 1.6675694307809152
P 6.676576639148244 0.6646639570823782 3.7787567970878615 -0.1636877401013697 -0.765017861683547 -0.6205581165738538
P 3.273298643100429 0.5215736987711033 8.544105806374725 0.4381720287320325 -0.0352973897497134 -2.9160588164642425
