# total energy = -340893.18497004325 ev
CRYSTAL
PRIMVEC
9.08250768732270 0.00000000000000 0.00000000000000
0.00000000000000 9.08250768732270 0.00000000000000
0.00000000000000 0.00000000000000 13.29316807434419
PRIMCOORD
 96 1
Ni 6.4053022579138945 2.084916870562165 11.529324267560726 0.08554831548546557 -0.24297079140341382 -0.8024356402103728
Ni 4.695193229102824 0.36750641387933913 6.149698695607549 -0.11840032901847997 -0.9876777094437507 -1.1318487196684313
Ni 2.9231869108950512 1.7765203244924628 4.885770578139077 -0.03858531647236581 -0.791494824928153 0.9091006830697957
Ni 3.3658501670383334 4.559936525699201 5.181756785803547 0.5818455304950044 -0.5886139595670896 -0.8851004635004562
Ni 5.253558549754483 4.429093920996503 2.708097690307248 -0.48698005137367106 -0.12898633206444238 -0.6775841562499105
Ni 7.325423856873792 6.198393651934985 2.4900893517719607 -0.1364744129113714 -0.5414681551192224 0.14660198826367654
Ni 5.042626392902097 4.33011275300747 11.388123971173803 -0.09780502136563156 1.2398587065915228 0.28937868924399196
Ni 5.57874865240445 7.764254294803514 12.319603245906345 -0.7629638073679956 0.9884978913522008 0.6266578017136885
Ni 1.7141598272073924 6.435992051145217 0.41786165259881025 0.8523782906770869 0.857703302434426 -0.46893347828460524
Ni 2.959744004045708 1.7337689611483285 0.6827266479202432 0.15085510711307568 -0.7028437021476476 -0.6211767239944592
Ni 0.6309799690341434 0.04466050644482223 4.755364842052662 0.014880002435625986 0.41926207920140696 0.318545026395303
Ni 8.6493537443997 2.49036001049889 1.2287343087108378 -0.33113160481106196 -1.3946023501257272 1.0332613116108207
Ni 7.069333472159278 0.6531703516392824 4.936165779892054 -1.2270368722365061 -0.7300120350323234 -1.3849529999614212
Ni 0.5642880238674458 7.514812305663232 2.6659848272484528 0.493978079958059 -0.24365187663083845 -0.24190558336369306
Ni 7.874924650093143 3.8056705982980983 3.7433963848353704 -1.1432240513849083 0.17958512805791652 -0.28031195105603335
Ni 7.668969707413815 3.9802545596749734 12.694749865191481 0.09356810046614854 -0.037826841039786466 -0.6568129851408301
Ni 7.911708805934176 8.84382839745358 6.9458395243679325 -0.33280693563095587 0.6234452083136618 0.7003366194550777
Ni 6.784469703320223 0.7281083054697021 0.19712402052519487 -0.9543258734561822 -0.01998698464488816 0.06975762831011212
Ni 1.7879188715493757 6.512012639883352 9.420137120149572 0.2850448377553284 -0.3374578041394059 -0.81439872610952
Ni 0.049196310747788186 4.833002117146282 1.3059328986866483 -0.3012772404537908 0.5794266366408667 0.8537168069828522
Ni 6.32679306208923 1.9500688800012207 6.876648981356329 1.2713472641181072 0.08796669511897108 1.4736298337735394
Ni 3.1876332026154293 4.5220533864367445 0.7435040641280073 1.4723926189323286 -1.0327586609427892 -0.6499342557431258
Ni 5.813440649177858 5.416571396429759 4.775398129099223 0.8750844740253511 1.4949481356353413 0.6054415726473895
Ni 5.376771848060522 2.8055956848027397 9.456533452915442 -0.3570370118229141 -0.6332215709741352 -1.0046793862080698
P 0.20996123678833484 5.517596128632182 12.306961303556928 0.23681094244960504 0.7220207892967306 0.45907226921980937
P 4.037101974837697 6.141700639401718 12.542542477825853 0.4303072812719751 -0.3791014478221213 0.2952158647510593
P 2.3852572323773 8.204637841535414 1.5789094815591 -0.2423005048092666 1.1690428122202254 -0.41832645476101504
P 6.08360892069573 7.467056480623194 5.7094949825264285 1.3520914733467102 0.9123287030887901 0.31668174793431914
P 4.7273180585373265 0.9778863473917423 12.682240527453246 1.0714645621534193 -0.3084945841378365 1.4257008713027446
P 4.058118897458969 6.218729386485127 8.09926167993461 -0.41925925098792954 -0.4113291975075755 0.12747992272224498
P 4.780968431019545 1.0821626173203611 3.7084478037833426 0.1386912180570321 -0.6751945729718113 0.7990605530905529
P 0.037375427086774576 5.562945089154227 3.6836298517251636 1.3207106450425834 0.7850351853457382 -0.5961755739644313
Ni 1.5224371739608795 1.1096826153940231 2.6659049011814404 -0.15705480816588435 -0.46231185920302953 -0.6639236280436824
Ni 1.6767853083713793 6.709902315800497 4.908037253808183 -0.3822734177921997 -0.3550315513571111 -0.7802552474585916
Ni 6.0395042637169505 5.634914879496042 9.237196343516072 -0.42466653804642995 0.10672649222497749 0.08476001525621532
Ni 8.659426245344815 2.1322185702214496 10.137011271950193 0.2886400113057545 0.6297251277851026 0.7442343492792924
Ni 2.0985587970000004 5.422792914146083 7.0977408312269334 1.2859657853622304 0.1485370005028603 0.8956041912452575
Ni 0.610498006111399 8.872719854177118 9.110020347137576 0.5358400102991674 1.211154910898927 0.015587570025611864
Ni 1.3311141510494298 1.3249925409168728 11.718884375744091 0.5424096930968852 -0.41308114720167566 -1.5153943193048354
Ni 4.137736159212672 6.578650998255121 1.5412897350174803 0.006976174207517018 1.426413581099053 -0.3324456956367952
Ni 5.691998439856757 7.841837074851442 8.065868932437043 -0.11228238904620017 0.561660313796381 -0.17958898471265844
Ni 5.364510462780178 3.024084487990864 4.944008525217668 -1.6507343615014476 -1.3695281807659188 -1.4451978036850917
Ni 0.6844677646300522 7.4988725047987845 6.982648202979527 0.6764924658476285 -0.1749651127874019 0.3528399430224311
Ni 5.293330850600874 4.58429581112282 7.143934464957178 -0.737199296809382 0.10872346805034824 -0.006146993438002317
Ni 8.163003626627933 7.2078689608119415 9.20223504695338 -0.3888060767043949 -0.3321921848650924 -0.03465924194508225
Ni 4.72244983445565 0.4526376660061518 10.47408583581448 -0.5638604067714934 -0.8087366427277363 -0.3871040064116236
Ni 8.30013132660026 7.239848470124603 4.835576099804393 -1.607461666855741 0.14847452269604108 0.08546552596367217
Ni 7.3809815559551755 6.174733719597729 7.013555068142849 -0.5655982153982065 -0.15837352697730792 -0.19775537120904005
Ni 2.1644342247321027 5.461611551692892 2.6984466177154744 -1.0498644673851403 -0.5598857383944615 0.5531818440117247
Ni 2.415620055334479 5.108728883324576 11.653628375031335 -0.45012174489474094 0.7004232656316131 -0.7397971394435453
Ni 1.172460908029387 3.2583768544292093 3.8864168157483547 0.3250028662055048 0.5774106346521024 -0.16683502748109977
Ni 3.6118862158229645 2.721073868936898 2.8869567880185367 -0.21117293016652663 0.8396148203638315 -0.933120957243793
Ni 1.1543958003830126 3.293725974067062 8.27994182042272 -0.5523135824741585 0.7718006889333353 -0.15690182752778783
Ni 3.682130329717916 2.810718219097639 7.38201514532177 -0.12384952505850928 -0.7881457059502619 -0.6867910195601591
Ni 3.835306820646071 6.861253222698024 5.775602014202715 1.5341993678264805 0.5449553423368745 1.1061505435713788
Ni 0.7574102915374409 7.614956034626994 11.288451624355263 0.048676639270096814 -0.6829947857425206 1.246483410996892
P 0.16626983390604055 5.542055321639567 8.124758095311634 -0.1358591479248757 0.30885428147010036 0.48691937333906465
P 8.705928684333973 1.641063805921309 8.07877699225958 -0.5513537896640505 -1.106650623136249 -1.4004909476960203
P 2.046752173563641 3.418219905946827 10.422335523925332 -0.43861631535830264 -1.867937557022454 -0.16700780561353817
P 4.022869685404882 6.049313371941226 3.6097727163009377 -0.10846558640327127 0.07781726538979501 1.2124283782947118
P 7.000942189817801 3.9245606229793646 10.427559782305522 0.11151902851761439 0.8155346394861761 -0.06473960627023044
P 6.328446078475173 7.838376639450101 10.328099966165174 -0.11201602275869094 -0.08131627968198898 -1.7140711738868806
P 2.6068250056469324 8.736709302641446 5.681738839254774 -1.5754072095233578 0.1584403756595013 2.0196719814166895
P 6.979044263957867 4.017165870622618 1.6115038766373018 0.1914587395670509 0.0649136699542495 -1.2355497948035237
Ni 5.383111438375842 3.0652100824719004 0.19036481835805977 -0.4198755444156898 0.10326013094293185 1.3511123972628922
Ni 1.595424205155582 1.1592731069723052 7.010032871689725 -0.33310646914924563 0.1101342323549458 -0.27921177601331915
Ni 6.947055672137591 0.7057280984554081 9.283802323092042 -0.5925688304497795 -0.3573280607007717 -0.9258365077672379
Ni 2.4599790225264804 1.5361790079824804 9.295725839089105 1.0268399814655091 -0.9246095773386722 0.7663594633131059
Ni 6.399916330898159 1.9634110836877585 2.61929892160547 0.522084865496604 0.36495755222157145 -0.4175942045806808
Ni 4.135556357385056 6.866330344454848 10.318742258569367 0.019808035864862662 0.4191852032168845 0.2511283875135417
Ni 8.43364418854179 7.147206892450888 0.21549248392591244 -0.7074369779452848 0.40134251860850884 -0.006208185693240921
Ni 7.493622815397274 3.9307821406956873 8.22570562619933 1.2627654359863671 -0.5927413514719017 -0.12926015455111933
Ni 3.0812316259048846 8.57194353199646 12.488891197092872 -0.0583172476836544 -0.3480474067297941 0.574072828528121
Ni 0.19239566706078942 4.540899589738014 10.31151076600625 -0.8689696193768648 0.9073914136881729 0.037620638566251335
Ni 8.640062339109484 2.3651122304870746 5.5903751704025 0.5615991215411424 0.19831381481567137 1.7820313439769375
Ni 3.584992910774742 2.3914605850783923 11.697908324407088 -0.6953391662404864 1.3781040953603878 -0.9058600646453109
Ni 1.16114410354101 3.412398018565567 12.884031140391063 -0.1269613312146136 -0.045027215442967616 -1.0260851055773552
Ni 3.1416393840527146 8.261712319388513 7.986388816548327 -0.13771676995890475 0.2865923847481064 0.11791207652815178
Ni 5.6648326595800835 7.836905273216459 3.494707335576377 0.5050536210459302 -0.06101382067921105 0.5979257238863186
Ni 3.2135728443640694 8.224483120674341 3.746107513358469 0.2531081369477318 0.46229309014995223 -1.936213458580717
Ni 3.579933954033148 4.320748687656333 9.245052712603105 -0.14273607755036707 1.299031360296937 -0.08898793729463383
Ni 7.23688757264209 6.148049312224653 11.31215333622755 1.024810609740306 -1.0349006469864563 0.7478835159961056
Ni 0.6994829662192859 0.11869565901830387 0.2734933775557495 0.3953927287829771 -0.5184670662383588 0.732778542033867
Ni 4.686010813903988 0.012162385947340244 1.6842311481142136 -0.5917676747047228 0.592867592637121 -1.0439442452459633
Ni 6.021684383776183 5.744141116074874 0.2313677989862933 0.41204370707609683 -0.9984030662810546 0.2459494144157635
Ni 7.913016687030747 -0.20551807406304257 11.413248003738609 0.19486108038038052 0.38283237561946326 0.29167931235271055
Ni 0.12132686147438965 5.062498919563871 5.847185797970889 -0.8180748894095267 -1.604749924351533 -0.4556853550254475
Ni 8.03095304841243 9.108392761772954 1.9516101815434979 0.4210567092079845 -0.08467465463126063 1.7874648562876827
P 8.556040061162472 1.5982579475314838 3.5314896749158873 -0.13939235788911478 -0.5952445775097297 -0.43961955981183637
P 1.7323793374832226 3.237950294802917 1.6600644118520351 -0.14966622901129709 -0.0935094793140712 1.1782977551595901
P 4.854772887899604 0.9898752574436347 8.21878021414284 -0.4820499610619053 0.3123152434355073 0.6323360830453885
P 8.384880205156477 1.8046216030534896 12.398152404764517 0.8892121716759848 -0.5737097887617474 0.6830577777699719
P 6.461223257299881 7.732020475277631 1.0955393345358362 -0.01314013692638382 0.19444738988172963 1.2463533131769309
P 1.8156931798362599 3.429309647744827 6.138240204000376 -0.23277636736891524 -1.203089360281973 -0.4226124837308786
P 6.936320148136578 3.85457990180525 5.957585494533588 1.9970879254685863 0.8864137829952412 0.30274019815256253
P 2.4970810661340415 8.504969120842935 10.36984044641175 -0.4014219656961925 0.8245772093044187 -1.060197216769716
