# total energy = -340885.84476033505 ev
CRYSTAL
PRIMVEC
9.14595671376915 0.00000000000000 0.00000000000000
0.00000000000000 9.14595671376915 0.00000000000000
0.00000000000000 0.00000000000000 13.38603213807763
PRIMCOORD
 96 1
Ni 6.482324706761921 2.1302670400503976 11.29769000606047 -0.2789320399893712 0.49859269591193484 1.9749047045033274
Ni 4.994112958373338 0.7136141698471842 6.043097463021445 -0.3355492742627834 -0.6129656489385766 -0.13711024672315741
Ni 3.075958941274476 1.766321993382992 4.59409991768594 -0.4046962655720901 -0.46593891443265556 0.489701306959576
Ni 3.5671333886955394 4.5335774651988965 4.953902760658331 -0.048957917955941496 0.26987481488310944 -1.067718979068058
Ni 3.8125468392327315 2.652748096541964 2.486790143024928 0.07186953244679235 0.7398827571788161 -0.6098885526751496
Ni 5.392007795537299 4.547854303282173 2.8306634735760245 -0.00919580756665513 0.7185590560003754 -0.5153295490506415
Ni 5.696193162489055 3.4243467159497913 0.078537242988407 -0.2902479792228227 -0.9826298626071979 0.23256733668190271
Ni 5.842098606398414 8.240168398477266 12.186388879407588 0.6845922121366275 0.22384924008261448 0.9919963914237625
Ni 2.1929900096693022 6.669359517013686 0.14725996006575445 -0.20173723867492355 0.47152643582276205 -0.23976848241603224
Ni 0.5250885686873009 0.3767018267817901 0.3915411411892956 -0.060380557970586335 -1.0378059935587096 -0.17497385453815026
Ni 8.232339459720517 0.12198145091881799 6.539076281387508 0.3713092054712121 -0.1795193078169876 0.2174294525991997
Ni 8.83597258816142 2.426321651681185 1.1970657716068 0.3949702965335778 1.652653432901031 0.5454495083644735
Ni 7.12727926663155 0.9817818455396511 4.617993729020059 0.03203388850709322 0.09984390617253128 -0.5655226249652647
Ni 1.117617591351837 7.472228161666051 2.2932818247684597 -0.8033504387151584 0.30201129040633795 0.35657575591577945
Ni 7.90481361180238 3.9922831762042557 3.996774755437245 -1.6926847377913041 0.2958858942348904 -0.2782535258651079
Ni 7.917233820717876 4.184796414394445 12.699315155152453 1.6306262778976628 -1.1751460969044858 -0.9370416324544377
Ni 8.387720114555101 7.900460136512413 8.58554623887122 0.04756386582189228 0.21666866317377523 1.0456550572894832
Ni 7.224619681570891 0.9444663430542136 0.24825052624086466 -1.3732243986705834 -0.2059836726561033 -0.18902904707963575
Ni 2.2347321550966397 6.783839454418152 9.267176998867528 -0.1636059790208408 1.1872567641250908 -0.6059406237709951
Ni 0.46437862409218184 5.048192999107748 1.3868599169320586 -1.4129517991671925 -0.1790919904715819 -0.2170471295591165
Ni 6.872472918777558 2.180203962494145 6.868038044474816 -2.7307390999153935 -0.029723495206361715 1.5737131096503865
Ni 3.570178992207218 4.581291920215203 0.2746750237361897 0.552550381075313 -0.6286951438586915 -0.3522424186477482
Ni 6.284927527805256 6.022603203715226 4.656853068961266 0.552404342415752 -1.736905912393209 0.7411947911220202
Ni 5.0514215217492575 3.0270006361753223 9.512930678986205 1.0793737896981668 0.6128640903637058 -0.27155040281331944
P 0.454263196212551 5.692553071805427 12.383779656194708 0.6645286086175329 -0.866698563954501 0.2514631451451411
P 4.3029713182214895 6.473361669400224 12.719594484481119 0.09133304048804271 0.2570645504923186 -1.0249553628482864
P 2.4876544359133774 8.737827329050823 1.1060854548116683 0.08913449017482714 0.2531821847187769 0.8813201705224176
P 6.631248316313486 7.89697552708914 5.813312622936976 0.7021890992827843 1.5145566538948882 -0.7208774197209069
P 4.9227470598699385 1.2932473938586646 12.786752328402768 1.0874532242721915 0.06353067356379381 -0.5119421206356474
P 4.296651462285843 6.469108799631663 8.291656475141977 -0.30332255301859373 0.9608310215645516 -0.3531086233027854
P 5.145021240483564 1.2715989148432159 3.705521770964511 -0.8817132921957783 -2.6084985712152173 -1.131014396692594
P 0.18245634443210473 5.64094243932373 3.613907639384516 1.419077452448956 1.4527031109232014 0.8536029071128074
Ni 1.06600695887014 0.06036880041798503 4.216506360146225 0.9441126803686063 -0.2754155421956805 3.301250179234185
Ni 1.900813283590923 6.8023234324875315 4.790727007106018 1.1652406648653157 0.19726891849092476 -1.067564712878381
Ni 6.601203849238813 6.105968597135512 8.68812362849761 -0.5500898353499623 0.642032741507862 0.4646739316773029
Ni 8.79487980564498 2.9374342842537806 10.32880944674777 1.148409709350906 1.2289384601345932 -0.5269725326062085
Ni 2.7783952468225865 5.506752965680019 6.930818633619617 -0.9616866846966277 0.832148079673141 0.5244723918921742
Ni 0.7081403148870041 0.4950303826778915 9.538926231122076 -0.45726786902121896 0.25857815892336755 -0.24432113478372114
Ni 1.683596816917114 1.0806679271260606 11.895242902625803 -1.3032112027062395 0.13774916585873695 -2.3160232453237724
Ni 4.676574494943949 6.855388272051383 1.501617891413867 0.3204471285140223 0.09760087577462546 0.37047848203980066
Ni 5.687961801646679 8.306851567257004 7.8121815352648785 0.3426398625609776 0.16170233424022473 1.6259998348692448
Ni 5.30928261907142 2.9661434416806896 4.777608961710219 1.2079348612997325 1.5742306727167532 1.2269857072835966
Ni 1.0187680935913936 7.830859407611879 6.824238973432534 0.41922351265398766 -0.23910076692504628 -0.08581262489044576
Ni 5.082627525298354 4.795133528943637 7.218029105323096 -0.05209672069523931 -0.6303897579522949 -0.24916432180863538
Ni 1.0989689860656098 7.533149377856124 11.355437575347983 -0.23949260304682624 1.1572345067313876 0.0943034359702763
Ni 4.728093667860731 0.3270978171543345 10.36848552060367 -0.1914073175038252 0.4848033554373264 -0.332977142660233
Ni 8.560532962462538 7.702797724817492 4.576389687535743 -0.647367266346898 -1.0989820508473978 0.4796709193067674
Ni 7.945522264146176 6.432680454925904 6.744003326323649 -0.9297502409993471 -0.7050237405181019 -0.9530346654485844
Ni 2.586147241370651 5.621644471126603 2.264676016649905 0.8956175609816963 -0.8798618408093362 1.9042230217170495
Ni 2.4970656251431604 5.432606696403195 11.308506014207351 0.8274337049166072 -0.13660476784164863 1.2625116681043482
Ni 1.121559498599686 3.6401455593674137 3.9270203744676535 1.6732387132515505 0.30781221335883113 -1.1937734821976858
Ni 1.695111576139949 1.1905474484152878 2.5062801763083757 0.4139779479843322 2.454804966212082 -2.2817062172094573
Ni 1.2700989779786052 3.486923350264832 8.035005387863643 -0.08694468161235994 0.20915564262618175 -0.572727113133504
Ni 3.7459551300179106 2.7905410770433368 6.8037053865134025 1.4967116552936675 -0.13465432898349713 1.013849225632796
Ni 4.655538795013433 7.167009301630752 5.894793034724357 -2.3783113047297166 0.10447806251043296 0.15242322293114394
Ni 8.679814527025057 7.139086696462114 0.22395337822546924 -0.8302907147494282 1.2350592283203503 0.26442818994624134
P 0.512202830586386 6.001155935742592 7.953002741960596 0.9057685333727691 -0.5065780281102567 1.104157167290434
P 9.018278938907063 1.6705272450907194 7.891494355363767 -0.6631204154160967 0.691751705999544 0.001574543575971482
P 1.9425920128442267 3.341530079918998 10.336105176241063 -0.7384799632940184 0.8975312330646413 0.7888872121019769
P 4.136953915987259 6.336464992635021 3.8003342435295933 0.28332528396106044 0.13557324125334072 -0.787244020071599
P 6.809301797290569 4.522300500844842 10.097284131142963 0.4824240565718724 -1.3330054032495366 0.6732307643772212
P 6.718445865503722 8.07566922502063 10.012216675219605 0.2804014254460461 0.707261371599369 0.49013350940098815
P 2.9319467103588637 8.80067834206061 5.715835933245911 -0.7575832597823726 -0.6558796746932833 -0.8254174458175269
P 7.24321341111817 4.28837437166101 1.4626917859902713 -0.461192915107238 0.37369056121919514 0.057844421812293934
Ni 2.9281511384148793 1.812152381362043 0.23390509348390173 0.5696024514615932 -0.3540833285112289 2.4062283428549596
Ni 1.7190191064088052 1.1561769439201224 6.699159787050034 -1.0024723512544218 1.2279457572040207 0.014638832959097368
Ni 7.372656133342777 1.5674340235182067 9.304148613388884 -1.1487102713104602 -1.9243123362677568 -1.8848183919381925
Ni 2.8891527799350003 2.046453494762028 8.961533766451023 -0.4085403219085287 -1.5567433145652674 0.7200225279197793
Ni 6.471587353840868 2.32548748136208 2.4452126248144377 1.2857636966537533 0.1894368240410157 -0.7822396248784722
Ni 4.860307614902272 6.910364616521962 10.391081520711642 -0.6839697480612801 0.6173869179347238 -0.3594646474278003
Ni 7.904740444150447 6.417992048800508 11.065697332078948 -1.999892227686601 0.8595221008107198 0.5098032199157735
Ni 8.144154147229196 4.154962304319079 8.191060099691652 -0.9779856789669674 0.4966828804837317 -0.4798071877743156
Ni 3.391805402752932 8.684963700529787 12.542364139588274 0.8321552787619928 -0.6323720784896464 -0.556401379390287
Ni 0.4136633807510055 5.263342479614471 10.18569900714222 0.7579630117192946 -1.1461157711104069 -1.8423301408669948
Ni 8.701764822604725 2.559413610545912 5.7976373681061455 2.665600972655164 0.530700375079757 -0.7441998964969313
Ni 3.640776630365329 2.789827692436998 11.610160694997903 0.7326291609401964 0.06650698258329836 -0.644861983426541
Ni 1.4071602819606557 3.4309958263191334 12.613912042625856 -1.3042743538634312 0.8914251201669036 -0.3627446037306527
Ni 2.962942356908655 8.855041907446257 8.033734099911321 1.3837872617880942 -0.6253964185027616 0.8341070031717248
Ni 6.034712450110011 8.051185499492806 3.4637831657456144 -0.8925582053300822 1.3865293433096058 0.09047763446628289
Ni 3.45807700349055 8.907859806184836 3.231829819377005 0.03546862522025504 -1.2607491768872867 0.654823208404311
Ni 3.2055845826289144 4.669230291881251 9.121121561271707 1.1132159350585924 -1.159780413081693 0.13601675654866252
Ni 4.963281939040394 4.795828621636994 11.327313759136532 0.617085327533905 -0.9477379358260193 0.27490774932132656
Ni 8.548414570111262 0.12321981342777098 2.6726954276499884 -1.5008423896325895 -0.5104930468939467 -1.6467540366974607
Ni 4.900632137073422 0.26176367695709846 1.415626693884864 0.4966111467055319 0.29367988772250714 -0.6504176231374476
Ni 6.464746178385203 5.8477050777277215 13.064084252499745 -1.094136035609006 1.339092747094197 1.3329771211147623
Ni 8.204544897942762 -0.056319885479185226 11.486661015301491 -0.16961644688097888 -0.21257958070606617 -0.46172076258625006
Ni 0.6184404320006862 5.079947760046336 5.927174293682615 -0.2993779665485489 -0.9497223132458997 -0.3538133626792939
Ni 7.590146978711332 6.435881539697939 2.6969505042655224 -0.10345964854824763 -1.238853662365776 -2.035920067844436
P 8.931419790107014 2.0490052166231645 3.4495136444275314 -1.161625950930864 -0.8543973779896447 0.7161627878540568
P 1.9921356591588384 3.5323696080712383 1.4041677249966276 0.48707955306601275 -0.9093559936137113 0.6796819193192036
P 4.790825783436127 1.2447006568016297 8.340876354596789 1.30052877077807 0.06081250330168236 -1.491741969993218
P 8.677884730205344 1.9945318997596186 12.14758258601403 -0.23045106166984827 -1.1145439098413967 2.4040110234886662
P 6.930174758282614 8.210608667096645 1.3919734212064723 -0.3179793836998201 -0.35095918105995044 -0.42721732949274166
P 1.9893004126464644 3.2511314459567275 5.865009227409693 -1.3416124281922572 0.6760394374706099 0.16833320929318105
P 6.827145558405541 4.300639099316149 6.15881942131746 1.4239954585758638 -0.1508525360099144 -0.7572572439015216
P 2.534115894890344 8.956955300631362 10.318501953781817 0.8976839565924216 -1.11235538683051 -0.07710018471811238
