# total energy = -340892.0954791594 ev
CRYSTAL
PRIMVEC
9.04721317702477 0.00000000000000 0.00000000000000

0.00000000000000 9.04721317702477 0.00000000000000

0.00000000000000 0.00000000000000 13.24151099089698

PRIMCOORD
 96 1
Ni 6.423485099938828 2.000492615230472 11.164752207851087 -1.121062684796521 0.06347256663234875 1.7636698107506144
Ni 4.514360289631599 -0.0683390287422717 5.843505362773875 0.39147462467549354 1.080119923835572 -0.38000107681825523
Ni 2.7019773288187974 1.562435604974163 4.716652355277873 0.2427859290861174 -0.2240490147982464 0.330497827881805
Ni 3.414110612205584 4.485617293667529 5.068426999084784 0.07093545066829719 -1.3741448536023237 -0.17314605730079213
Ni 5.017575328510265 4.551707185237416 2.5476662530358682 0.32918785082112983 0.01387907197493739 0.17501884884347274
Ni 7.361979654657383 6.290617728604762 2.5420786942359284 -0.4531276216006003 -0.33209988226160225 1.122912079300434
Ni 5.126241404847829 4.425435232240714 11.643657385176258 0.6614119173654222 0.8360013919809602 -0.4007776472439743
Ni 5.731825659758429 8.253075860035125 12.127052694354425 -1.1359437156734113 0.3230151463515146 0.7891726045528796
Ni 1.8838288025277081 6.412438452764725 0.48679344241206796 0.23975485556927742 -0.04883039123914171 -0.8960145393097988
Ni 2.357341840855528 1.6037904159756622 0.30122334070674106 1.7263507625851817 0.055403673581285236 -0.17273005280929607
Ni 0.7091305133646039 9.056441240148912 4.289879029178439 -0.09092654907824341 -0.547003997335787 1.7286393015090422
Ni 8.65486259304247 2.2960017361541136 1.2971459851897047 -0.35658604032842456 0.9426918887616796 0.538400571937492
Ni 6.8299492421099846 0.8994087847582223 4.644486355401575 -1.1603943925166078 -1.5669045713689853 1.3903140071630185
Ni 1.0299256901333758 7.2397518059086945 2.5312473707331944 -1.4685693885314965 0.45528426293228685 0.8057369366694639
Ni 7.549302201536849 3.8340008185916217 3.938554936583051 1.5552821566387085 -0.12756116958214161 -0.26024243399966795
Ni 7.741908320856673 3.788773800390682 12.293286187537873 -0.7271447407868574 0.6393963323262796 1.4462802381159932
Ni 7.750485078859171 8.935887125820543 6.932738248828959 0.9801135239432474 0.36482539751908133 0.3883337650536667
Ni 6.76615734266313 0.7548180347114581 0.49729454263727907 0.07015074998347273 1.1032763073473772 -0.7220408439013888
Ni 1.7453883479346346 6.496577534434806 9.524115207153088 1.504206421008816 -0.07987723324261727 -0.8323853924949278
Ni -0.044054499385407994 4.978853256515863 1.4616116529367735 1.4046977866885164 -1.1227830099217375 -0.37706024902237645
Ni 6.042108879646291 2.2168929049580712 6.681203107094288 0.36250343425412407 -0.09900007011499724 0.7347690901013345
Ni 3.6795377496289015 4.475113479278393 0.3927666615637896 -1.9048472855646095 0.21925802116750628 0.8985833284782395
Ni 6.095767900440403 5.71331506179101 4.676186885322414 0.523624442069582 0.711740233306329 0.009520023675293282
Ni 5.229479153335712 2.993143787462693 9.249950271334399 0.18037625650064418 -1.0054532882596168 -0.20725714005188822
P 0.36249740075265074 5.502894979911144 12.470788889337266 -0.5503875690960391 0.4039365045879301 0.13916455814902484
P 4.081541615750234 6.3678718811188295 12.70798419833569 0.19610729408265581 -1.2089087951772277 -0.9092130402779438
P 2.4990935754369077 8.4764334566234 1.5996142224166396 -0.27650851814954314 0.43403846617963315 -0.19985673382275904
P 6.495790426896601 7.811725664216675 5.627893990027095 -0.8758015546970336 -0.24279081418212378 -0.15634441236242105
P 4.6653492287705225 1.2036050396839728 12.547231506837804 0.29773940250386144 -0.28581051227675935 0.4629772607011704
P 3.892563428876615 6.288129745006991 8.221071343754703 -0.6369417001381998 -0.5676430137423772 0.7494670584331414
P 4.653054066190991 1.1403650202351696 3.797202184098623 0.6201261712427578 -0.4421520964257031 -0.005108781981475073
P 0.35307472832690995 5.441663441766724 3.734199201632589 -0.5425480184469624 0.6102765321421877 -0.2703031606697796
Ni 1.4294415726569376 1.1354795251704555 2.4430451856676263 0.049525103313321155 0.7349670650447536 0.4681639471084325
Ni 1.8393527030126415 6.601615678326166 4.981469710539409 0.34239355087812645 -0.9923496609981232 -0.9372131250352955
Ni 5.903161781120579 5.582763777006142 9.019892308736997 0.9084687059127516 0.7241200950279206 0.7097625407546679
Ni 8.732704814406919 2.4095894964087234 10.37178388501206 -0.5735118138183284 -0.7725056854201598 -0.3294573024324326
Ni 2.319524490169405 5.241005302803204 7.0737209702983 -0.5417923712278604 0.04164467212397989 0.668835463523003
Ni 0.8148191518766172 -0.19037236240967953 9.121692455066022 -0.8678419335303247 0.02237271126824534 0.05702809655858566
Ni 1.4694302544829334 0.974303424100294 11.365731522879047 -0.9623058063378653 0.25982282996374606 1.0866410127835415
Ni 4.129464703449849 6.8818531035660335 1.6142860878730236 0.16699906386278981 -0.22828259326361974 0.39795174775940495
Ni 5.64363342662725 7.792391769858722 7.900560249476732 -0.4726314959614828 0.627298520621481 0.10338148701214453
Ni 5.400073403225072 3.1581197180276326 4.546711314173092 -1.06407212634409 -0.3603390796129536 0.3760112389325718
Ni 0.822322005686187 7.330278220015236 7.117484149422442 -0.6458798831680941 0.31677842141318346 0.2533233382823315
Ni 4.946916594333563 4.555669864567684 7.19008712969064 -0.2307467385333962 -0.6492269452634561 -0.870865807958313
Ni 8.243015359087046 7.144086574771121 9.37163981090466 -0.11155528107218853 -0.6236110444675647 -0.5930339430116561
Ni 4.484784950063911 0.11874195754788357 10.136124792795094 0.8412361580173383 0.5824690230116163 -0.12377136352240618
Ni 8.422014469930332 7.141010522322967 4.8498092374305894 -0.2158078578353767 -0.2153820831518678 -0.2839287218730142
Ni 7.4480910287795155 6.265014115580426 7.054533640792289 -0.01862327152814212 -0.752433083040001 0.12480391855197862
Ni 2.3983890466122118 5.3332054513300635 2.632981472406714 0.2448016739645655 -1.3929892400023365 0.24468905964610116
Ni 2.485007064666981 4.973334456535352 11.594015326990911 0.07145404217592854 1.4758448391469874 -0.8797284005552657
Ni 1.1874919531834982 3.3937362883431086 3.8021808654580904 -0.6747448870289025 -0.506222958763683 -0.10971977052534652
Ni 3.5779737355613386 2.451007637901802 2.3608286367776405 0.2344002761255834 0.7005250813168 0.5157769210007053
Ni 1.0424470330399773 3.5269745954135696 8.25103661820626 -0.022951466589850793 -1.7672526430058662 -0.37216281172075905
Ni 3.563661044464342 2.540584094634649 7.167748655867887 -0.0752667310537994 0.5789278426275771 -0.12151213517458427
Ni 4.230169232274545 6.570357557125076 6.03959918273712 -0.12135966875712002 0.9827535326692557 -0.08382567636740401
Ni 0.6040435145225971 7.437804347504367 11.481979163780002 0.5307119450439828 -0.06948714825754485 0.6517196297783228
P 0.2352420156938482 5.458319361052167 8.229850759330256 -0.5627214080710438 1.3369852138328908 -0.9662467932634844
P 8.894550409245209 1.5424774529134964 8.197369454920372 -2.1528546109506665 0.3543507232400026 0.5955749642659549
P 1.709470911995901 3.052973007579279 10.38595272542104 1.152742789508621 0.8085988315982912 -0.07902105588990907
P 4.117612854311376 6.041204158338009 3.8693021393194162 -0.5791998653420412 1.325828168774807 -1.365534229115177
P 6.839575476830088 4.230775395551094 10.381940286418818 0.13932833742039877 -0.6514954295826587 0.9454344845038233
P 6.353450623464839 7.841246720505866 10.05413351951087 -0.4313040979676056 -0.02214259753531025 -0.11998824233089013
P 2.2777625545791795 8.466056303217425 5.818293494076023 0.23388374150048105 0.5679397190471897 -0.26018072752379706
P 7.083325491707005 4.091846391451548 1.7781890189663423 -1.6120004352663593 -0.6152338761474629 -0.8836907276371233
Ni 5.313301582547894 3.02803888832307 0.6703650147474034 1.4843053112095146 -1.424898172895791 -1.1182509263793385
Ni 1.4372131286950667 1.105849902324271 6.948389927462211 0.8995256377868508 0.38736754448565547 -0.7442562036561634
Ni 6.843909091896752 1.0756322106277039 9.08999282986649 -0.36479351583988145 -0.8899351658849384 -1.5260173462363202
Ni 2.579894235479434 1.3968625583457588 9.30263762144342 1.141839512332556 1.0220680139981624 -0.7495704167802252
Ni 6.316022302941278 1.953799948510118 2.6078492191839917 0.572153242907905 0.4237010888093671 -0.8948048352724137
Ni 4.313503111980258 6.609993397640842 10.47563774871088 -0.6838951860696029 0.7458420600860445 0.45988576626004024
Ni 8.173804179003591 7.051244074115382 0.42820278576651805 1.0506314274581519 0.5341428251024027 0.10938295601121806
Ni 7.503957569565833 3.5386545475034703 8.518595279031887 0.7281788384783265 0.13093137160595517 -1.8449578082978293
Ni 3.1206823502909873 8.284569208776366 12.791921527154026 0.4488775880749947 1.20381081182903 -1.3666482881149624
Ni 9.104391469487776 4.840186621595719 10.394559339226712 -0.2462348068666663 0.0991093419993519 -0.24610033817133098
Ni 8.497748690646487 2.1237608934836825 5.956349442113078 0.21569010131058983 0.9007551393185778 -0.14579517609166504
Ni 3.5604945198853604 2.7787338846133105 11.550212340129205 -0.30221029379102143 -1.0990558415081266 -0.2199077389363632
Ni 1.0306856560323314 3.366639885160109 12.44131306911349 -0.31929733118029524 -0.9406679163531154 1.2502678177399886
Ni 2.9782430275153144 8.49440122180585 7.913855129101913 1.0345525196184182 -1.203077533207431 0.20442455569909956
Ni 5.518628083462142 7.847127409009689 3.4728378817686845 1.3932067553297813 0.4038434306534916 0.5401484078665343
Ni 3.2485194711510146 8.324205049292134 3.6889396134645516 -0.9032064290725478 -0.0477250739901049 0.1404907331596161
Ni 3.3063402099632175 4.146419180767025 9.23170294726769 -0.6857180982109545 1.1239389779030513 0.2846452883240646
Ni 7.185920888066009 6.509433624225471 11.683342985363982 0.4187810257999304 -1.656754342443282 -1.9033776429976186
Ni 0.6479659245969962 8.948046580203831 0.4441837829559839 -0.3201907895288421 -0.4939012039735365 -0.37859622605092863
Ni 4.599259337200636 0.22437540806009176 1.5150408745185837 -0.3471320940043764 1.0759061428645407 -0.0017087551609906053
Ni 6.020151293494323 5.641887314502269 0.43302404561834457 0.1828918238336463 0.30994571476206617 0.12146225577325533
Ni 7.949125689305227 9.101044000647136 11.00067647498789 0.3287049976474403 -0.39529682663506116 0.19042926986127204
Ni 0.06337753708766174 4.757232724839485 5.85853459314703 0.15163852224631946 -0.5390788289514393 0.48334039773855464
Ni 8.110012279556738 8.724688983615554 2.438954035911582 -0.3247241586228214 0.47744614374130684 0.14383419571055228
P 8.457289553740187 1.620319674277946 3.542686890374476 0.7274666429026504 0.7927708634270992 -0.16781256090302066
P 1.6670575770637137 3.290769956247711 1.541430690359816 0.7320383214337327 0.3629716321397942 -0.1427777294215799
P 4.723739942006942 0.8882472379779665 7.890219284923086 0.5167541973123101 0.25788884616582686 1.3657139492261512
P 8.501476142436603 1.402915143898155 12.593432005166454 0.3503637135677966 0.885489728519075 -1.6588032545525109
P 6.361656445730943 7.887170374114181 1.2660660940863466 -0.5014072825425945 -1.4127913623299282 0.8460988854262783
P 1.8713707901126866 3.1857860956348487 5.944313029827716 -1.2674322453344173 0.34792553643994917 0.572173297512563
P 6.801993353684118 4.2850134379825064 6.086857300275149 0.7916575757582625 -1.4673979939312147 0.593781619810958
P 2.478664968295935 8.37045440257143 10.512449049302194 0.06217158843273808 -0.7191509239481033 -0.5268856293193571
