# total energy = -340889.7504180165 ev
CRYSTAL
PRIMVEC
9.12787379428685 0.00000000000000 0.00000000000000

0.00000000000000 9.12787379428685 0.00000000000000

0.00000000000000 0.00000000000000 13.35956595756564

PRIMCOORD
 96 1
Ni 6.941510834893203 1.8341549969669446 11.33718185620745 0.20461970242904118 1.3619377700131707 0.527725351611833
Ni 4.912594390875976 0.7197401653968406 6.030721528792585 -0.30987500942513085 -0.7542860770883397 -0.35002304239892623
Ni 2.9673988069770973 2.0745284302810063 4.736995089665909 -0.4967381592016994 -0.3353471855543063 0.6154369932972046
Ni 3.7035527153596353 4.6365583539332205 4.711745564670338 -0.15092735511190783 -0.9588990946491616 0.3088170004742617
Ni 3.71739970018296 2.8988849849046683 2.543394456140481 1.0948582584870112 0.01776889394764682 0.0827931213378316
Ni 5.32898061809127 4.6784826791102345 2.5636072202754647 -0.13603295449857863 0.08374828616224932 -0.5557884283966363
Ni 5.737462106442359 3.226986415013043 0.07880093604466823 1.1384518268072459 -1.2574818189899246 -0.24563445427850603
Ni 6.043674894753547 8.098687930471423 12.342021124618949 -0.5950129211148979 0.05464108438364783 0.11748655895495895
Ni 1.957198738178821 6.687290416755817 0.4167248713398457 0.5701503535452631 0.8324370716684696 -2.063921695263684
Ni 0.8100148390307765 9.083895880320284 0.052254340156945696 0.6475364449349106 1.708860061999586 -0.28346180953892475
Ni 8.2304761749534 0.1535983865629619 6.775638196193178 0.29309727574615974 0.020082629682487994 0.6457708683940556
Ni 8.921638792502605 2.7148122782816198 1.2132916136400986 -0.3822266237146643 0.5525395824420355 1.4143692483400092
Ni 7.131169800390262 0.9205552184687634 4.698773030174023 -0.5714083943220805 -0.02184769200271076 -0.4231236190393422
Ni 0.855572058050693 8.037640709312296 2.1539226781341885 0.6036279164774185 -0.9980364269702555 1.0263257608332517
Ni 7.778938505052134 4.442755333650538 3.6565003505822626 0.006020752272783179 -1.4888101410584036 -0.22403178840706575
Ni 8.292801298469328 3.990825165168253 12.613808136225346 -2.0978476585871677 1.187763014337548 -0.9191670661668622
Ni 8.277868096642722 7.514549635304211 8.622784896191789 0.05673241969503777 0.00045919902460566075 0.4285463327168103
Ni 7.124305639159451 0.8646250834612227 0.11535533296092941 0.43400915560359443 -0.514864436488765 1.3970441267980005
Ni 2.364283661811407 6.318935062408245 9.269053891159215 0.7797004033963862 1.892622461363644 -0.03478548311030138
Ni 0.1735035413449158 5.413541242615515 1.4865053119491223 -0.9169757149424982 -1.4048664510558966 -1.4858194338611959
Ni 6.7127663130260204 2.1016655996150497 6.987587429942419 0.02314738465074078 0.4484515562811696 0.6691252268492799
Ni 3.8832714260955865 4.416804787933523 0.14516514379548026 -2.0246383242830293 0.7084283953242768 1.103503335756519
Ni 6.052903175344437 5.869204711554451 4.553527561087544 -0.30465284179424307 0.31444745928716167 2.034144978221884
Ni 5.609872683989866 2.844409833009084 9.633503428231966 0.3354592856521384 0.24697219925332303 -0.9209969202867493
P 0.5097160002693791 5.6631977237643305 12.208118864523865 0.9811440220902911 0.9274331628303962 0.4436929585502617
P 4.287973974620138 6.460481004171789 12.685763166787156 -0.3145855275269227 -0.11348052311935938 -0.5147063136443458
P 2.7931659485014078 8.85458543026652 1.3599902402637387 -1.831711227700568 0.0040577150091413985 -1.9103769571335874
P 6.554762814481689 8.048092125016124 5.769355810905891 0.32199698949964545 -0.6410534083137281 -1.0816399600245241
P 5.064381807241873 1.1491628222262888 12.713564845346736 0.6296945316574832 0.5848971728371346 -0.02172890703665935
P 4.240070891988097 6.4170323240405915 8.088803355741575 1.5005212588477448 0.08220999514085196 0.4784894974041566
P 4.797710968999666 1.3134919374367788 3.8005966203350194 1.3870268517713147 -0.4594911019247828 -1.3480818379666848
P 0.2839581187675176 6.192340578219261 3.3840579576243073 0.019120779989850942 0.1894630492932608 2.0792364712438838
Ni 0.8255477421776793 0.5333626705945635 4.6948991604581245 -0.03195392719877723 -0.293473685248972 -0.35517579024445933
Ni 1.989310598830407 6.742431903451733 4.757555625799421 0.1732113633210888 0.17817590641521572 -1.4172188019736625
Ni 6.394404324451257 5.669222120589244 9.120442062149966 -1.2065366954006251 0.8029676014544429 -0.0947891173574432
Ni 0.07481570626624795 2.802302950352527 10.085697392272193 -0.38779126228663535 -0.35621811546604454 0.5893068718690561
Ni 2.686251160607142 5.627544248009613 6.863089618405984 -1.6488597701865537 -0.5780546959940045 -0.11679158977046337
Ni 0.6289588947571734 0.13340844211292116 9.184835561909113 0.7273478579365991 0.44729018898321676 0.1250502302348298
Ni 1.677712364872705 1.3032413349604481 11.354936483880389 -0.21820232620948227 -0.4349794899366638 0.09096100186060464
Ni 4.23149981832356 7.110586444571807 1.4305687874297974 0.6649926927381451 0.2249458155809029 0.33023917490377963
Ni 5.89182358326981 8.129311947664736 7.810710808791769 -0.5341466817571445 0.15486937047879132 0.6571677973770876
Ni 5.636489564507213 2.996443701972364 4.862054265451937 -1.2047142974799059 0.43440536260074863 -0.8207917741200575
Ni 1.086052701548328 7.81002804381828 6.6882397156494395 -0.1456149417600589 -0.012184714991649984 0.8048442496518654
Ni 5.033109710996184 4.653234979689459 7.098298500623779 1.3071218506145552 -0.21855765266637198 -0.7660493882718549
Ni 1.1921642365326055 7.74279212410265 11.291091569347268 0.13005642520016958 -0.6621685930257887 -0.19653435431774538
Ni 5.024666427567328 0.4601671619592583 10.279518668302828 -0.3969898980667679 -0.043846821981621265 -0.19765998328175638
Ni 8.553493379256507 7.797814948436863 4.79143555564038 -0.7805262417317913 -1.2217365430695153 -0.6059496226320595
Ni 7.387179281827168 6.1300245825773105 6.911611570893677 -0.9001532440685207 0.5600322912746548 -1.5160103556222795
Ni 2.4304881317676186 5.610612041782014 2.3782830821301495 0.23346413746455918 -1.2060929229949875 1.2381208979648095
Ni 2.67335347467744 5.466994072625659 11.550747636438041 -0.5754200865846348 -0.3839693174373839 -0.3869178585427466
Ni 0.9600058897979719 3.6300733298436407 3.8038963467777562 0.6387448147852096 0.08281883236944447 -0.9730576455377307
Ni 1.471011658660321 1.5566219886919372 2.554856327493578 1.2997769802137098 -0.8988846617687423 -0.9744069604767736
Ni 1.5384666473514017 3.6373938847733087 8.154733076691075 -0.11747344632883641 1.0291971688437758 -0.13466178518266486
Ni 3.468656006431859 2.7727286386665866 7.1325125106523 1.3631888688114524 0.39611983675698875 -0.8278548516144258
Ni 4.2169956265738815 7.159091966886341 5.749276313730974 0.9674960922895531 1.0316641423270296 0.3111572185716641
Ni 8.50838342606147 7.294129734504181 13.19310591982248 -0.3781833068832261 -0.01866698028188398 0.8373602200016999
P 0.6749432982792201 6.04822970386814 7.946390265950204 -0.8300472312800543 -0.45745170289725084 -1.2231056555029
P 0.08933997933867656 2.004481125380417 8.00278135859359 -2.7143627154398997 -0.37776473128856874 1.0849600255366927
P 2.368847598799978 3.4781946347379726 10.31768687333825 -1.4824019235392147 -0.28981834788457184 0.281728886008218
P 4.080323969514132 6.406352711487336 3.6364336324309137 0.45060279829621747 0.8041690779617118 -0.7288254709233899
P 7.283514017068765 4.210460068806247 10.473379194191567 0.1491070140737174 -1.0492144925059672 -0.574062801225792
P 6.565369404043129 7.917417481159356 9.946971963567586 0.7169238343897975 0.08191251850509118 0.7701811510520413
P 2.810965302756835 8.943837782015015 5.581359944047467 -0.9146882044599022 -0.41712703513627514 1.2479723368375928
P 7.187397504089459 4.387340010735308 1.3212862290258605 0.36024317746503765 -1.291733026863311 1.2896406631106565
Ni 2.9681929320131086 1.8250271229898025 0.31927203761028516 0.6828824285343724 -1.1736908525151981 0.47086514808967933
Ni 1.574959887512016 1.1864045480530288 6.871105717332711 1.2448649015568627 -0.3096690640619118 -0.30493309203882324
Ni 7.355103932671491 0.9925650162744379 9.13434929094154 0.025863755140639332 -0.3428314097464934 -0.6397925393234335
Ni 2.718928949445311 1.6335425826973144 9.02606988588769 0.7254889503509893 -0.8345047528307756 1.3115078954973929
Ni 6.585003460967962 2.257213700059529 2.2030461575169746 0.11626991293903846 0.35490093931651784 1.2704941720891925
Ni 4.570080047757695 7.141393019244662 10.523303188122147 -0.45537682264609314 -0.6437738925686848 -0.5404687673204305
Ni 7.547437365243854 6.2781425936043975 11.229623553197793 -0.028344612580964088 -0.3143726401851683 0.2051498639008983
Ni 8.218126161462328 4.356332622834956 8.152808920856694 -0.07048756449760119 -1.584049458579388 -0.25640943340682293
Ni 3.5432216089511335 8.79060816156073 12.328888852328037 -0.7844880545930167 -0.7241514624864883 0.24984900658048584
Ni 0.42054397381188197 5.238961524928694 9.951340564053046 -0.3492044031523728 -0.1758086917346198 1.6072503221758836
Ni 8.873507513021135 2.5758586527275846 5.760498121998472 0.3442002650695621 0.33029213962890214 0.08306437272134727
Ni 3.963185962765466 2.5897056375509093 11.464177966851427 0.1255773063828934 0.2836636411370857 0.15302486107088484
Ni 1.4428704231887917 3.361960287513044 12.784731227596923 0.7755601559757676 1.1261969206992928 -0.7344186487404513
Ni 3.350888176378771 8.550700249819503 7.882811885337215 0.1909260069920325 -0.18930749755200302 -0.3444470909730455
Ni 5.823209354583632 8.196374437774798 3.3272798431242907 -1.0128794055203587 0.38720453654522996 1.4224270856474792
Ni 3.062401719331193 8.948502125617335 3.460488384797112 0.7543614104109653 -0.47555843980029067 0.42517381670015164
Ni 3.984335246770505 4.559491713944209 9.38840814570953 0.12103185310405606 0.130015287549589 -0.2216694588224763
Ni 5.31381009154126 4.71321423959326 11.53072199371959 0.46112632353536065 0.3256109321031489 -0.7099412324243773
Ni 8.002315837020756 0.05486491211440835 2.431507715290865 -0.4298761072718274 -0.6519176047217418 -0.1473224113694689
Ni 4.812142137757527 0.45479449533631244 1.6950617149410592 0.3715102657384247 0.9297168166582506 -1.1987400821743421
Ni 6.26047102958465 5.930498385310961 0.232319910104029 -0.06384460525978682 0.37763437635829156 -0.2817900782634566
Ni 8.138695402113235 8.816631730269561 11.189758476390022 0.49341500836573726 0.43889296605845707 0.008725038577823682
Ni 0.03901618452789643 5.195275520074091 5.5691085115953465 0.6714700729323725 0.14486315119569892 0.4058694599445849
Ni 7.194407711303904 6.471224511842885 2.67228733899691 1.7280736588135595 -0.06744440679590322 -1.581260068759709
P 8.664278385717083 1.8004183747474272 3.329471445666202 -0.8172727052232053 1.8138353758614116 1.2124031814837315
P 1.9583397224259638 3.54227231005751 1.5916054784967326 -0.41100189607514376 0.5472505661289543 -0.7519916246272081
P 4.969132442290395 1.278504796482393 8.172888418031611 -0.09955748528036401 0.44113676778731126 0.13026468455623372
P 8.888093855636608 1.9020937629788137 12.608478370610094 0.5807471552245029 -2.090856314870999 -1.845575644387486
P 6.751057744360132 7.933299981879585 1.1494129259732624 -0.712320017069199 0.5367573799071143 -0.24131525807786183
P 1.9243657754830406 3.7963192985893306 5.760471651163939 0.13141859565501882 -0.211949403321235 0.43691784460995714
P 7.131206311886171 3.9553542468930787 5.92443291305315 0.7700621089756737 2.5033173119901724 0.6830307811867784
P 2.766631218849856 8.568974253521741 10.00256071608838 -0.6886908076860333 0.8312168261081233 0.9860093206023921
