# total energy = -340872.44796298514 ev
CRYSTAL
PRIMVEC
9.23270533758224 0.00000000000000 0.00000000000000
0.00000000000000 9.23270533758224 0.00000000000000
0.00000000000000 0.00000000000000 13.51299751770959
PRIMCOORD
 96 1
Ni 6.571340881735362 8.104883956252621 9.370372058788869 -0.5174658786673539 1.2089609885714019 -0.03916510023523577
Ni 1.0156991142073 2.708414023622287 8.077880140550251 -1.5969872496869788 1.239127484852453 -0.8080187907251052
Ni 2.10367184347141 2.367782603859135 13.110106933546934 1.3982952255962822 0.7596920785952593 -1.2645202138939446
Ni 4.704746438293176 0.418442811303237 6.319299113376541 0.11233046867531621 0.7066363364208604 -0.7194633129821997
Ni 7.5750005485698875 3.9004301059874695 0.7869837751332301 -0.7768261671723847 -0.49862920557682516 -0.21077826583126927
Ni 8.384597988158744 2.2074105173061467 9.63894221571114 -2.0565881377167483 0.35045961571571255 -1.6215878218444784
Ni 0.8595796115959528 2.178272100198419 10.924230777477181 1.7093827672722752 -0.06618276647466022 0.34767845342614956
Ni 3.4865925679584198 8.228712996255425 1.3977170575848692 1.5096203929355354 0.5865228813660157 -0.6045311450179782
Ni 2.735705899721921 1.5899918331347025 1.8477938861682732 -0.5799945933291947 -0.8044269596087887 0.5540758165809038
Ni 7.836443057200916 4.476901743304423 8.174525327102394 0.6303812733118628 -1.1717380996642013 1.8831700577014923
Ni 1.527975753377856 0.03224799216535853 0.14668460133048947 1.3697379827838798 -0.13792914308002696 -2.575690780656577
Ni 7.667309133564521 5.8241657609251325 2.237617158387057 -0.15557231008308692 -0.009792817720705716 0.5653220789186845
Ni 2.8076656028073548 0.43749449815424973 11.272717382688766 -0.7708401247922788 -0.5566443486390285 2.240706634868644
Ni 3.6072547901323406 6.121191114782138 9.054586771560128 0.5273049762449629 1.0281543294015583 0.9797581974863578
Ni 8.319765933364554 7.749655629820484 3.5100140941050877 -0.20580061011101974 0.9694575868912981 0.5863354479455579
Ni 3.040819103194379 6.049970028099941 4.193596189137558 0.1971979560436733 -0.5012296193141497 0.5273620547351434
Ni 4.956032971379687 1.1972325607130487 2.625467401538692 1.055626309569582 -0.5076483783562998 0.44200220111140004
Ni 4.332751519507544 9.072296023098257 9.684345889288666 -0.8193339586276084 -1.4016649133994634 0.19398407709206592
Ni 6.418225701344183 8.371441383476071 1.6605176971273514 0.5644468754025828 -0.26448989642211224 0.00034349938234779555
Ni 6.910688955497888 7.4199465001202105 5.831345112364603 -1.4449553486569824 1.3789037084435478 -1.1613333593911097
Ni 4.374363321124948 2.7469605671662554 9.118840859018785 1.586318714229539 -1.2722407224666539 1.5361652333035996
Ni 5.628506275707463 4.742794415764959 13.033001843942444 1.1959131542485082 -1.8905969462931829 -0.0421951453108112
Ni 5.516947500703446 8.666980271821561 12.424930350353973 -2.862622036801341 0.2103787164000054 -0.7626925559844799
Ni 6.5159354187874925 1.053423947002666 0.033152797259324726 0.09464230736693377 1.8423080293798078 2.4125157185255675
P 9.210463454028911 4.672044197039828 10.328091631883014 -0.20816859612256408 -0.19319834796597696 -0.2151961923933068
P 8.062099601095078 7.7594053663432225 7.688314460802097 0.050315717535416575 0.3983530969628817 0.10270322999819731
P 5.897011803694451 5.5145746955080455 8.997926583997259 -0.2192387378937966 0.4090401443630826 -0.6139776351428587
P 3.617253809691171 0.5143041411974435 13.342503352120637 1.2832668983738287 1.0042464124357091 0.1614753058310832
P 8.206739158259102 2.2203917005930496 7.119971297002774 2.6727404119134226 1.7107351675351115 -0.7552916355347187
P 6.434336771639807 2.8809178845984547 2.41452963602005 -1.130746487743188 0.027984401028067936 0.14742756948876545
P 1.5980427519299933 2.7176836594829203 3.3298323156172636 -0.35688454540544984 0.4710726361147952 0.08644717315065112
P 6.900763797579382 3.053024739257882 12.318123648634288 0.08549355098813019 -0.8575276960885102 0.8446598389869066
Ni 3.393840813121844 8.766970467409866 3.763045608444247 -0.05916545461656261 0.23125941650375656 0.11888112530964043
Ni 3.7547472531538713 3.6805255373335215 3.494339730757879 1.4280732281896633 0.42086464780183647 0.5039161650073773
Ni 3.280075421613155 1.7992418601719462 4.619323604717727 -0.5162093805524336 -0.7736305430532224 0.8257720009434683
Ni 6.00117518196105 6.429212620342345 11.022943166687885 1.9071476515630126 -0.10399546644705962 -1.7065036459522676
Ni 9.131413033472395 3.7722524619106053 12.44120022317629 0.22246264414773298 0.34090822458185155 -0.4446224123430665
Ni 4.5263059479759855 2.9427770083696134 1.0297457516558732 0.24725579193201289 0.2806585357621747 -1.1329123850462555
Ni 5.066077582757066 7.017289767895171 3.2204035256660846 0.9913618431635571 0.2826920212524357 0.09377815959442559
Ni 0.10155883217468142 0.12996140269068363 8.697519290283928 -0.7947539552953989 0.6045002917800427 -0.9554191065203611
Ni 3.3085583166630097 2.8449472657607786 7.226831548411694 -0.8742817756183975 -0.5018682813394131 -1.767253928557447
Ni 6.1184674667952 2.8058929234395844 7.598195873443063 -0.23449926359729292 0.5544637960479419 -0.5038786269012225
Ni 1.0434156947387951 6.603396833635879 5.309080532881265 0.07849835061721964 2.514131371886541 -0.21715434456094215
Ni 7.890777526364091 3.965576072753036 5.574002848042047 -0.05839746610228652 -1.571416600306726 0.16021829349553052
Ni 8.679435190921158 1.3457775521091933 12.734689451002797 0.6238907804915126 1.3933731057043164 -2.545478775849571
Ni 0.7901422835275753 5.73228188036236 8.583848072366653 0.8879978396529093 -0.2720823640573895 0.1199483902318902
Ni 6.141623091036701 5.143170669845002 6.668272282143759 -1.142971054833838 0.144851324121157 0.7541942887054818
Ni 1.812961659862087 8.017117862137901 9.389627788421276 1.0819878302822463 -1.0134959560584351 0.6318730273660408
Ni 8.655919491183077 9.065094513166688 6.017012964187475 1.5261441016221715 -0.23510758660525316 -1.4306235054153427
Ni 0.0691778890567401 2.17516067859978 4.907826248551874 0.7347060980738831 -1.454889319941243 0.7395060905656877
Ni 3.72298674781465 5.21834335428452 6.798861508777195 -1.159852918190841 0.2812894844779542 -0.3544445685053896
Ni 6.749273573275326 3.963821858795346 10.374873748323084 0.35440265952386063 0.10177274776412797 0.07097735964982614
Ni 6.773057021459581 0.9849726718326111 11.145060463176184 0.22633832505305537 0.4078481809375105 -1.179053659489008
Ni 8.713374614649931 6.146267141672059 11.923787430191721 -0.8103713501176818 -1.063592101383878 0.6377091744318436
Ni 6.9792879539485915 0.6565118038538084 7.287154350064118 -1.409255838372844 -2.6704161346556203 0.9827406771534495
Ni 1.3442910865976774 8.617105199192936 2.199969880314031 -1.1837906599533612 -0.5275366326397947 3.2726487134474085
P 8.71025396034625 0.1381009554543632 10.780020541097539 1.2246210637061619 -0.5205427178204648 -0.721505283112893
P 3.3227489843102145 6.234356380463196 2.1249726172702816 0.15861881021889457 -0.5544468267670773 -0.18974072843467968
P 1.3856997687041916 4.825722572438473 6.7444993414989 0.940412862919516 -0.49777688487885885 0.26874918591909847
P 4.878127406248189 3.0913589305859195 5.723834878520834 0.04482872627891634 0.25437517658561354 -0.738540898438941
P 3.3026216873219862 4.462498723441287 13.175631441219158 0.3261727181438899 0.09561495569284822 -0.4379573416180651
P 3.0076090631638035 2.573274919944907 10.771547687681899 -0.07216238109686282 0.021829951390897887 0.9704022101927546
P 1.3504862316798338 8.978842582678606 4.5903246014561105 -0.2418191942974739 -0.9729961961721759 -0.011606216780360657
P 0.20525411229572793 5.101364981421748 0.7081983332113755 0.14858996522798282 0.03565451597881601 0.4085063833467997
Ni 0.9794976777436116 4.464594547485475 4.660254032703144 0.2692284395483621 -1.4760836946306708 -0.8661010395798181
Ni 5.588750247803192 4.959088996748083 1.8898876349887908 -1.4867964530624844 -0.18015128497403168 -0.24077635485525628
Ni 7.808864967245028 8.381135723768567 12.515845720157998 1.062440761388254 -0.7345829422324575 -0.2033279802008111
Ni 2.4289769728673796 4.2528332246772225 1.7963095530510926 -1.6812189032435498 0.4454217683159103 -1.5288046791734704
Ni 1.1272486565062754 7.681121260305066 11.970799440987298 -0.016472029513094212 1.8702263530566308 -1.1626803603373075
Ni 1.9973387795203008 5.6042150287459815 11.404767223259606 0.5446550374876362 -0.44628823008126367 -0.2923477991746449
Ni 4.336546161279177 4.389588051736685 10.82605942478185 0.6269210826774042 0.7952488926539465 1.5704418950982826
Ni 1.5809437821950403 0.9570899026103875 6.392917933557748 1.2090463491963566 -0.4945635201478837 0.8805195289979932
Ni 6.741241119890117 1.9409731152482228 4.863652371285737 -1.0711035792695747 -0.3636699437583995 0.34421723435042656
Ni 0.7222662058815417 6.1757194707511625 2.7968661077215153 1.4737943843758619 -0.7532422092048575 -0.3196791399997462
Ni 4.539951886025802 6.530467696521195 12.588018698729869 -5.504131772835256 0.37418986945311683 1.5243147617229167
Ni 3.1129080641503797 7.731199452444582 5.981041422079294 0.12739970430361283 0.2163292775564855 0.4561314414239306
Ni 8.428850343417723 3.186723540948949 3.0685993893906534 -0.05189283221454934 2.3275320172943204 0.4146847442433697
Ni 2.5869854869300073 4.189173723423172 9.400815980389318 -2.653089470451715 -0.83858020845173 -1.2318962572113366
Ni 2.0573051987581628 6.397082806801505 0.2611239803071326 0.18533720005034532 -0.5199397941291433 0.5446290693457071
Ni 0.26220605333787583 2.5287640489447947 1.0651264006414636 1.367209045714439 0.17208779123960685 1.2676798425688491
Ni 4.900627508431818 2.0186940262789115 12.070133191247225 -2.07800876948437 0.7733592916697068 -0.22480723312050963
Ni 7.9438471149367205 0.9770510109078866 2.979588726636477 -0.41590781801719345 -1.4311086725818771 -1.026218031610794
Ni 8.509959657198264 7.1103185038829615 9.698412838688329 1.3843498191597834 -0.18072052721394039 1.3185228933626454
Ni 8.47481074910919 5.933277869093423 6.562113716317915 1.1809555044974112 0.6671768448736575 1.3630016925013109
Ni 4.9900647221588645 7.525919488574742 7.794188659312694 0.13310163978439657 -0.44312885851667555 -1.7390694957034307
Ni 5.987492313091072 4.7159457095072685 4.186164784850482 0.14499273479502772 -0.3790091452186311 0.5023848159645153
Ni 8.943361297208073 7.251274211735838 0.811405203235781 0.012119151861037191 0.9362525608942391 -0.10737595288351831
Ni 2.3283681860413625 1.166570747273643 9.134029582080865 0.1999356666898105 0.49691402265793133 -1.0802389659119396
P 6.068915538842989 9.03241997002846 4.0439266542674845 0.4455852904769681 -0.22108556129454826 -0.08388352618853295
P 6.390573749747972 6.9800265703518285 13.379893960993538 1.6076485860555667 -1.091978622946371 1.3029353233370333
P 4.987507262862654 6.481414334641171 5.372051274339296 -1.4450517650255306 0.18446585318898553 0.2924812394287157
P 8.95642557484034 0.4155917519867394 0.9754657554524377 -2.6896693264582776 -1.3312904774409589 3.267680570808856
P 3.1897795663173447 8.978214758735852 7.805809865147136 -0.300329788938857 -0.5951802999306974 -0.9437126167167103
P 3.5253329983082375 7.415016235628598 10.944311910940208 -1.2643975722731515 0.01316044864135798 -0.17063357529158354
P 5.882793437932126 0.9970767481406692 9.157392942185778 1.5764503060758914 2.2109970236193535 -0.7328793292777894
P 8.212297246693467 5.737609151170713 4.4343168145757526 0.16992832169444283 0.5968540880886947 -1.536009938672658
