# total energy = -381174.61593366583 ev
CRYSTAL
PRIMVEC
9.17569869198736 0.00000000000000 0.00000000000000
0.00000000000000 9.17569869198736 0.00000000000000
0.00000000000000 0.00000000000000 13.42956252955647
PRIMCOORD
 96 1
Ni 2.8156274362907614 0.29997745374451085 10.37417638490461 -0.25550929019005675 -0.1843380693618696 0.7206385642372234
Ni 7.958459856610296 8.649215645239542 4.366608666748721 -1.0120844204228894 -0.2688689993264144 -0.36919215912820935
Ni -0.16826855421391115 5.775662021815023 11.636636021690371 2.499675344362211 -1.9005000643395076 -0.02353227879398528
Ni 3.0272007014468194 7.890403697894775 12.299814247286113 2.04982922172636 0.7418216260727418 -3.004170778911826
Ni 3.5294234048491813 7.776313057815392 1.9971505068713447 1.1983659866643748 0.5259075816768038 0.25257411882113273
Ni 5.81323650879629 7.916306695879664 5.890381197268818 -0.05655629912848969 0.05820437625487395 -0.6282225750976471
Ni 2.396022725752705 0.1067170484461364 0.4463371917031909 -0.8587484558694888 1.7843108840397337 0.7665916339285701
Ni 6.617789315140232 0.10343123067129104 7.947950928664107 -0.015056637222806325 0.6694306739048407 -0.4410074412982986
Ni 1.718516646330039 0.1862721930187815 5.644995481679069 0.37199389024306256 0.13111906213672903 1.707610248752885
Ni 5.756182013057702 3.74371267687861 5.012839376482584 0.288677035191277 0.6728085892381381 -1.7116561366874843
Ni 8.905850767676432 6.156728796987678 9.120392371425515 -0.5018988774670324 -1.575607498459622 0.7740612028327379
Ni 6.633030151007358 3.820439871051346 2.363912367464318 3.3847727225388735 0.36792511949032763 1.8687145443977946
Ni 7.53148705985833 7.035347844824364 13.141981913686466 -0.7032211400917244 -0.8897963263142288 -0.2808128019518519
Ni 4.3484187612562515 1.6980823648874794 4.762150106930643 -1.0571124071968052 1.7134731352915649 -1.1917585086501863
Ni 4.266589878497048 0.30286779889691595 6.37998272683901 -0.7615476437467594 0.3274636690411715 0.7507253563202748
Ni 3.947844450229587 7.341109659153243 10.138406801758418 -0.49906757866582435 -1.4452888207370012 -0.20789168831209356
Ni 2.014377881549569 1.9015993664123887 2.1733734744586526 -0.8280101462453675 1.5645589539549443 -0.4955243413992563
Ni 8.324918919139684 5.310802764319308 4.886521200053693 0.1616784229808248 1.180918737722205 1.050069898527727
Ni 0.767240744351115 7.287560280393128 4.906356308358309 0.2580873353298781 -0.7839494084807273 -0.9317988959982598
Ni 7.619252619803585 2.908705725897104 6.870054052192705 1.5712592487932553 0.7081296331369353 0.33637177016407876
Ni 6.095178208789793 4.637278938217734 8.881627840159496 -1.3231863602765856 0.7670042959859565 0.2561880614246362
Ni 6.6928465321138 2.261222533263866 11.850904189612336 -0.4155596906491552 0.7549908164648481 0.26556384621258133
Ni 6.766518218553994 7.950880729321767 2.1457885708660314 -0.09130604390484921 0.7917820171512686 -1.1908069433701942
Ni 6.354125607348605 5.012308103516476 6.714069923661461 1.3113919387448187 0.8525590392293252 -0.7779268564357312
P 6.135441175547741 2.4644092096285 9.121627420496987 0.502759939915747 -1.2326274789504061 -0.5788419677819903
Ni 4.642426505298683 6.278049887797523 13.763018906960143 0.3441799533545879 0.31770376144093027 -1.2512283818810452
P 7.992015387474885 7.298993201218197 10.907934130274548 -1.1780072205023648 2.895689765889587 -0.9348734211585253
Ni 0.9558600811476274 3.7519891572832753 10.549835047009783 0.19268849820909395 -0.03078690347386956 1.852154068935952
P 0.41027118962051234 1.2515653294859166 13.365853368073536 0.6125563293152999 -1.712717230962147 -0.4301843825408656
P 7.87782381470764 3.4008902147066684 4.207683726721141 -0.9399966013177036 -1.634773981517449 -0.30404760411007636
P 4.887234151857952 8.888471993966414 0.5423296832790696 0.21177893918164173 -0.25464231420407113 0.18234366463966015
Ni 3.559226074865092 1.4521736344606275 8.405107186936188 0.3314817890616291 -0.6641601695345206 -2.558699388304903
Ni 7.668709636855851 3.827661146082911 10.18553135615119 1.5425338558341046 0.5321206524660513 0.6585255969565627
Ni 9.111303841668507 8.18406276537914 0.967899515669757 0.9540646493749956 1.2842750279233688 1.388845393037292
Ni 8.173373076164689 1.9449545436984659 9.049792708975877 0.6187251771301732 -1.5705197995240694 -0.0021301589691253633
Ni 2.4512329060130913 8.608484717837872 8.090021944958552 -0.7034605097960401 -0.10508869951123838 0.2045446262167316
Ni 9.002305714476694 1.715681355371013 5.118019495363553 0.5759954994721306 -0.9044297599566876 0.33754470742625736
Ni 7.458026414492757 0.3206484682186008 10.708464529532895 -0.9481326001612768 -1.004633620571799 0.6936021289447216
Ni 6.400646400753984 7.0932098020658465 9.465438105440084 0.06986304353972485 0.09096434429471431 -0.2359161985494776
Ni 0.6811277277771239 7.99498831391736 12.255308437358412 -0.8200654374769941 0.8433064102828057 -0.31026941665007207
Ni 5.438289924787617 7.9135815133073955 11.788832421717132 1.259036307961238 -0.4180588029219252 1.6604557025542694
Ni 4.847044590691177 5.587954749488825 2.574366197355 -0.04963128987388227 1.2732015437180266 0.9093346534574727
Ni 4.627818792655417 0.9707247133599969 12.229873400017246 0.43386723070909156 -0.23814354521809952 0.020248465836390936
Ni 4.1890735742192104 4.629708986628101 7.14502405616463 -0.6233403073046814 0.8648941637559104 -0.6613671801704158
Ni 8.180144741950324 2.7068587015713628 0.6639572424320581 -1.082045680103375 0.48384741928196023 -0.33862817029842324
Ni 0.8418813845947818 0.29588050418721273 3.2548158409836705 -0.16542554872808285 -1.4780256488483898 0.011897008547902092
Ni 3.4753326598541703 3.9705176022028983 4.649744125168662 -0.8164044436856392 0.5427094837254912 -0.40495260455727033
Ni 5.391851712672308 2.4853940330048516 7.02131086065246 -1.1879705023626637 -0.46209074433115904 0.7019795543751395
Ni 4.430669726164696 3.8657861749979694 11.869651977597716 -0.783231042257464 0.5336550868327067 -0.0021795241498220527
Ni 7.807005770624266 1.2489869580959931 2.5884545654407227 0.5112183550957453 0.013642273373782956 0.8992047641123222
Ni -0.4875590189958263 8.582058705015882 8.941819507350807 0.6170963832774984 0.10829589359462641 -0.3009234566587979
Ni 4.529290137904539 3.438510580182418 2.5595401030779956 -2.005237808269231 -1.2601639938077782 0.24132091450481663
Ni 2.7118044032765893 3.838479295081913 8.69969758785855 2.3864365049400122 0.48193940362597 1.5049371285272533
Ni 3.230625945982763 7.18100288910779 6.155265273013682 -0.8433323784247347 1.1103856646986487 0.7516429830385378
Ni 4.353364462961479 2.40472128830661 10.179152410278325 0.22865026101568361 0.2414499838835132 1.4302010731659431
Ni 6.0982245408234395 1.660241782638213 1.171760605903286 -1.795698814161701 0.2664022829534766 -0.3515284232998591
P 6.703398585844804 5.920794051261348 1.4103324474924768 0.18714211446956805 -0.9134106232990591 0.2897581840705978
Ni 5.115920095456029 0.053626454630846705 9.896272036287707 1.06280431537526 2.2361444694192585 -0.5098171038728446
P 4.280766333292178 5.231258630585339 9.89441854511061 -0.3848265232313566 -0.6893754924578838 -0.02508162555897616
Ni 2.5289786027633423 2.022094644321546 11.9848776516306 -1.0659845128754546 -0.06281127889926602 -1.82842432941918
P 3.0288248001515043 4.618698147952272 0.08266478892867721 0.2690320072668399 -0.25423607990458796 -0.9600553197407917
P 2.0017704712657443 1.913803045944766 4.391050893469283 0.9006412394485327 0.4639211126716784 -0.45428333247159824
P 1.5561434786571446 6.9013184110428325 2.55504125790903 0.16511650212809625 0.7742758899467052 -0.8892301693981137
Ni 4.150829261218497 1.277578435857563 2.397700961080879 -0.16027511487539495 -2.2654925835640722 -0.22988541897436537
Ni 6.697250867584133 1.6368162233553862 5.114232684428957 -0.31354654473944715 -1.4036341213106922 -0.5343017192777701
Ni 3.1867936323540667 8.794485310169316 4.101737436982313 0.6791910957257141 -0.2426779427533433 -0.48751201261774113
Ni 0.5713992149531483 3.649313086631168 8.349750195493458 -2.0090127019306303 0.39261825136163353 -1.6545514212546923
Ni 7.560381335683485 6.914302024981415 6.990060265350678 0.7854673877871504 1.3004367252848958 0.41728952885606846
Ni 8.730530688860542 6.567836810347553 2.6677023241003344 -1.6707989934618064 -0.5830014984763185 0.9039998715081204
Ni 1.0359822839120778 3.3524975787263993 13.218329233924887 1.2438914818999998 1.041154598315968 -0.07879145637760623
Ni 5.539406126627315 9.163825542152212 3.6785725552724045 0.7812507786026417 -0.6554505575756647 0.4542895031191853
Ni 0.9117607546810419 3.8003175633712685 4.777472606517949 1.4333802422248734 -0.09640891234905331 1.1012649333443034
Ni 3.6405778212816764 2.4603627264151333 0.34637162250511705 0.26202035183569716 0.9558993885908892 1.988043298767815
Ni 7.16342225002205 0.14082954423374483 13.282293948502447 0.368813692742868 0.48033040726763726 -0.6155408658649206
Ni 2.1820087246901716 6.701379932087568 0.37847555780427633 -1.881791946407043 -2.2205232179422336 1.5762549022356338
Ni 2.88017847802781 6.233566099547172 3.9772589881821743 0.5177088479160955 -0.5593512060472303 0.5643175489135701
Ni 6.179897436701402 5.442152894023054 11.503615914787458 0.2609356034119506 0.6352378300732158 -0.19331019095349286
Ni 5.552242929383552 3.931346543613636 0.449251393672727 0.4923251177356682 0.9433709171065754 -1.1798841258101034
Ni 2.165070384527188 4.537135360461067 2.0694146411008116 1.5175561028428444 1.0768109140669972 -0.158271711292121
Ni 2.5376771653172474 2.9389855322556344 6.54508566493362 -0.15135775778110705 -1.809833196680554 -0.3831002845688693
Ni 9.20744681470629 5.338660186169156 0.6143827764339165 -0.8080900102826728 0.06923106638268076 0.26273074763916043
Ni 1.5750087155883987 7.4552370020282135 10.193333452922904 -0.8487345232769125 0.10639456280685546 -0.4551683061797129
Ni 6.5626984189655 6.535997135176613 4.08297680301848 -0.7156776206875223 0.026951074667547134 0.05585335952419413
Ni 0.48451543967184924 1.115719107322874 10.99029795627942 -0.07323890199049322 -0.3583595872890796 0.17853611796811186
Ni 0.22857675278120684 3.707064935485892 2.6919692949719725 -2.154096710887884 -0.7271072026807027 -1.8421409076743243
Ni 0.7373417294967906 7.189306896609145 7.360931003909515 0.6722450034251842 0.18926635990142243 -1.1484696160545638
Ni 4.61796409204055 7.951807474910316 8.00530914003617 0.6639580808260437 -1.1036028374488607 -0.28027672694272376
Ni 0.8797155438548204 1.3414871786718547 7.595398555382291 -0.6880917406494537 -0.5112528078781067 -0.09047634891470226
P 7.821108819828224 4.175310025874424 12.286666388337284 0.021649717059291747 -1.440117560948707 1.6964007531903107
Ni 1.918143151522822 5.2067778659294115 6.31139804786705 -1.0017868951516231 0.43232893968769415 0.21333265682200678
P 8.721859653403326 5.0069219682642165 7.132225791343757 -0.363361154268729 0.8665180725125786 -0.9027834826025162
Ni 2.647482754011954 5.546407184885362 11.393856204587234 -0.5711970496422227 -0.24883959147936502 0.5172424498026383
P 8.877984170127688 8.819590022350207 6.2579477666550165 -0.5670436895954815 0.17411664874417754 1.3432533062297898
P 4.735009307164614 6.040023082722786 5.3306231915056905 1.2570884402062479 -1.4373592814772793 -0.7119929727470835
P 1.8301481991051538 2.036188517826607 9.446340723326747 -1.0808262058739773 -0.4639951604427235 1.185257731417191
Ni 2.4982675385566755 6.107868200363686 8.453641128679465 0.7997025575499259 0.40415350569474273 0.5877045603789427
