# total energy = -340887.89906634466 ev
CRYSTAL
PRIMVEC
9.10720029742154 0.00000000000000 0.00000000000000
0.00000000000000 9.10720029742154 0.00000000000000
0.00000000000000 0.00000000000000 13.32930820519317
PRIMCOORD
 96 1
Ni 6.690258466613353 2.044502668000838 11.300454291785822 -0.4147017135242342 -0.3181763302019746 -0.11208698520594244
Ni 4.486917121982943 0.4423011899007786 5.549817532829209 0.7534080453587605 -0.49472164299230287 0.7734497945009842
Ni 2.52613694433562 1.577011873393349 4.921513620614378 -0.2620422062125681 0.6132536124926407 0.03657934178593055
Ni 3.7811910804312996 4.470933985839092 5.170798633417981 0.6105231009353551 0.7055703570501912 -0.8712095644509769
Ni 3.4291886900632242 2.933802541604673 3.2360359049648197 -0.365928400775273 -1.0314959921802815 0.6163006268490806
Ni 4.931594380385106 4.124477880320933 2.32779032303047 1.1853101819216811 2.3818416864804783 -0.7495814725238187
Ni 5.209564341286878 4.77158087494496 11.58404794873821 0.25646239813194543 -0.4881630159381786 -0.3152241895521862
Ni 5.688721459199366 8.085945986374755 12.506863229363688 0.1678020193800594 0.8037582156765383 -0.18436069506968894
Ni 2.056014168904443 6.846237482417188 13.543376438692468 0.4282385716684044 0.5210104014855027 -0.16955036952973382
Ni 2.793342194740508 1.732726780394807 0.18481787558338922 0.22726906439744085 0.20782509674021626 0.09267669900013072
Ni 8.4506893496575 8.793748469545086 6.596407859048683 -1.6625238979372077 1.2197930461898994 0.3279022992404869
Ni 8.833191753100081 2.617473053957659 1.448162295913683 0.3856803865912196 0.02104216538227989 -0.5182374667260559
Ni 7.07538374367954 0.6622692149205246 4.8005499676856855 -0.7712533010702975 0.5534248132604662 -1.0770718810378677
Ni 0.8205359593849495 7.724390143120696 2.4186829120085176 1.2985693330588537 0.010142230640324467 -0.3666033153551106
Ni 7.880032192521499 4.216843103552235 3.678222344144565 -0.7829086259210387 -1.5595149637731334 -0.16932128423806325
Ni 7.629429367866035 3.872836834856126 12.677491176499366 0.2973689065383201 0.5338103814636483 0.07158516843715412
Ni 7.989473415906486 6.86236633376235 9.305109557667414 1.4433720633302625 1.1226333717177506 -1.416778114891818
Ni 6.8811271659312 1.0571182495142264 0.3259803875738735 1.1511667032707529 -1.1499999366561613 -1.2230272368564807
Ni 1.712217365810219 6.6031480978293455 9.1176332903801 2.214489610153644 -0.08398508476340374 -0.9659619150332139
Ni 9.35764808422027 4.993095302538624 0.9988130438694707 -0.3904749797663856 0.49877344446417327 0.2863905531499455
Ni 6.679539292116878 2.1312851775818937 6.834629445192714 0.0054504815916099686 -0.08452578775822217 0.7466095343796884
Ni 3.437376062936912 4.108257956974952 -0.274767869352953 -0.5803254943060521 0.9359661400020719 0.9253557114760773
Ni 5.967001064903925 5.666973465403631 4.666644072720513 -0.05306911191083764 0.11968279527532935 0.11040908328288726
Ni 5.582103467839787 2.86241120016214 9.120538487206247 0.11723741905863035 -0.7021649309130681 -0.34778541131765905
P 0.48020262448189727 5.946537186319747 12.342738733806542 -0.9663031004227165 -0.6917193100997119 0.3775068496414918
P 4.24229772778133 6.361178898851587 12.700297426944624 -1.3270368443709275 -0.4272245285815933 -0.5649235579286851
P 2.4156210713409605 8.993141508139654 1.3415816440744406 0.6576737904792286 -1.8779507182840816 -1.0715355246006708
P 6.396897337573058 7.9859853582750935 5.861643510035691 0.49787047303392956 -0.7720076627378188 -0.2819965378473079
P 4.85060405005618 1.0977363618797957 12.421221851952902 0.921140130732833 0.37168278676054695 0.3624586970591177
P 4.059689258937826 6.375704882982322 8.334403154690907 -0.19119854392712876 -1.307115165746336 -0.4493061909719811
P 4.978860748810511 1.2279055726513386 3.4988232526099465 -0.005741787579783659 0.22985636550864286 0.5286442638816767
P 0.31747790557734984 5.889016110602048 3.2738781427454056 -0.4959069215496556 -0.9657953075483624 0.4931846375224861
Ni 0.5858616276728446 9.313387091821912 4.46605161587515 0.40403883449374933 -0.23876446663155007 0.2923372576516836
Ni 2.0453132088081327 6.155957252204559 4.715588898121024 0.7048226802508893 1.1239893715250127 -0.6005343651537594
Ni 5.909625704387539 5.811176871501484 9.438056464463955 0.26274437448591526 -0.7139084446022415 -0.43274211596571277
Ni 8.877944534302863 2.485737404772018 10.093045383638957 0.4290867786013126 -0.3103228955958268 0.11147403421229188
Ni 2.423644514613173 5.248916552841054 7.116064695725674 1.631280880762526 1.519752082052899 -0.1831257942213233
Ni 0.5674778335873876 8.815004674536395 8.699705700058686 -0.4211852643660488 0.1893020982353643 1.5070883705423013
Ni 1.843989443796188 1.3480386489325549 11.329138329163984 -0.8735060737946375 1.0393694813910876 -1.3011409504407718
Ni 4.392047418729101 7.099791039899209 1.3829419932466902 -0.8132404441353607 0.11340107603167567 -0.31819098548999397
Ni 5.8987699218898335 8.123003183508274 8.17245163707332 -1.1407578492326031 -0.32527283203743984 -0.7388445457222889
Ni 5.643167244389371 2.9234294407113137 4.825329748388708 -0.45886812362880325 0.15343572335605835 -0.7628157118259057
Ni 0.9888415704997258 7.31698865465402 6.8409871815699335 0.712943766696127 0.9610133127786868 -1.1758814324086138
Ni 5.312047663809244 4.752355575571929 7.3807572696279475 -0.5151349165413321 -0.5584466919550898 -0.9024448683161749
Ni 0.7306788590562218 7.500416771504902 10.86962362038828 0.4765945943742889 0.34394469741533024 1.6759553408517656
Ni 4.623261014410058 0.3217209500955379 10.022466404443735 1.007357447260865 0.7594858761217242 0.4237579101892315
Ni 8.180478723225564 7.482703267345478 4.4606127959862 -0.3274276735969135 -0.3959100347390278 0.616641555128267
Ni 7.024019135217249 6.204862916644718 7.182324129922018 1.7661987478200547 0.41143846939193013 -1.424088532510302
Ni 2.32080601128761 5.5417858930769235 2.187778961130346 0.5555989380936496 -0.6363176934009558 0.4342726936776263
Ni 2.4565306141091523 5.5047286959434025 11.292496420354201 0.27088474420486247 -0.24259412479028541 0.5065425468866308
Ni 1.12999406457012 3.735108648016551 3.666306483557321 0.5374256096187325 -0.4248562854597328 0.28562693551104357
Ni 1.722945647506775 1.4219162559974643 2.5696374855271316 -1.1977134406820404 0.5162798287790528 0.17615039134475471
Ni 1.4398665473590198 3.3892991537042123 8.018365097446516 -2.1650259562058776 -0.8498516676004912 1.083465186158721
Ni 3.888783542199649 2.9727449291551604 7.1258749716539675 -0.5162384340181561 -1.1223310099859831 -0.3653876977804546
Ni 4.395417082759428 7.015440152740037 5.9852855905084885 -0.7747080923881174 -0.01288148394835846 0.29982739538114167
Ni 0.9679587607117774 0.011807484906269174 12.981079691231708 0.38316276237568847 0.026904794810643992 0.7140483126142155
P 0.38458339866130964 5.645425830009699 7.7559110733243894 -2.202825543552154 -2.3919535781034997 1.741731615916626
P 8.848400777236964 1.6201435729815408 7.811520547744883 -0.06785038398507025 0.0659516243004606 0.3789471816324442
P 1.9365550254292923 3.3625057710630677 10.262780825166601 -0.073088492455558 0.12580433479203496 0.8534985203244592
P 3.999791203998735 6.157669405819969 3.421486730953905 0.8895322740195647 -0.4453168673069299 1.100746084726356
P 7.006997778264055 4.067384843007088 10.278389655387084 0.4405680397680348 0.19298083263853216 1.9678094882194432
P 6.3797211582184685 8.014135713728452 10.379731845739178 0.8474446008208953 -0.01395157708408565 -0.422781148098259
P 2.3433554386905584 8.309800964389483 5.539073768892513 1.4455461881634462 0.8579107904595419 -0.6909734330726229
P 6.951097784160946 4.34757696072886 1.5434008407708444 0.8460636613129687 -0.9804063725933179 -0.7891546068307506
Ni 5.490330212613814 2.966042029894833 0.08180815689628597 -0.5219794502669913 0.4848876876210165 0.44066548457784754
Ni 1.8469674982229909 0.805957153493738 7.068705433859433 -0.9315466707781375 0.6509686105449112 -1.5396156537460453
Ni 7.10364338553388 0.8650173460252889 8.950283935273928 0.3145027380051293 0.20562089000004588 0.29236759666898676
Ni 2.8181775293640303 1.6390865491520303 9.004081076878112 0.5744613222157913 0.4537058627015735 0.6917987571873957
Ni 6.667800111211224 2.1808829892282815 2.3549024576744837 -0.6194263169622558 0.576584282096065 1.4953502561697667
Ni 4.307787603570749 7.0657483259928195 10.501414967474346 -1.0834479597675404 0.3801052064962873 0.5164932303414396
Ni 8.42975189666906 7.729790712769302 0.14980160198823742 -0.9018730549731049 -1.3560874818799806 -0.0221924769366392
Ni 7.862519046763878 3.915759068842432 8.374244422889484 0.46756462296153667 0.5737835794224763 -1.9336564964868184
Ni 3.293281943240043 8.736637217831076 12.215204236018712 -0.1533521625033165 -1.1704628324962036 0.1191994278810076
Ni 0.30436353745931854 5.045907955813946 10.28232123366247 -0.832899613127185 -1.219750622987738 -0.14567844800814267
Ni 8.935793469223512 2.5488867301403717 5.717126816255018 0.6136670458809753 0.3017204986387965 0.3705918676892133
Ni 4.002295684021275 2.603921540235693 11.18018369678337 -0.08631219023468362 0.1061503080065333 0.07081615148161352
Ni 0.9226595475040775 3.302762538525369 12.455784586983972 0.8163134266337295 1.428382531899966 0.0011238291917980644
Ni 3.2911417512207803 8.347623166329889 8.140288649263846 0.3283653549198345 0.11690626097145673 -0.9154919313081201
Ni 5.453309444280621 7.986149287876569 3.2251855867871653 2.7805506241208824 -0.10946780241554052 1.48870678271132
Ni 3.3618045166567563 8.667959822012968 3.3598255220789452 -2.4735066563866432 0.34982892411024913 0.733674057264943
Ni 3.7791055316125295 4.240622002966249 9.504436113701384 -0.8089153343974455 1.6286419004777823 -1.065687807570642
Ni 7.329092123562953 6.171894852348001 11.419044608373154 0.8758627469522723 0.006241352924021509 0.39959211157630536
Ni 8.146845833322862 9.08330278895112 2.357234811615475 -0.38387161551725496 1.4835692043744386 0.6079252583011918
Ni 4.685062474166281 0.6602164520220494 1.374691780692437 -0.07008158730843414 -0.6176957074243943 0.28254392571034564
Ni 6.366971078103717 6.042973327987687 0.21056484093511588 0.012705106271494246 -0.8416945857109956 1.1586653256406432
Ni 8.25313596547949 -0.009002467281023586 10.948613098859196 -0.6999686945926977 0.7445020011183824 0.662069348443763
Ni 8.996811709772686 5.278569596307936 5.469601314507251 0.05378130748651382 0.01167126569034119 1.4076342436090208
Ni 7.245442490810094 6.214216011128897 2.675032379915702 0.0535967022795335 1.1090926569188384 -1.739424050829372
P 8.587315565287158 1.9230854765080643 3.6171612997550064 0.30954565111017013 0.3570174714388884 -1.0936542108765808
P 2.2490048458413887 3.43792249494183 1.4434438555512161 -1.2618920322424783 0.06600124659147343 0.0006067803460634711
P 4.764996369285699 1.1167157668506134 7.811520547744883 0.7197499909846831 -0.5013080379605689 0.5386705377694271
P 8.739032411452634 1.610635656095968 12.466102133956833 -1.0549650218364994 0.4351563818341603 -0.19820968513763929
P 6.5788956240110705 8.160105916642205 1.2760334822044972 -0.8413541716524413 -1.0948634006933338 0.159875308333815
P 2.059775442538295 3.4687503672192856 5.97431596800976 -0.6693651107742279 -0.9518635279586187 -1.96632339059222
P 7.121502604894616 4.179376082415026 6.01427745124942 -0.5024061561207541 -0.06609432052591198 -0.2771690345516775
P 2.423535228212189 8.843810748395654 10.07054513511645 -0.43684611083175734 -1.17463444737539 0.5024267249460443
