# total energy = -340876.0557108443 ev
CRYSTAL
PRIMVEC
9.13882662550955 0.00000000000000 0.00000000000000
0.00000000000000 9.13882662550955 0.00000000000000
0.00000000000000 0.00000000000000 13.37559653318423
PRIMCOORD
 96 1
Ni 0.9781742792096327 5.974343232552638 9.567871408257362 -0.31216097724583014 1.2800087964478473 0.5794577469891181
Ni 1.7620296935728654 4.769855057417865 12.636835520436202 0.6663165537558912 1.0964428293653117 0.5984036919640017
Ni 7.384610360786521 0.6629980913115607 1.2561746353667147 0.05233120530354858 -0.7267390207080064 0.28296867195259007
Ni 1.2683411548968848 8.540214953733296 9.155006649889973 -0.43187976796541744 0.06988798324038932 -0.3962247377659692
Ni 6.365887109027225 4.010555669478104 2.696788150404386 0.39588792325184075 -0.32040881907691915 0.1775215606606685
Ni 8.277172114676064 0.3153352034766981 3.5689164024404714 0.1598763367750795 -1.429916709156305 -0.10825784126783937
Ni 3.279732864469321 3.727763826661615 4.6050308407587055 -0.8028372465241657 -0.012967615904261539 -1.0544410310122294
Ni 0.25673065169188364 9.107854875296784 6.275601901790381 -2.821978809358682 -1.1938696414559182 -1.5672169604030817
Ni 0.4575472220786961 1.1373086625784123 1.7997931518486636 0.04756900802821484 1.1327660892763782 -0.498834636719412
Ni 2.0816692842640983 2.9456722057854425 10.307689560050152 0.0830376332484699 -0.6247796108543692 0.6376937478128759
Ni 5.291800847192236 0.7503287159869216 9.801583184119162 -1.0752001179364516 0.21558031520560292 0.027632417005287898
Ni 5.365112512234695 7.476903368174179 5.222234273191212 0.15327914317353603 1.479881728220522 -0.884134242932445
Ni 5.712579829185501 3.2765525528967983 4.960634454815881 0.3906153619989918 -0.5769889737336514 -1.0275745456386882
Ni 1.6219406243337897 1.7205942548664939 5.536346701701234 0.35146337438987857 0.7205701728931332 -0.8305401117560728
Ni 7.981732136180347 5.488504945718028 8.261570310317987 0.22206592292994662 1.2693844839647814 1.109474208627973
Ni 5.878038280393895 0.5529821579681747 3.8030695836153523 0.4790289148473944 0.7195854403823607 0.7461634479812053
Ni 5.650097673377062 1.928210112063527 7.0132130270177555 0.9898577478142049 0.627274866472397 -0.4119004966300132
Ni 3.0651806380666997 7.325390765987825 4.599118933987829 -0.5691635641519617 -1.5182783257208496 0.5010180175239759
Ni 6.0608696405085105 2.9821087064740848 0.5744172751904496 -0.10937472848110195 0.9360772116586396 -0.8157979204498917
Ni 4.55901319451652 4.612639827584228 6.458058570024325 0.34281675445847415 1.9653563986932605 0.0037214147156452034
Ni 3.980269598928277 3.453589897100554 1.8341021337612042 0.19977394430096562 0.613166452095473 -0.5295719179022685
Ni 5.821925886556858 0.7918838733185807 12.668093962110502 -2.6258627735252777 -0.5861996936986421 0.18219608331820236
Ni 5.916841737109213 6.039731535142865 10.127011307425441 0.35805234046130596 -0.8989489393477744 -1.6353964455927965
Ni 2.6474083299451587 3.692890065280161 6.958654233661549 -1.1438454870189914 -1.210322901915935 -0.7007045443174578
P 2.8394424882021028 0.8845689363569902 9.76379687877747 0.4876770774406956 0.1641407684783883 0.6139889479967684
P 0.28321405659422016 3.358820267769925 6.311756926627202 0.021367667042498685 0.08828036970464796 -0.4903065446437426
P 6.4235622421714496 8.095894355042278 2.4856538450595913 0.30254453720198865 0.6915259631419832 -0.6488633912764502
P 1.3062124513237052 2.5562668146785854 13.06976274430692 -1.5881058880369487 0.015106259513819146 -1.323633218006017
P 7.849950260100533 2.353850949679154 2.8221436037893786 -0.4655828166448175 -0.13754450604709859 -0.6627329501696908
P 3.968480512926685 8.835435600396425 0.40933625751063424 1.1806752542528312 -0.48661341206287156 -0.3218355242211167
P 6.814027737135814 0.24792082308294183 5.7695229423384635 0.2093266209864072 -1.0912371167946562 1.2949350787403762
P 4.479916652389559 2.298981436226782 3.4889845715844046 0.16975400090010764 -1.2930576592120053 0.2098382705155031
Ni 4.999203043693802 5.554249662536209 1.3168418202604897 0.20066585998761569 0.2895892625929013 -0.3922855506125631
Ni 1.2428438293585575 8.826963908362723 0.13138707878115613 -0.39149313661825474 0.1797771894640646 -0.35640734865871526
Ni 2.9231541376397656 1.4814585855613278 0.4885927290988581 0.050095373994494374 0.27420918059240523 -0.4222802972024405
Ni 7.842401589528971 7.069658988016851 5.740711878362789 -0.496829433363925 1.8137286750802186 1.7552021395992352
Ni 6.0242777797717855 7.618354122540571 0.25554717367854546 0.673302498155421 0.4740967676530996 2.3521798977499877
Ni 6.662103887763357 4.614668647035665 12.031830593426116 1.1773528747478175 -0.6611776898674291 -0.04168015334760564
Ni 3.813540850856146 0.48627877826505717 4.887522930070657 -0.17859499623050532 0.6705285349547098 0.6247716404345691
Ni 7.935169815887236 8.183873836389044 8.107871700866841 -0.5997152116865736 0.3271700490601527 -0.5155969437794152
Ni 2.949428263418508 8.927171139376256 11.749926130648973 0.43706491171078277 -0.722559178298704 0.3981929172359336
Ni 8.061175953708906 1.3968970252723873 7.5071866970761 -0.13279902094231322 1.3250383258836598 0.7000016047131622
Ni 2.533099889861503 1.2659285047384197 2.7969579122298533 1.141089778650725 0.29594760071076126 1.8160614369784531
Ni 1.7274940687666507 3.2468879225393037 1.6497062065741288 -1.1961571519385141 1.3743204599482397 -0.017144115879454348
Ni 8.284958394732929 7.627959029042644 10.403538484773641 -0.15448319078396622 -0.018965485358909275 0.4105061873856478
Ni 7.986447770580984 1.954301461315113 5.160425648885345 -0.14185187517320086 1.468355729858794 0.2813815299711283
Ni 7.26469982014552 3.9646878999881885 6.611102839508252 0.20753507630362325 -0.8123888947683428 0.7085574647029732
Ni 3.870494016718102 1.8606467688001382 11.565088798148814 0.5659442858837156 0.6894814219081287 -0.04303589604455169
Ni 2.2671691816751984 8.799903843517207 6.848332149635176 3.1304579668775507 -0.8713710297295059 0.5095232267815096
Ni 8.44971315631177 3.7590368904580873 0.39573859777282877 0.7814886056450606 0.004831874171004581 0.9548604058034137
Ni 0.6158591110752716 0.5469441353935608 11.280696746837071 -0.6403049601834779 1.0546222937850998 0.08099720577967341
Ni 7.676367392260034 1.8781658989280858 12.662797098353508 2.9959170235434662 0.6288144430453751 -1.8380448832280796
Ni 8.5734528651967 5.0904542248766695 4.874000208708986 1.526884579332622 -1.6882596121404148 0.3306811475372047
Ni 0.7600213552220292 4.060481077870894 8.432082532502257 -1.3505850640045125 -1.3350556009103458 -1.0588970099010537
Ni 5.202176377101062 1.1538956324178617 1.6009386874808758 -2.0992152283586556 -0.14728615881489474 0.6047358048296165
Ni 8.679691721606398 7.675179344833517 1.4551844597825854 -1.502185019703413 1.1727310597050902 1.1770805949230372
P 1.7397218184334184 8.88256452792372 4.357073462370332 -1.2512934307910257 1.8861759344073517 0.411912066594239
P 6.0291579130468635 8.01325194828848 9.162430118540435 0.5207916006064773 -0.40086635030303863 0.10293797171682272
P 1.7939973081725318 5.339752269091735 4.280364895570669 -0.48093795894464914 0.07297304992361626 -0.5941109781259187
P 3.9200081779247893 4.299973161404015 13.051571910441673 0.12653838474458207 -0.35286308295088264 1.3410547559165744
P 3.453142094609021 7.003804605282376 7.450420877154479 2.0504498860294946 0.8027788824824046 0.7467751134232752
P 3.5474365049690433 1.6727981930150773 6.8299676780691305 0.1350137692054449 -0.5082258481263247 -0.4502101908434892
P 0.40570083238549204 6.9273857392782565 7.512229501460347 0.15893762701089403 0.5010218741787178 -0.06187076936286764
P 1.0484792703803685 6.302061545744187 1.053414236613593 1.3013204134414298 -0.4326390147289452 -0.9638476969036884
Ni 1.791813128673012 8.163640474832823 2.295720702982311 -0.3328123349475946 0.03191921730609987 0.08589335752971014
Ni 4.535800575567649 4.0626104244122665 11.02512946774054 -0.11758708908856523 0.473561721085236 -1.1021853882760437
Ni 5.023219879362162 8.788334089348202 7.266827338921621 -0.7373317086221882 -0.13267689354215215 0.09604844368584102
Ni 9.05299450067077 5.0742328080915335 2.4429590760811117 0.5639303407774804 0.16366922815860843 -0.15875559290707497
Ni 4.8387161140240655 6.144096932149208 12.312691402233197 -0.44134168470926577 -0.4571614253503417 -1.3769442707243318
Ni 3.064495226089863 6.960175848250127 0.10240694651786221 -1.4261739542844212 -0.3934662011842256 0.11767707769921024
Ni 2.0237839581136448 5.885358480306511 6.486709704538738 -0.8318146075931223 -0.3391840428018933 -1.0031747766380854
Ni 4.177988107179788 8.180090362276905 2.5743470687449035 1.005641750121339 -0.10177223354349568 -0.04684781359147415
Ni 7.169866219030385 3.4949065310642737 9.459462080587683 0.21528026746668086 -0.31607033960256536 0.4469420616151787
Ni 6.060741696939501 6.522718508153833 7.278196952793389 -0.8969218816154165 -0.10479739352306468 1.5984563780333374
Ni 4.190709353469877 2.5833542960031743 8.839717140545066 -0.3233568459616496 0.8952861457842065 -0.0019111009797838055
Ni 0.13081681601642794 3.5835622855615195 11.47651529308879 -1.1709017198058351 -0.8280201735476966 -1.1304446402320532
Ni 0.5054200500715184 3.063800675286669 3.651497579057671 1.1716763931883305 0.12122699983399765 1.0068020889780274
Ni 6.027156510074499 8.00447867498497 11.441832533178216 -0.32413743288141594 0.4588277573091711 -2.2079009011925326
Ni 4.622829618973202 5.680411160405963 3.763371435799603 1.141517353106447 -1.0503231521891139 0.6582918836792018
Ni 2.9145727796897694 6.115163407900339 2.3471494483109625 -1.5596805428167204 -1.5032062618790756 0.48088088045446864
Ni 7.588241689691543 0.9712013546986135 9.869986385524834 0.2992879779379039 -0.6023814456648271 0.9486200813206567
Ni 3.7220703378406914 7.967969063685465 9.685268771649964 0.337183981652729 -1.417618351404926 -0.832623733757979
Ni 8.349231760507502 6.36339220943154 12.92925237517275 0.0610421028139852 0.036230700197260185 -1.3634750325933034
Ni 0.1962316212030924 7.32276792282313 4.15602476579403 1.9706626413975223 -0.22846051360238073 -1.0951842743678621
Ni 7.187431043290122 6.324278032620056 3.320451819189239 -0.5978681311755059 0.08060022745157086 -0.03238690097113777
Ni 1.1756643168021974 7.2967953783141954 11.705826724059296 0.5335879810401971 -1.0187626037740132 -0.5290669532413921
Ni 2.8688512314215786 4.704777474923805 9.03647241649846 1.9047706666904034 1.7477081452150354 0.5407528742197526
Ni 1.7300255236677677 1.8781658989280858 8.044123817607844 -0.5628476492362628 -1.9767556416691376 0.1773400407774817
P 8.395583887794382 5.48773728430397 10.83456757440984 -0.8939679411934153 -0.2279504067351816 -0.261104267779331
P 6.11717394969906 2.404936989019387 11.141591015314098 -0.44609539734416725 0.19091572257938733 0.285307861608728
P 2.94291228022538 6.165472647000157 10.879495872550171 0.09377815959442559 -0.018875496748264265 -0.1107160730003448
P 7.146370296464421 5.4093992647647084 1.0266959638738604 -0.6490415687255274 -0.33556932886744145 0.5486649299779777
P 7.8614012095268855 8.740300418011483 12.354971268495031 0.8454329697075053 0.08985697016314848 0.7541901749404237
P 5.737830406412167 4.54352288384001 8.171619584125839 0.008227015895482604 -0.5798961200781174 1.8229597067601833
P 6.357625609999753 5.544343174764329 5.277849514874383 -0.20196426708406506 -1.225872933835392 -1.026450202226258
P 9.233321822363342 2.1916367818277878 9.39202302536276 -0.5199061126777305 0.23732002087553966 1.1012957865822386
