# total energy = -340886.031068653 ev
CRYSTAL
PRIMVEC
9.11258621239771 0.00000000000000 0.00000000000000
0.00000000000000 9.11258621239771 0.00000000000000
0.00000000000000 0.00000000000000 13.33719103617863
PRIMCOORD
 96 1
Ni 6.598915636708531 2.183503193207906 11.821832602747756 -0.11608350795984525 0.17058755254499652 -1.058257833655158
Ni 5.368370242013692 0.6134829854476724 6.4273520679318965 -1.5613281057224724 1.2205749186612462 -0.5897953814697005
Ni 2.8559847057621135 1.771714542303234 5.115853192566058 0.9534285584528934 0.5413691676475128 -0.27825892518174655
Ni 3.390465215211575 4.665489142404715 4.92682535262921 0.10287240858620993 -0.8233932162986465 0.9409512519214892
Ni 3.7940889890176037 2.8569233021250158 2.9839026324051976 0.12118689062468163 0.9295823479629152 -0.5479995284798368
Ni 5.285928676041119 4.745096694116486 2.8578801236600127 0.20154929103383354 0.8548198102390439 0.10502416482189007
Ni 5.533827466879835 3.4514830913862564 0.7440818349059585 0.5794772873731439 -0.8843959812342641 -1.9141523650156196
Ni 5.6936531135685655 8.340267042301187 12.795393958314431 -0.33873050020424245 0.39796794570932104 -0.9237408015804737
Ni 2.352678353181467 5.672402562905579 11.56123724576893 0.3696181909220344 -0.5983784951530211 0.7456692819536062
Ni 0.9925519848898576 7.834454728557451 11.798132588955177 0.27269917170578195 -0.9894625692583153 0.3713392873781992
Ni 0.8159582686149516 0.43670883996902404 4.634913682439227 -0.4470618750224946 -0.9649069914061381 0.7481313703408535
Ni 8.728280956207689 2.492492760909683 1.256193679384394 0.850746925721251 2.2287618038019423 1.929074790653407
Ni 1.830909901268397 1.5263581629717975 2.835086812179169 -0.5836100785945949 -1.0721952696718566 -1.4329310705025968
Ni 2.261406691328777 6.637735253271277 0.8160184116828657 -0.3380432443292307 0.31660770016327405 -3.15067995035138
Ni 7.610212211098287 4.373804375607317 4.1014929667471005 0.43287118534440927 -1.1539272967350254 -0.23635200053531555
Ni 7.6703188286682105 4.1367222244070945 12.656794258306359 0.5753514381302285 0.1982215122121812 0.9736286875498522
Ni 8.422581032069091 0.15520192052818188 6.793164988450648 -0.779750025687399 0.20252888133828345 -0.61097304398858
Ni 6.916653287015998 1.3366523466330102 0.666357854730225 -0.5004413190848994 -2.106003454925083 -0.5424503165268335
Ni 2.0097990779686916 6.7826618217721935 9.532610653767307 -0.6807057325980277 0.3309071475050817 -1.0845481348102548
Ni 0.31421290202425756 5.008742033645442 1.1531285086689098 -1.298551335336725 1.5531496836767382 2.839756702167393
Ni 6.73084765750558 2.703275988776553 7.37386635685071 -0.01016177102435024 -1.2923945717067098 1.022751413218432
Ni 3.694953165405842 4.646653427044341 0.8815670656404104 -1.0594963340479495 0.5961303225487926 -0.5694530703679225
Ni 5.97093088182472 5.81291863975946 5.179991218203435 1.4786581402260663 0.6415604298571338 0.38733823390961675
Ni 5.0081861658965385 3.103509880572877 9.800287401363718 1.4148194485035506 -1.1656502415989087 0.04791687828593683
P 0.15356712259124375 5.867266102947304 12.554498189853291 0.20218358218372276 1.978260251239122 0.28666874651199664
P 3.992952954334222 6.592217885963551 12.746500377876071 -0.13044209067436244 0.09938393581697723 -0.15146265879008752
P 2.4197743242498926 8.721656106151087 1.7200707833957114 1.3278156315184808 0.8895793252074163 0.14899928485125952
P 6.722819469197652 8.10951813840404 5.984650791377976 -0.3317131883461448 0.09698226835402007 -1.0444605227607497
P 4.880619073816287 1.3653934430271177 12.903278775790488 -0.44767174069235155 0.4781516544487637 0.1464862886214187
P 3.9041143529562397 6.416827942305532 8.189448275661896 0.40497008805876705 1.329979471939019 -0.6653950703828863
P 4.7722066376080745 1.2901143696879536 4.029872596706045 1.0844072383570165 -0.14065194132782874 0.1504560719024441
P 0.35421715477319005 5.856823079336762 3.643734053008137 0.11758014711002975 -0.24296976296214928 -1.4891011899362612
Ni 0.6371046310002425 7.644976726869854 2.0271995610265705 -1.1868536151494011 -0.6114664386852308 1.5423770185412662
Ni 1.8218975536673279 7.0157435476975225 4.704827265113569 0.43606192436756513 0.4073740695145694 1.363568106527742
Ni 6.095964674983741 5.906067494337954 9.66615560229478 -1.5868241931110478 2.136026226539418 -0.9096066761719366
Ni 8.813255821101492 2.3716689825046506 10.395700128679014 0.8317004506127613 1.3045209226565986 -0.30480299421886214
Ni 2.05087861587124 5.69136585447062 6.924189395677357 1.091327362515617 -0.34866267171628984 0.9095668240729368
Ni 0.601858970685363 9.138830295409887 9.163077064365321 0.20394041697382942 0.7462218120229664 0.7379742273021935
Ni 1.5101104220489394 1.0910681526503836 11.41627513818243 -0.10116288209427093 1.9603196076003016 1.022708990016271
Ni 4.216065511123485 7.177956691930722 1.9446686917107316 0.7460120100050055 0.40991920453392633 0.7371895266173691
Ni 6.105879168603522 8.172449657648718 8.033536484680607 -1.4561530171450148 0.01470619586192306 2.1712441692014477
Ni 6.895366286008821 1.4201418600010556 4.936147528155898 1.2912429746007699 -0.7643568310607805 -0.8004114106914925
Ni 1.1417796940052376 7.942967403212187 7.238640136197457 -0.9778283274534966 -1.6669626504348518 -0.20636085348986394
Ni 5.23656579742131 4.756706128741119 7.284893800457828 -0.8965570420768302 1.1445114027377643 1.1013770334421353
Ni 8.335464709454104 7.343413916796864 9.961934654003361 0.6534471539923908 -1.2845583634917426 -1.3330439697969558
Ni 4.7941224070525355 0.786428933527727 10.673593907751986 -0.06372993405879346 -0.5225648904568162 -0.16026071669769174
Ni 8.494998753389313 7.4767219380871 4.842080124903807 -0.8452352518744024 1.4447252349240471 -0.43440253438727117
Ni 7.881430109632793 6.8725665957177435 7.281905783492824 0.06120871029883651 -1.7643362406900196 0.1575273769269287
Ni 2.439639761833645 5.622310677401961 2.835806706476929 -0.3017464667807255 -0.9284317792982398 0.36079390776218506
Ni 3.7402973935786634 4.853345103775841 9.53327769506599 -1.5884074784377678 0.48150720118455775 0.11431767430867408
Ni 1.3856142714667263 3.5227435142784325 3.92701610421105 -1.2485222958037916 0.8713823425834154 0.44488389353456925
Ni 0.7268453783969366 0.5519283779547877 0.5773351791140813 0.5027658534530179 -1.935391219789738 0.32530317105474293
Ni 1.5063104736670934 3.6915632833961376 8.381544323320968 -1.9367245938891804 0.5286758884505605 0.5805864612769227
Ni 5.432304145723603 3.118545647551405 5.371206990050307 -1.152466138808467 0.7913274461123533 -0.6997761189659174
Ni 4.398052967079961 7.55372329018926 6.132320248279217 -0.6793595029827784 -1.0833816253059794 0.18966488089142172
Ni 8.037911437242057 7.770630175880112 0.1628911206351407 1.2576795368230276 0.11672782641206347 1.0242603936637908
P 0.2988636620856922 5.920027976162866 8.362392401224742 1.7646702269906704 0.0874679011056816 0.8657403138062896
P 8.72350596111875 1.7669395472142955 8.109905423311064 -0.10436930484671057 0.9756025234467713 1.2053853554050016
P 2.0062633945822257 3.519262506408252 10.46235960687576 0.10143927568410917 -0.09411985920456048 1.3949383933089075
P 4.372492163216463 6.317491641800722 4.036674230931967 -2.1847671433885467 2.068951801488424 -1.0090687735250172
P 6.764327298644437 4.157991000242176 10.658856122337212 0.7435368089916355 -1.109855760337108 1.3274286804927076
P 6.395386027335546 8.213629433997788 10.379708451424092 -0.2664290224263541 -0.3441817531268008 0.35802123011305437
P 2.548243562348856 8.934407652604238 6.09613690286004 1.3121933516001916 -0.7372265505028917 -1.977974344567587
P 7.258566628107729 4.573114857640267 1.6979445132135513 -0.7990083596963788 -1.8257994902018233 -0.7060372693842808
Ni 2.8229333561674945 1.8879546899263282 0.6045626749656838 0.3581045338554801 -0.32073200674429275 0.06959719147284787
Ni 1.61693726828487 1.4155308914609737 7.115644828537282 -1.2005488532483066 0.7136613615884418 0.9173037877058782
Ni 7.0606230339819165 1.1041993891449648 9.575956491819891 -1.1255513166954938 -0.3923318304694663 -1.5599713345842618
Ni 2.7689959593517925 1.6902935859679922 9.270814257947407 0.29774454471018397 0.44113213980162086 0.9945608097168291
Ni 6.391403827232748 2.591956637619159 2.6411901175170933 1.1012379367611098 -0.9271572834611903 1.8446479903668944
Ni 4.2553680947467525 7.378442697563812 10.486899801101927 0.6006978873148171 -0.4076918578653043 0.09911242732314543
Ni 7.084242857017277 6.479112467940828 11.892132559070516 0.10699311562280284 -0.6548908284174528 -1.4663579827024746
Ni 7.716100460971315 4.628464705293346 8.86543084377559 1.2388960855679374 -0.9845749021487107 -2.42463589882787
Ni 3.2917941334882403 8.819634631334807 12.459229747760126 -0.12566086723563522 -0.3677253447746957 1.315766927884063
Ni 0.06799173827690431 4.900885465186133 10.719420191726725 0.5579221869101875 -0.3009283417548043 -1.3964239767154982
Ni 8.747982367242583 2.8137114190873302 6.051830598238039 0.457855880314205 0.15525786416646165 -0.4975873945758721
Ni 3.544030515285609 2.955166092304114 11.988307703475416 -0.004606388423759809 0.015343058114973574 -0.8623127761819793
Ni 1.2457178504640813 3.8393694290880926 12.85643826098865 0.6980683922461913 -1.8923550666348699 -1.714554798391518
Ni 3.1990917956260785 8.658232507259843 8.240876977538695 1.6665037085205623 -0.5535916778556338 -0.6128139538520607
Ni 6.068909407008438 8.24542324671784 3.9283766133079556 -1.4855142439159512 -0.3709338244096644 -0.002728968895388848
Ni 3.4204456233081557 8.550148124149343 3.9151187118673128 0.449224172781136 0.6853419458184584 -0.2340259235053002
Ni 3.6044105104369595 3.1327886195437933 7.475815235775365 0.3267206202275599 -0.24928104989215774 -0.9378093638583976
Ni 4.992539855652822 4.856160892864548 11.662612943031192 -0.35141452342981416 0.41073141602257646 0.9086286285293836
Ni 7.897349797457937 -0.05294412493651429 2.734257870079764 0.8644298225249822 0.40608697527202964 -0.46034290840211683
Ni 4.758583321466923 0.5630183951747081 1.6649478391352177 -0.5863781282580353 -0.09994520763708595 0.6840268265514606
Ni 5.773707181996668 6.0608265431842225 0.4822745039828024 1.092564577356828 -0.5346141083118664 0.9777499088070775
Ni 8.197846434963358 0.04138389827653804 11.463955833417854 -0.9427086009322281 0.3882831143213894 0.410136462751055
Ni 9.195601706486391 5.445335143771661 5.666011906310402 -0.33309078541996184 -1.870105254097734 1.615293247085018
Ni 7.5494494873329385 6.386729070590333 2.689071289645565 -0.27972908196936985 1.2026486732001287 -0.24536808799099677
P 8.562586804104308 1.7767355772154578 3.614338672935812 0.5628471350156307 1.8116118858475316 -0.18968005040007332
P 1.9346111304900033 3.6211412184203398 1.685433843828811 0.32693016513520473 -0.8247173344267087 0.3464841760077323
P 4.985997018870649 1.5974181089709263 8.256561560643812 -0.45416763282934036 -0.8260882466323063 1.2073247385195593
P 8.857415413088127 1.7854563220630042 12.56039312176748 -1.4859405328200925 1.3694765015923769 -0.49122160025884437
P 6.366781619732151 8.10751336947357 1.5050884758781111 0.07803529493787205 -0.23025180117484864 0.7384000019857024
P 1.7435839891743152 3.4938839542657063 6.212610332685953 0.8176462865125401 0.6118335922166624 -1.2184864115633338
P 7.180171050340287 4.59259756661002 6.544946345841663 1.7288493606373194 0.05698181670168251 -1.19368555046957
P 2.637264415447791 8.833713576778337 10.364144154454804 -0.4434864989664104 -0.5499221994238465 -0.5683186996531632
