# total energy = -340887.35619964474 ev
CRYSTAL
PRIMVEC
9.11873020542853 0.00000000000000 0.00000000000000

0.00000000000000 9.11873020542853 0.00000000000000

0.00000000000000 0.00000000000000 13.34618339102157

PRIMCOORD
 96 1
Ni 6.710409814436349 2.185048397735631 11.610004835513585 -0.7883241405096553 -0.7498635225406118 0.45360841789176076
Ni 4.188050463279752 1.0389790144043538 6.285692183366189 0.3323719049760663 -0.6799837668303386 -1.0758436650577212
Ni 2.3258689501316185 2.0296014018996926 4.748878822533472 1.4070238637185315 -0.20978607712132905 1.432077721363366
Ni 3.529732846257416 4.742888728583531 4.7974324140174875 -0.23873567027614367 0.6263055605805923 0.24703004907445197
Ni 3.9283399049173786 3.1476580456751533 3.033293665568648 -0.40608568972044906 -0.29149393581478183 -0.5558431928939717
Ni 5.542200153878014 5.171724378268082 3.001129168096242 -1.7256167126326345 -1.1706034718391258 -0.18920362498428706
Ni 5.464563283898124 3.6017981720092442 0.9455621815985068 -0.2752589620131582 -0.8472805644392053 -0.8947156179927171
Ni 6.011203810640484 8.658517123429032 12.471061007579014 -0.11110970889433767 0.28419457393989117 2.230330690950959
Ni 2.7807385748916427 5.399501143035249 11.595377480200602 -1.3202334482958489 0.873986612975482 0.07918097850654106
Ni 0.8356012363655382 7.443400714083223 11.64565268796982 1.1542386573278574 2.486801059502704 -0.7445624220426726
Ni 0.4510014593565158 0.48335836203876165 4.8262065675553725 0.8920902645547281 0.09467881703182404 0.202050141929652
Ni 8.815879052633044 2.7999882146059427 1.6214415613521407 0.09720749699094872 0.17152857630202717 -0.1788449074577823
Ni 1.5313448582573197 1.4710244571630078 2.629825411772876 0.08559690933521388 -0.6075583618800763 -0.3897170185544385
Ni 1.9155807979264081 6.964867984132006 0.6839248355186393 0.7085780335282635 -0.56609675230118 -2.303556737425646
Ni 7.7260995915928 4.383601635081342 4.185976864004038 0.10670000986241625 -0.08236426133052913 0.19418745135212365
Ni 7.550682576346954 3.936026994580645 12.908067951507041 1.0766764453716617 1.2114397891291975 0.3375403365508832
Ni 8.151497479945142 9.099416853332444 7.234712187503617 -0.11986200116567099 0.7598545723150526 -0.0469920524788223
Ni 7.418397155534379 1.1002295259917299 0.6778754698215921 -2.043410719794526 0.048843760975580394 -0.3961167514331952
Ni 1.7537050972119372 6.888316243060692 9.47082547505454 1.5008231063588797 -0.30322279421593584 0.1944013671351426
Ni 0.38315628199870794 5.130142967989917 1.6952184727858137 -0.4552726929680611 0.4299442415056015 -1.0885261456213964
Ni 6.244123539310477 2.45499017152171 7.260044020344131 0.9830939467278101 -0.2487341762497523 0.5378079326588157
Ni 3.3568599567720097 4.464521247977929 0.42253460703055623 -0.3460779417082491 -0.015085690688528856 0.24860382131947506
Ni 6.240421334798869 6.098223854123933 5.158713773841571 -0.6596774511728187 0.15721935876820667 -0.0850016989533762
Ni 5.506381781164717 2.7183573407440713 9.670484634867162 -0.8693534850788447 0.8776036409027789 -0.6053009333044672
P 0.44862785385313725 5.79737870326928 12.67974223917436 -0.08377116898038475 -1.330870873405037 1.6497398587986618
P 4.2268688982696965 6.3427061328449605 12.934093719725226 0.47764746111883544 0.2986973955417565 0.6184796367782703
P 2.621324931364695 8.948501866467613 1.2719142449158984 0.6529771563345076 0.35538739203463315 1.212920744550098
P 6.3989778176753465 8.335358439471161 6.204680471293328 -0.822164743208184 0.5346878989725953 -1.083336888110973
P 4.942598041412938 1.526876680398482 12.973264137705682 1.009248750746307 0.40134483260135395 -0.3825356703146509
P 3.7895345919230303 6.398768086877891 8.70240557247921 1.47750165802412 -0.22008077417911773 -0.3473002441511244
P 4.863137425368216 1.3993694742757663 4.161233189269432 -0.2099007483223224 0.9160722292916224 -0.469396791074269
P 0.24592486185830925 6.1855265782474325 3.6009875168834267 0.8603492246977054 -1.4363712065323972 2.6410099135793614
Ni 0.9838380521341643 7.79518309252863 2.619615169428915 0.6123632394678873 0.9888984692247292 0.3022432039114859
Ni 2.072696521411668 6.701117828236031 5.094505146137038 0.4357359084867141 0.8159136200921496 -1.7780515333935831
Ni 5.960895775442099 5.769812781499347 9.277412645513964 0.5203100329843684 -1.8691400619709873 1.4793677646985812
Ni 8.851578881852127 2.6477327743834596 10.357052078433743 0.27671266374054926 -0.4047952530437996 -0.3273045177554879
Ni 2.347653596876035 5.587784686768485 7.282652088436818 0.5544164877497741 -0.1664007681571586 0.1268546304334202
Ni 0.8772464777559723 0.15785160502241943 9.322549448745518 -2.4810728987696753 0.17255470357369637 0.30977550773278906
Ni 1.3772291970487083 1.0946853379546413 11.696969254742056 1.445612008404375 0.8469386077187543 -1.4939101812891304
Ni 4.321639862528682 7.352423141639089 1.697194501647059 0.12236805541697633 1.1735442996350047 -0.9897690447551406
Ni 5.7122735931539035 7.672508813477718 8.21521643183127 -1.5992241094372974 2.654765315492241 0.5445272536605202
Ni 6.982029434602074 1.137278927298788 4.921779068209851 -0.35027758161189354 -0.3948882783427328 0.6502960099579188
Ni 0.9176816636323907 7.695843644377241 6.9897566466787655 -0.3928843605388266 0.12133395772550717 0.030873549650404893
Ni 5.0350802043605585 4.895791598659029 7.080964923000102 -0.7021484758528359 0.6589490576472264 0.9387107926267446
Ni 8.479899433839405 7.327082190068251 9.670458190549223 -1.2313182732206795 0.4497774741814447 -0.9230571452498878
Ni 4.790087276741379 0.40925317631341857 10.386841146656707 -0.4810364321957264 0.21619275197862123 0.19343103280207333
Ni 8.140381747679992 7.796505308425632 5.073325071213113 0.608343576785533 -0.47116211050480794 -1.0547835019533125
Ni 7.501578213551358 6.743547280434344 7.132507634284378 1.297315920267727 -2.2549315202187743 1.3548235275658924
Ni 2.7003113734325606 5.654369655595494 2.4646396119507354 -0.17805917833169335 -0.9008050187199067 1.3533016916047274
Ni 3.4983826514029572 4.333056512894529 9.532845607481272 0.8152389626226283 0.468544984596935 -0.7596260012440144
Ni 1.0883204641883784 3.9639759030241923 3.926474212693056 0.15144748928143595 0.37648483613488065 -0.47656836912204376
Ni 0.7760668698251687 0.28889414289181137 0.3587965058107495 0.11720450893816588 0.7038032378474395 0.8934547490024225
Ni 1.1402151584631675 3.4990939123682416 8.27842382294621 0.05333599241897911 0.01635992941526215 0.22400144938976257
Ni 5.38821215489394 3.4511476283238136 5.291214396689797 0.5454641636524928 -1.2233560809508093 -1.5103642130800956
Ni 4.417796873796938 7.377280800502746 6.080280928465085 -1.0131876807893971 0.06289972484801425 0.08117564033906664
Ni 8.375572040200703 7.868871552278159 0.6128981331507322 -0.4144651720333959 -1.6547051732237372 -0.007856519929941309
P 0.32949893715225903 5.933475753357353 8.166129394623288 -0.7405784976942601 -0.5244037434377679 0.446338880813541
P 8.602573712890317 1.8712181748993746 8.141692109227574 -0.048290202464955544 0.5027609683570115 0.8221166635790679
P 1.9207511180202061 3.428396396165037 10.671247962355997 -2.2614001586622536 0.9280887941365243 -1.510506909305547
P 4.112146152061452 6.732294767214331 3.7677207652415774 -1.1305179166721497 -1.420804976663024 1.4326500489270682
P 7.2022285344698656 4.321740168562247 10.611576814860765 -1.080997184234203 -0.44607122897445106 -0.05568983736313635
P 6.549382155642025 7.947383820369168 10.628046153699229 0.5705707289121335 -0.06996383078364725 -2.8365397378919925
P 2.552715604405723 8.745865441204153 5.906820792746803 -0.9960278811806589 0.07704002090413829 -0.8945032448715948
P 7.2494544388186855 4.510087543407751 1.770731590473207 0.06788457965711535 0.43685253858966056 -0.0969177336646718
Ni 2.9006316411936854 1.8923371543301268 0.30021869408138446 -0.6374392085999087 -1.0241390375945782 2.2988457051032216
Ni 1.4244186264762313 0.9981818149340664 7.232883882073622 0.005155833169326604 1.549462721743454 -1.0210778821707513
Ni 7.069751620320483 0.7279290924439332 9.465713514834816 -0.5049294367632401 0.2804289362498719 -1.6504314855490478
Ni 2.64398497622023 1.8066940391256254 9.600510233978664 0.9022018990674333 -0.8943140116789243 -0.6110146958597928
Ni 6.620617676934355 2.553992226651105 2.796825838929524 0.3962684465197111 0.40805952561736825 1.0719702981452444
Ni 4.569869939412938 7.126688972464533 10.830054298443358 -0.9521108680827345 -0.6787984882729858 -0.002394982594737811
Ni 7.637903231897535 6.655588007727505 11.96377236155056 -0.3035153857556902 -1.3446442730400454 -0.14329195005383707
Ni 7.857090152699345 4.26375416243092 8.354230563750042 0.17022297011672619 -0.2237541092656469 0.3385520656448492
Ni 3.572390266713832 8.806240554680409 12.51029890416387 -0.9875679233387638 -0.4309721685494836 0.4920114431499914
Ni 0.11838847579855648 5.07946106484824 10.362297172116198 0.6724450352511322 0.08269593363833501 0.551094879575709
Ni 9.133411479980909 2.6485261039216614 6.088622742965627 -0.7488517934466458 0.8526965932484539 -0.38892820410455603
Ni 3.528647717348841 2.9465079734545294 11.80877035975444 2.017345904386674 -0.3263223563478767 -0.8061370003213599
Ni 1.1427684029539316 3.673662885693942 12.654530773574125 -0.7625043512330739 0.04965700090549512 0.9402465125449807
Ni 2.9725966609119485 8.65232550553893 8.175097665897098 2.2244873447963043 -0.4489809464220783 -0.030595356288353758
Ni 5.575127889078551 8.213513964879748 3.906654652333496 1.2172175721532392 1.6337691944020185 -0.25910034997542475
Ni 3.088340704916499 8.823766754363442 3.5561169805773374 0.22089581388124538 0.06617685293738924 0.4862670844670465
Ni 3.462646347262578 2.874734447073074 7.604935374283571 0.3631696070832132 0.5007776193783956 -0.9738917114032517
Ni 5.243288173852081 4.5354193762482655 11.595043734670737 0.6950956827711126 0.7869156901979029 0.4746811794016599
Ni 8.461123968101962 0.2337878317968536 2.6967030918432906 -1.4562463481897694 0.7344155634166578 0.4558853868513955
Ni 5.071527769466223 1.1003207132949715 1.9357441344191886 -0.5376487813731321 -1.5018075817593362 -0.8665273284839592
Ni 6.305583781695309 6.387433505084961 0.6632681757153217 -0.24706861562187127 -0.6737596402974977 -0.29482762817370517
Ni 8.21652314588672 0.1682113945436965 11.366637777511203 0.9387542442701703 -0.45612269967318214 1.2829285411978033
Ni 0.20328111949737962 5.446006667688461 5.9513831159679365 -0.6273789961504292 -0.7741594189734989 -0.10271531418305536
Ni 7.362754663096361 6.535549041740277 3.1030008876586495 0.476164963036038 1.496966965837583 -1.9575752120859449
P 8.555293096159552 2.386982680764133 3.8921476642607917 0.560158275329558 -1.8331006518489268 -0.14679070723571494
P 1.856099320021919 3.3659330934445473 1.709766495144977 1.1503686328494898 1.290389625461539 0.0009459088530370806
P 4.924087018854895 0.9550593392311184 8.278290689483477 0.45025389959723106 0.7051096153636889 1.1580837421055603
P 8.737065866441338 1.9566697967670685 12.61295757015325 -0.22250378179831357 0.3070748209721744 0.039602187772654375
P 6.61573915621093 8.4075787836385 1.7214703855160354 -0.6739020794126329 -0.46300502861531234 0.4931049333244863
P 1.9359246852796068 3.8095684424452076 6.058033050220202 0.5889757137818824 -0.42871525419450685 0.28617560892566196
P 7.106837496548838 4.548823909824779 6.380850693663951 -0.537026831518417 -0.5144623159543398 -0.6408945141383607
P 2.5927924241804017 8.806951815645693 10.40174844699064 0.7094059287461977 -0.3670080069926969 1.6151302391445927
