# total energy = -340855.28604481934 ev
CRYSTAL
PRIMVEC
9.45231780502676 0.00000000000000 0.00000000000000
0.00000000000000 9.45231780502676 0.00000000000000
0.00000000000000 0.00000000000000 13.83442256258316
PRIMCOORD
 96 1
Ni 8.590550000129808 6.084126146620988 7.96252666169619 0.10255487734579113 0.7809309333693776 0.28573363629223697
Ni 7.825271445162971 5.336031905442469 2.361356296301209 -1.1641623441994724 2.111572464372428 0.006353195911537445
Ni 4.4296869593992625 4.492648848367348 8.210176443226729 -0.9903056339849009 -1.9246764044753948 -0.7399100108723257
Ni 8.239878461497922 2.9587550702448553 12.050169212933643 -0.04761991587080831 0.34208219028529474 -0.5018497693966519
Ni 8.295382471709692 8.792271914627314 8.28235056113766 -1.310988275548497 -0.3551549643088529 -0.9100057113825684
Ni 4.0296459648177745 1.2436414549663617 3.1254448044550918 0.10828175252723932 0.08879844699164706 -1.3212549475818278
Ni 2.808482121616329 5.131975268444568 12.893681766762834 0.05086541939129949 1.1133732865720634 -0.60989318066084
Ni 0.6519830736319813 4.31817796613151 8.30744646493743 -0.2181259644455921 -1.177679919069933 1.1644827036533685
Ni 1.1704048965329852 1.5398581906639817 2.3292184157289992 0.2469572868549876 0.35368840706565535 -1.0719409875692054
Ni 8.275145059267015 1.636753900589194 5.546344086370572 -2.0373182337435427 -1.9495741961583393 -0.7319830427157652
Ni 2.038808238865353 6.1634499977274535 9.835693428397027 -1.0316276326621394 0.5230523716161959 -0.3807675226706345
Ni 0.35746680990934393 5.93450540792172 5.9744367245326915 1.0283962702090355 -0.593511653979023 -0.3608468724873076
Ni 2.49954256613924 5.277323559491293 7.229454043989834 -0.17519702629254988 0.30405274631639895 -0.3785499461940255
Ni 1.7817240989233059 1.7098864835266019 9.412276851858167 -0.09259108126485989 0.055630444880110645 -0.6481694505332192
Ni 4.127732666787722 1.7211063847734291 8.88133921493785 -0.7631335001766405 0.11380293945578465 -1.201857287647085
Ni 7.394538774635023 1.0831600030972512 -0.033574632880143784 -0.8203942815713225 -1.0757073965901731 -0.3847817860363502
Ni 2.9326194114853963 0.20309911720320536 7.566128590400739 -0.9046002240962808 0.7005469356936709 -0.004524370232914789
Ni 3.673983602379382 7.844128819204606 8.57539131804932 0.666940046272503 -0.9127714470531634 0.7661198364984741
Ni 2.6265344559885455 3.1038859579818285 3.6555799395928847 0.650104462772403 1.0698730492965833 -0.7727964771877013
Ni 7.7099531678156294 3.1847883461634585 3.7782918199353963 -1.1216918337400876 0.4055640128890241 0.7109557897318207
Ni 0.5023821848001266 4.315446246282872 3.8554047739048505 0.9787832351675984 0.8415644878910346 1.9614547496460089
Ni 0.9858672958237941 4.291909974922636 11.042192945739732 -0.5948136606198982 0.43425186774201985 0.13102033177533565
Ni 0.7834742667613958 1.2317220822011983 4.480429837127438 -0.04701519240727387 -0.23238890212250943 1.5310417960341052
Ni 9.4275149334083 0.8569660377757871 12.048219199768335 -1.465141079576238 -1.8585836266113798 0.40304021802590584
P 9.09606940921285 4.278402612764493 13.637503560288811 1.5542177199299363 -1.06228829497079 1.1933451364110157
P 7.154752376295077 8.28964491479577 10.299285191346497 0.7345672585031736 0.4118578163175359 -1.01786888831515
P 8.669996731367872 1.4962073869926686 1.529105233917233 -0.21181853417032553 1.7780085959707896 -0.0423830929519012
P 1.6863502121663658 7.220427080476169 7.938551802789322 -0.6182135276010773 -0.5535374275789305 -1.1313815502240259
P 4.368473749227018 7.745900332467428 5.377260080057705 0.06529702143559722 -0.0538692392146298 0.7620605788274359
P 5.776774580536879 -0.032862873348647494 1.692199306430508 0.8637556792760931 0.6180613182939291 0.2165272524999045
P 3.6452107469494393 1.091865587805194 10.967819273473166 -0.9497007159793451 0.6263441271280117 -0.17272002550696705
P 5.5654207541855225 2.5331266513371995 3.9438482212395716 0.158371727205095 2.256034523474966 -0.00027150849383179046
Ni 7.7199915293355375 6.089343826055064 10.208586420981034 -1.4802316553607733 -1.435599361363379 -1.5993228397986907
Ni 1.0295370041307377 8.927326631573118 9.089201355088212 1.2399859761980063 -0.8318907122466963 -0.016026714445559496
Ni 3.735924641023409 8.953991620130237 1.3598019338310507 0.1163601586599996 1.5980941095979122 -2.6656601080278737
Ni 6.963465820665721 3.483122401051718 0.5967673591135804 1.6087371911340553 1.6799791172991776 0.9482858379096895
Ni 2.128576901157787 7.637576770303451 2.0637642483614553 -1.8784556829449583 -1.6814888690754846 -0.10750219404873744
Ni 5.431566481602269 9.473963623152958 7.417519249707716 -1.868768794674498 0.09939036357488043 -3.033547432301731
Ni 8.766495443944839 3.595226890341838 6.293029932194602 2.082258031679027 1.489018400414468 -0.8108102374273133
Ni 3.3183401445766205 3.8636727162979425 1.2056696038385144 -2.1581107171432836 -0.8245697531052508 -1.9926489158606264
Ni 8.06889548453595 5.450395498690458 12.35175959130929 0.09826447750055335 1.3213508497297437 0.5072472862631393
Ni 6.0705998798272125 6.6425029169275 5.763862714401102 0.43257576559117755 0.33061172775184994 -0.5936224685252744
Ni 6.137484480688672 7.546626568284098 8.07735247328535 0.765387843428456 -0.13969317695898523 2.0379574099894384
Ni 3.710375025968502 4.577351068310751 10.26916727109143 -0.5555385171693594 -0.1610994105489032 2.1511695099387595
Ni 6.273399358555672 5.397471971242281 7.666110482092665 1.8462695851307172 -0.8823239291965836 0.8982097471889048
Ni 7.816925048532012 2.417865087896751 7.932325561044347 0.1324830323637912 -0.2014796141381627 0.9967845568410252
Ni 9.056672148558446 3.6141409782903646 2.002463131633528 1.3784416812054647 -2.0697915237809 -2.771449947371195
Ni -0.031228567598372472 7.401835963988477 10.682525636242971 0.5193823789637765 0.8799266326090007 0.6550486941515558
Ni 5.285707765393514 8.909423941630834 12.9462527227565 0.27452362650903045 1.252239853864695 2.5879623989350784
Ni 4.867244203389897 2.1158540813783175 0.6066034410322396 0.9550498961064005 -1.9993633517663243 0.42353576687609634
Ni 6.855974062469496 0.9440285014776846 11.447680365846427 0.04883501922483203 0.2321135369739357 0.2063515975184833
Ni 3.2860321222837343 0.45686927451918846 13.050715958324684 -1.4355016594432504 0.7846235517296164 -0.34864261711163186
Ni 8.094180434692028 8.010640849839913 3.7846277085670295 -0.7223846003940526 -0.7985321913909086 0.5893477524093206
Ni 0.7634022698804878 6.7835409510504245 13.100962589367553 0.3355965825609511 0.7866683500737871 -0.5311521179051949
Ni 9.45694945108532 8.987878179498287 1.2027753041234526 -0.2117876809323901 -0.6164109271746997 -0.7912212595517922
Ni 1.6383513422999891 2.1464795911000705 11.588362992819494 1.1057522796916956 -0.29686908408376617 -1.949541800258507
P 6.076583197004333 5.813789857101812 -0.017540666169955747 -0.05392966013892002 -1.597683504423055 0.10654625789337134
P 8.19675698762427 3.57881766661438 9.783800203590724 0.730711117981877 1.2392069319401369 0.89627679183225
P 9.22675715532796 7.076430470877039 2.127001199777967 0.3121419510824366 -1.164415083640227 0.5345256623631182
P 7.762356817783963 5.342544552417248 5.942382969589039 -0.6216688331395294 0.5637758174774872 -0.014601294852942596
P 8.616950323788094 8.204252675651846 12.60609216153529 0.02824588221957071 0.6715019546115726 0.3571863929165848
P 7.798984549318466 8.966780606134412 5.906039752820776 -0.6371476455014189 -0.007662144530948093 -0.08396528726906186
P 5.807834896878137 2.1650439432894295 7.232981648998524 -0.9305691373562166 0.7674215860290332 -0.2567866142405836
P 2.865838786119908 1.6575017381939001 1.0948931652014524 0.22502989065427695 -0.14613996102559346 -0.5082410176349763
Ni 3.0046460732384075 6.295168046484436 4.351894383778885 0.8498269850101429 -0.39503817365703575 0.8896526016475129
Ni 5.099827935554543 8.917997193889361 10.717471800438124 -0.46962433370404283 0.7200420683038051 -1.7997056213282487
Ni 5.548538914567298 4.040865866064602 5.914243419452724 0.2766797536200848 -1.13097814413802 -0.8291437456291786
Ni 6.687552663635486 7.565531203914809 0.9774934874711703 1.089463569834001 0.4925742576319968 0.6384357681852231
Ni 1.9443039653474254 8.673456279688292 11.388247972350596 0.5718393112119119 -0.21452333469599827 0.26996660326596733
Ni 1.4486149667923522 2.637121051941744 13.644475589909419 -1.2772787991111938 1.2219437739843149 2.0770888287732614
Ni 0.628636793859834 1.2884643460467788 6.964192703905723 0.8708328978378486 0.43859137565763817 1.0665545264463114
Ni 4.441596879846611 8.298993257115157 3.3341926267847537 0.4573347177034124 -0.41338685136755254 1.085016589806241
Ni 5.866174602434514 0.6900182552891915 4.83178288787381 0.8105842374594362 -1.9272040559932553 0.8097640555509861
Ni 3.6261737788693127 2.9473366703239057 12.432566511080987 1.390521238077818 0.13885962531409635 -0.539983857264212
Ni 1.0019834976989757 7.312880201028164 4.183930477127138 -0.7677915677739423 0.5440055768290953 -1.0940511892046836
Ni 5.198727536856611 3.8920674790152714 2.138290102944846 2.4919887743512312 0.7796898618734248 2.717988228007629
Ni 7.71272269693553 0.7703119142035127 3.2516842898062945 -0.3110242925382256 -0.054566522391970546 0.13350350320850557
Ni 1.2744465587266065 5.2420758663578315 0.939438455946548 -1.1077865365129052 0.0030878948967043595 0.4909827447751608
Ni 3.778970496354539 1.6916151531895192 5.517140205248248 0.09851053207308841 1.2226631686488425 1.1242930188083606
Ni 5.960801756084041 4.52870944083293 11.810101135522798 -0.6814981465923361 2.5375602923334424 -0.4177230168490612
Ni 4.346629442755731 6.387110741874402 1.2571932430182375 -0.09961224977769942 0.000984989621088626 -0.1828601992647625
Ni 0.38949504359489545 8.288557898247005 6.164231704410783 0.08687809004048262 0.537390642615739 1.4123663589773676
Ni 2.6985611177415567 9.01567744619325 5.429983218368197 -0.3209415516519376 -0.6716279386664756 0.23483710655268586
Ni 6.313108545697982 0.9545612192193356 9.169247363275772 2.013992157423093 -0.44686749962350136 0.8793123960637694
Ni 5.815888271656821 6.398169953718368 3.360408630245643 0.16402429750518202 -0.3454989292763275 -0.08639986485248347
Ni 5.50558758241432 2.8815107290577675 10.16183998322519 1.2670897743933338 0.74662470388834 1.475904231630013
Ni 6.1776473790861175 7.165045950395999 12.087148570690879 1.345058991979961 -1.5523230740103846 -0.8813116858819854
Ni 3.9411817223838597 6.975139433167685 10.917226687598257 0.02362663828000447 -0.8428554387883163 0.8046393327299111
P 6.028641041044849 2.7769586417021173 12.782868464086292 -0.6881035677239956 -3.3377359328650456 -1.8438807731835665
P 2.832207439332872 7.605930410257639 13.560847153269838 0.09239567742460215 -0.17200731571065858 -0.5678026792486931
P 1.7602956944358943 2.932487079035982 5.545196574987787 -0.9400724488609616 0.042733277202468334 0.729613514042324
P 5.59654723675149 5.805254414114545 9.884543006866787 -1.4782945862390606 -0.28256578008721656 -0.5755725530020991
P 9.14068434930133 1.1464243662354276 9.123317605779176 -0.09722292360991643 0.5165433668530847 0.5296652489470233
P 2.2161053641279813 9.379128518511493 3.4762165376558194 -0.21596546645916354 -0.8834493010502786 -2.037782060753839
P 2.7207173507007503 5.360532313219871 2.4972929144991856 0.10202085921919204 -0.07984843688721087 1.2700555418898771
P 2.5459061850235605 2.947903809392827 7.817154739854924 0.12597634159352497 0.7869228892867545 -0.3534935174460299
