# total energy = -340897.53262590634 ev
CRYSTAL
PRIMVEC
8.98591268082670 0.00000000000000 0.00000000000000
0.00000000000000 8.98591268082670 0.00000000000000
0.00000000000000 0.00000000000000 13.15179151836974
PRIMCOORD
 96 1
Ni 6.198024275330861 1.9959329495047335 11.357649961869539 1.3841125063379969 -0.053404383763069316 0.17898991767607883
Ni 4.781359199915006 0.3547171053003784 5.992640458258539 -0.8671721611568098 0.34010115529952395 -0.06697672313086529
Ni 2.760688032841293 1.6220111516549827 4.835098552021625 -0.42285262476614266 -0.3691957586726351 0.5318298606985099
Ni 3.5468475601478153 4.256060717296993 4.994445741324461 0.011471490974709276 -0.06912899358717772 -0.22109456015561277
Ni 5.0478544118449795 4.339234324931745 2.8277930314470408 0.7471183556953068 0.6073380183391541 -0.28791984531027837
Ni 7.074303520762809 6.017164811106073 2.5101643820835324 0.4965373560448029 -0.4602871154635169 0.12917479392616463
Ni 5.065143307814 4.41862486333419 11.467849600437985 -0.30979581944776324 0.8609053543114915 -0.09821305543732763
Ni 5.599643365001804 7.68849065147103 12.364499011292061 -0.8742699485438556 0.753572853071399 0.3800111041205842
Ni 1.8187846672109242 6.550119291315357 0.22402509289754843 0.0008687757581985038 -0.26965138601839367 0.6947123312897648
Ni 2.7886881367079615 1.7126071231516948 0.31357150979489384 -0.2638669181261327 -0.6840872474757509 0.7298819372123624
Ni 0.3361306435424138 9.032100256913838 4.865531142446929 1.0150265337703488 0.012652655767004016 -0.5166325841327812
Ni 8.425658982923547 2.3370202224736087 1.321584234907638 1.4076381002637628 -0.3461789860624877 -0.02801628270726788
Ni 6.936190043089285 0.6945544378174395 4.783714407624715 -0.8479292537667977 -0.25726561075953114 -0.12921258914263553
Ni 0.7494889163086119 7.452242021574177 2.650743594192555 0.8592385081320298 0.030209947924477 -0.4604537229483683
Ni 7.627350501692848 3.946127603540486 3.770645309454918 0.5854872410126497 -0.6622166726549046 -0.1712177299298277
Ni 7.508934144582782 3.792908806675733 12.466728145325932 0.3660728967729373 -0.009955825661131242 0.4631441252963378
Ni 7.859474597676091 8.889242217352765 6.985718596520705 -0.1455987438101428 -1.4912768574313415 -0.36005343005173474
Ni 6.893318253760698 0.5212548219183973 0.38983495058963663 -0.8999691530821727 0.7251372234385254 -0.5019605839429032
Ni 1.9382254183648917 6.571344017032004 8.964629531662592 -0.11113104905057636 -0.04513982976143194 0.5932884822246234
Ni 9.03578448110682 4.626145530438443 1.322702082443265 0.04476007782451001 1.3948756583917719 1.0487408953036583
Ni 6.36884647510794 2.033835529129127 6.945710617558713 -0.2639394232352809 -0.4801483731638182 1.2960097998617939
Ni 3.2750506597450126 4.2478026635571124 0.1988995824926727 0.24083908977239166 -0.0977461431032381 0.1741927533977516
Ni 5.945870580015525 5.464863660927296 4.880603213761296 0.014624949002026426 0.6707159683751674 -0.018889123595019083
Ni 5.190245183947429 2.9605257446162763 9.269750689186557 0.7060974331982549 -0.679200608807411 -0.6195494728036814
P 0.0871202204775763 5.525680317849509 12.437872582573478 0.1450341295559244 -0.3269126816337079 -0.6880436610203375
P 3.9238155823912764 6.147712150314984 12.583528835338685 -0.5020986521826643 0.3444203515001681 -1.2550359285525934
P 2.2473497999814755 8.471208574226546 1.378662752160873 1.2330080022182766 0.052033471557471685 -0.29238199484669003
P 6.326343108198651 7.68805932766307 5.7947455008019055 0.1876285671876833 -0.11154268266669821 0.36486627805934585
P 4.731721018349063 0.8882017543569453 12.472777461732557 -0.10879674449044488 0.49726986333545325 0.9334312893953602
P 4.05407537239488 6.193926699155252 7.9983806328467395 -1.1283695028705794 0.7627128676994541 1.3556809904701812
P 4.6495089033695525 1.1269412792447602 3.793029217905455 1.1235995922857618 -0.7990037317106885 -0.11894771688151771
P 0.2722578777225586 5.600200491587085 3.4533976627884413 -0.12391868773354787 -1.196744391900552 0.05884021006665996
Ni 1.3405004796604378 0.9872103372913903 2.671563055247974 -0.32429092774014473 1.4578766847043407 -0.013217270021222399
Ni 2.0874005545300296 6.27910416531448 4.658943213077388 -0.30568693948571224 0.889548471969481 0.3752144540628893
Ni 5.860091057707686 5.529652091247798 9.139877293427581 0.8377888228986862 0.7956700393517652 0.7453046995253357
Ni 8.630870270472686 2.1460156628491185 10.160047958377168 -0.06514069836339104 1.4411958816145503 0.2279810028628009
Ni 2.267505202090891 5.152279702934376 6.97305385120951 0.04922685534661199 -0.14214343827169068 0.11250761768312881
Ni 0.38962468023325664 -0.07033183984404055 9.077524045439516 0.9313037015293961 -0.00902997141275219 0.46840125993021914
Ni 1.4747320430623312 1.2301265143862743 11.47044023905954 -0.011106394325806679 -0.8095365129212122 -0.8119222395445695
Ni 4.015049553687261 6.933826748058177 1.559184346069428 0.42243893426749174 0.6761312258534677 0.10403069056036922
Ni 5.6288565670783575 7.936420967833436 7.983847716292323 -0.2093279065379879 -0.5451502319564999 0.2738479405982445
Ni 5.444941892547192 2.782182335937914 4.907735278464447 -0.5203892229617361 0.43791646107780063 -0.5132400135114645
Ni 0.6671824492461108 7.146244737565296 6.705032831308882 0.08491453855620859 0.8455905783312921 0.09644079402825326
Ni 5.036487232322727 4.568204365569289 7.148274655236503 0.787887824303185 -1.2929920960813925 -1.3854211978470914
Ni 7.969974365727577 7.0555409351165945 8.871330597636003 0.09087101324995964 0.47669409606663066 1.279522600840048
Ni 4.708546349583934 0.29094947465871324 10.28330682382284 -0.7573433758574247 -0.9929705824115737 0.5840019147163749
Ni 8.014346802471355 7.111523171024601 4.529766225550014 -0.08861461311561512 -0.17625914900847708 0.359220135517162
Ni 7.391074914057998 6.05671181274831 6.909491099376625 -1.0666931089067047 -0.836222763963147 -0.757803860433611
Ni 2.512694815090225 5.251690854756248 2.4198766273912575 -0.9247080505897494 -0.18720459227638728 0.08703364178174043
Ni 2.4107316640712613 5.20028244839514 11.134622305277896 -0.2747408847261591 -0.09753428420274816 1.1722759744455424
Ni 1.403303023281795 3.455685476153157 3.8350230835665924 -1.151841103629958 0.20119756412136963 -0.7929228156239312
Ni 3.6338042370148735 2.626258779360752 2.6060278955849436 -0.656274853249173 -0.4534258695673094 -0.11068213443861584
Ni 1.0069883310688417 3.103491615129338 8.171089874283638 0.8086376552560266 1.0319778169127067 0.45968701998567285
Ni 3.4610500660146464 2.7166390889534844 7.085632959451864 0.46643822266657736 -0.2682694180692025 0.06694227034850406
Ni 4.185683049298357 6.904020475745679 5.980829374650598 -0.3397738538670923 0.26524657208247865 -0.5984204041345501
Ni 0.8402088934001123 7.1028966948654215 11.119313904460418 -0.35966673613627737 0.7034761935253239 -0.05163520767778849
P 0.28020501888420235 5.438894373323101 8.076791706768612 0.2469115212187167 -0.10425386231476884 -0.8279396980187482
P 8.402340539555766 1.6302063040062027 7.997643788008144 -0.6688938275647642 0.39629261488942713 0.8576120282722004
P 1.863291892644689 3.177903957914924 10.35539181522798 -0.6079090603512756 0.31912892392323106 -0.16457374225074883
P 4.064669763427872 6.0670995277899875 3.7484581924917633 0.2197375319070861 0.4673162543961565 -0.04874014551818057
P 6.861022883639771 3.9369529867086923 10.347172400912562 0.42568109535387333 0.19490453202380625 -0.42721398705863195
P 6.435728623079576 7.706246814898673 10.285976538475854 -0.9726598958786798 -0.16988692693354615 -0.8623168899470375
P 2.2886041250302167 8.396877104654953 5.80779124881013 0.4593288653153057 -0.0862931640712901 -0.9739570174235485
P 6.799613156481614 3.8687229518371855 1.5187693052636737 0.522094635688617 0.9292751011351416 0.4721429863608385
Ni 5.216582893970923 2.8424508521875125 0.48728178190276356 -0.4139044144339194 -0.6440418015180908 -0.4432964944427914
Ni 1.2371624840036048 0.9851525632909195 6.951497545315495 1.3477383385843371 0.0891216346590207 0.08724215824812072
Ni 6.8033782538885905 0.7570739251898234 9.281271527815395 0.047579549551176124 -0.028606607993099116 -0.7967118503527182
Ni 2.8905973722509306 1.5609249173527957 9.234451328461448 -1.2843300495310204 0.03660505281754341 -0.2152437578017906
Ni 6.4885298459038845 1.978077941037766 2.5295892294932174 -1.5244122065327295 -0.5278533925492651 1.171187883587686
Ni 4.093191050229158 6.835314187502884 10.30099559290549 0.1651527546826704 0.29329499357926264 0.16107601351013548
Ni 8.104403619208117 7.1298903765135195 0.3601958162527238 0.3397455717323181 0.1290657791521261 0.0578271954211133
Ni 7.633020612584974 3.814115560567049 8.17369399177419 -0.10578392580605007 0.21607345279193754 0.5559614636393909
Ni 3.0627494871025487 8.418739830170873 12.29609644689737 0.1334929616855443 -0.4577196118466569 -0.05348048841664337
Ni 0.13391885364112294 4.844107828060367 10.146620309080648 -0.5062900645561925 -0.7672115269007561 0.6110776878872444
Ni 8.56237964413387 2.3212589316577756 5.8444322062962435 0.3954742327531899 1.0345987994753214 -0.7519209192902728
Ni 3.7443309628043555 2.563734799032035 11.309409988314396 -0.481233635808197 -0.24351895059739997 0.34919206185719864
Ni 1.0455918118811682 3.3854156391065104 12.514166575471284 -0.3180722005239425 0.47425411916657034 -0.034191815390360474
Ni 3.047275745492021 8.43874247176497 7.900820579034024 0.7742990298751568 -0.18684360939254274 -0.10905616879941864
Ni 5.464423351206672 7.875622282736556 3.7609126674465783 0.20267980509385092 -0.21780509077106358 -0.6854360481941615
Ni 3.1006161230762785 8.55733854712835 3.532229277423073 -0.3493550697976241 -1.2426617232579567 0.5072274887687974
Ni 3.433750863335911 4.396420673136969 9.17184917069254 -0.5405464146359014 0.06567394515904174 -0.4590077345304611
Ni 7.004024697803497 5.984294342574534 11.540999422494023 1.1494386648360526 -0.3041910716664761 -1.227797918772247
Ni 0.45776755175190553 0.17023541968000036 0.3812363307597215 0.09080082213365652 -0.2499721624219114 -0.1846545721610239
Ni 4.598612694030396 0.4002280571789143 1.6228782922272336 0.06342243012070367 -0.07287586222411965 -0.3937600782755606
Ni 5.721995551859494 5.455895720086816 0.4832641803498792 0.28023970305720125 0.2691631335280655 0.11401428413564235
Ni 8.045878370015688 8.738979785755065 11.26754731697818 0.20249828521066415 0.34577506575584965 0.6366275113318907
Ni 0.19061726678859417 4.989086543010572 5.582107356434473 -0.43523660025279237 -1.050879538913216 0.18007980830614792
Ni 7.846642714389313 8.740309700829604 2.539400947533017 -0.26020335323161636 0.601135746183184 0.3663127806978852
P 8.441132724534075 1.7230757114073654 3.6086284054990694 0.4235555643704383 -0.002885549077911159 -0.2977877392432936
P 1.8541442335508929 3.3324167262035536 1.5665231409435965 -0.5953839313010714 -1.1512142686792368 -0.3239014056112099
P 4.712131728737594 1.0834494619422321 8.200944670524532 0.8291054361920754 0.041277518592548273 -1.1678953288793437
P 8.312948680356273 1.7295635403520813 12.35082065503216 0.6587765366251042 -0.7217623934290215 -0.5206545608079808
P 6.29620435711752 7.693846255419853 1.4163164220044233 -1.3588550173227887 -0.3780503808497876 0.5370651409555203
P 1.6505234525436028 3.2296088993940035 6.002030736994313 0.7566556057617807 -0.35028375225948055 -0.21872657414406846
P 7.028726971721812 3.9168065705119433 6.027334168469972 -0.5609265209541501 1.1552295604862168 -0.4508768778932106
P 2.331278224280155 8.545072776339518 10.094316007226757 0.12622368171764067 -0.15401602133956055 0.4991516537391984
