# total energy = -340895.3227011217 ev
CRYSTAL
PRIMVEC
9.01581795906232 0.00000000000000 0.00000000000000
0.00000000000000 9.01581795906232 0.00000000000000
0.00000000000000 0.00000000000000 13.19556091593791
PRIMCOORD
 96 1
Ni 6.126266401630753 2.039738677303292 11.308292654384251 0.9503074963254085 0.2769566614305553 -0.17874540576544057
Ni 4.686864001314706 0.35433246863698786 5.983144797878759 -0.21576054953720905 -0.6561383276713086 0.3455704059442113
Ni 2.811925462282395 1.6507421913992615 4.746021291498252 0.0908671565952177 -0.41278341345559877 0.35707326437748826
Ni 3.469755611021599 4.3142222093667755 4.773190459214188 -0.36339817815425157 -0.39729457379138033 0.07273136622645539
Ni 5.1063159206165905 4.475001292784163 2.553116487545231 -0.44698371348639143 0.22254491944889412 -0.1726107536226124
Ni 7.122541344426216 6.127582711067131 2.500717454577502 0.2796249522913378 -0.8166733810763096 0.11962417412325205
Ni 4.693508659223 4.410457051311327 11.113221906985594 1.7298148098743822 1.729610921393692 0.25236945900949437
Ni 5.607099534614164 7.803397892483987 12.481878986168933 0.21451227895240474 0.2538920663016079 -0.2297321812259527
Ni 1.7122120389145277 6.634433970617327 0.39430139324899705 0.6653999554788927 -0.04818864389008475 -0.7080578993587354
Ni 2.550683118251542 1.5375756431429366 0.29829374991949165 0.43092691713384496 -0.7866783773761161 0.8231057669652148
Ni 0.5567276666254686 9.09443599084767 5.003294872420243 -0.8213540743814306 0.1988853710484252 -0.9771523844323945
Ni 8.752096363390617 2.3023063465885807 1.5890226057238055 -0.14923891166589137 0.9332148025091799 -0.242655317045524
Ni 6.98063236820294 0.7769182862956201 4.845238566056188 -0.2919153396229166 -0.3389662703641323 -0.14815673434530616
Ni 0.7532806145127623 7.190060805857989 2.5552811854608097 -0.13017726704875002 0.2740942522810957 0.05453412649213833
Ni 7.583655358971287 3.907780115521701 3.9837131383646276 0.7054911670728237 -1.0883582525849642 -1.080729789505429
Ni 7.443847068355383 3.861294557617812 12.479807151179346 1.3453222729436767 -0.6002219761196631 -0.3102779012905043
Ni 7.890328410193314 8.647098146294285 6.998503522756294 -0.07296482239350015 0.9888488469337163 0.09958396764292526
Ni 6.814741315947015 0.8213752851365967 0.8049565788722889 0.43788432228828456 -0.1505486316162504 -2.08401975156514
Ni 1.784951659001528 6.640654885076924 9.259615695058866 0.30561983369320267 -0.5529692137802864 -0.5245204715212902
Ni 9.052602595061392 4.938756942020048 1.3757426105946413 -0.315233959744199 -0.7584386658041326 -0.2141754644382763
Ni 6.4552986816351 1.9679547339303745 6.86869828227506 0.1968086910250546 0.16699777831120918 1.196778587572597
Ni 3.4740832036891445 4.199622146039326 0.3092263308958794 -0.15412914987865714 0.35903810141334297 -0.09243784351644725
Ni 5.851094618701237 5.470582017589207 4.651369627204577 -0.15046712764603762 1.1989295724773288 0.5944889302906279
Ni 5.453451963280171 3.080569792938363 8.935057063974595 -1.1302574639219116 -0.7993575155056815 0.3705741270774005
P 0.041566527571778186 5.584226404202573 12.263770118888232 0.47382963003464207 -1.058893153246312 0.3559687184593998
P 3.9537698034324333 6.095639667689808 12.563414438352721 -0.7401820335867898 0.24104297825308163 -1.295528232239685
P 2.4589291378815124 8.427508881688562 1.4823366274871308 -0.9831073164642488 0.3972372381908836 -0.8841758948036579
P 6.352310991965566 7.5520188534079145 5.763187687896293 -0.3981983165525723 0.617083270651376 -0.4072887088896147
P 4.803014785348025 0.901016513946527 12.586071189130935 -0.10790945678948513 0.9459201658909904 0.7981573245499931
P 4.023804678102217 6.0636785926763705 8.178609192578271 -0.07872255081288378 0.28343507006604735 0.26884200274322084
P 4.835084050178152 1.0114305329499316 3.8854064614304886 -0.12134552768973295 0.34410976223828477 -0.6420574240982103
P -0.010272623094587034 5.482582071423589 3.7626479843429097 2.2878514108752466 -1.4801522082730896 -3.319177196026251
Ni 1.4360575318167563 0.9163587315347829 2.779327870514106 0.1973905316704536 0.5612031716543044 -0.5559210973197587
Ni 1.8326453365251067 6.43545486609079 4.792112858153033 0.9433812015192204 -0.03972122984902192 -0.8172616494796119
Ni 6.038235954118424 5.549587631226091 9.053487948394626 -1.0913165638823399 0.4008794629291612 0.5873047538373628
Ni 8.433666685421757 2.315334203681505 10.272202957465561 0.8149160320655706 0.27111537215842985 0.6461747887006936
Ni 2.469757135368434 5.166974344506691 6.961212296107329 -0.7740321493670153 -0.28019110920745294 0.20930810904364597
Ni 0.44811410648812433 -0.012904340385538372 9.095146437310591 0.7391834171189463 0.07512609171087707 0.3310243898092364
Ni 1.3445379627162184 0.884625756718197 11.446304994043125 -0.03268951981322112 1.3548713500846923 -0.16286807241355178
Ni 4.219159423769684 6.9175937683456885 1.4176255933802338 -0.14627905770661903 0.11056180681066766 0.8828677175151957
Ni 5.823650468534549 7.6996799215518035 7.892898819921475 -1.6720171821396237 0.8382169115750402 -0.1880563987537213
Ni 5.502290649697038 2.916409777749456 4.755389628041683 -0.6850969196871879 0.2203707946157108 0.7497650492895346
Ni 0.9042504878837118 7.515378568822693 6.847071137919 -0.10598575740421103 -0.8189930303484217 0.7186595861339816
Ni 5.12708836542081 4.535425305404773 6.891632720249442 0.25174673782383095 0.8779057455242298 0.04175600089086357
Ni 8.041388441744838 7.115842591609577 9.247871690457314 1.080479878278152 -0.07909844609506378 -0.35580159675391626
Ni 4.641875069208343 0.364118237556476 10.441700336944441 -0.3376208120798314 -0.6997390950803949 -0.734727952450754
Ni 8.23793327539588 7.009122353264284 4.6853745881716256 -1.3660358513419442 3.200847829455023 1.4716634540757882
Ni 7.353409397421731 6.023729502864087 6.978537993668209 0.010202651564614687 0.4682246251430388 -0.20112325924000846
Ni 2.3145949066008 5.177892500174187 2.311519611061425 0.4319831263125012 0.20795699433239023 0.9847211979185879
Ni 2.1551231168017337 5.148104237312579 11.36019040786799 0.7045226325119672 0.9188603335597209 -0.32684043363487586
Ni 1.1744455392455502 3.417608119377671 3.7753161102953445 -0.20385274235602957 0.1374367768246407 0.16121588152210944
Ni 3.6810322913784113 2.5169278954446845 2.4428945054664486 -0.4212503132760294 0.42638146385500764 0.5398825557996573
Ni 0.9453806498615125 3.435324201860437 8.174267174601834 0.6504230224540862 -0.25592298068870767 0.13991223494832677
Ni 3.8648467899324226 2.6496227056133095 6.9718221107972616 -1.1127834755068644 -0.6207290949340794 -0.29004691895561013
Ni 4.010452251559227 6.887408809489556 6.103474413581677 0.9402855933130322 -0.1243622030288697 -0.9192462561442297
Ni 0.7392393794701874 7.385974532245013 11.367368802205283 0.6972440965726832 -0.1313005820199158 -0.08631964643385134
P 0.2721731218436293 5.767959760394068 7.970422233069725 0.4448376136776661 -1.1604792389209306 0.47184936637981967
P 8.446234735793755 1.6842720187546847 8.15818205360565 -0.10577466983466943 -0.5421392130443179 -1.2739538485030188
P 1.6323769700163635 3.0081727739375435 10.373914908879975 0.28301469469917706 0.9506116578293886 -0.11890915033409843
P 3.9245405212903837 6.105755415550196 3.632144017962229 0.024770522076460563 0.11408473236226158 0.060336077885896094
P 6.86127195294119 3.913955950891011 10.323494847975843 -0.9505900605628338 0.8064249638754241 0.8180080407273332
P 6.181136670328011 7.66173234334826 10.030077754043592 -0.37634702500543576 0.28300106785242224 1.973869321260278
P 2.466845026135898 8.435388706670718 5.712516987250165 0.8554607862571524 0.7530920567802385 0.746280947395676
P 6.9418373031020035 3.9086185866010377 1.4297653923945057 0.4783393449795375 0.7493457023639288 0.8165085733636712
Ni 5.361292271097559 2.8057856901853144 0.34571605131954286 -0.565193009539988 -0.19026549058989814 0.0277080074382297
Ni 1.5174974163291353 0.9583273645919206 7.040729106628066 0.4038411166606464 1.1331404418966613 0.4351288710303345
Ni 6.95868786705126 0.5625104123274768 9.344687151084761 -1.4500319918489415 0.5247647263216123 -1.2674692692199396
Ni 2.898432236543026 1.6843170978449717 9.228118033093578 -0.386220832475722 -0.8519255194103843 -0.3698336493669501
Ni 6.280130352598123 2.2148348797958097 2.6004621544917943 0.6445495943924447 -0.623401756670236 0.49691942197457006
Ni 4.059849918695652 6.9448846496054 10.256672309279905 0.04533111983663161 -0.5145196515548365 0.4554434142179704
Ni 7.975293479566131 7.099478881835419 0.1455630872819344 0.41042699740828026 0.5524992161224034 0.6108288051012319
Ni 7.6112888413171795 3.955861473221747 8.259880481292978 0.6181952727686321 -1.1542998495830958 -1.263928860166849
Ni 3.254178385451412 8.430411975103041 12.36961131497293 -0.992355574535394 -0.994820748246435 0.211181671917275
Ni 8.912307450270388 4.799841217391824 10.05070233943167 0.8901778780233637 0.6242119112763572 1.1886557013551464
Ni 8.764574255582042 2.3739640685086947 6.034316778008877 -0.3788955024589023 0.6156318829168301 -0.24993436720544052
Ni 3.5284395707571323 2.6219261125410163 11.545456453129242 -0.7785344081127431 -1.339426219174216 -0.20736409794339772
Ni 1.0582496761219433 3.4388133234486453 12.46762768256562 -1.1073815877650024 -0.9627266959253679 0.7742026135066086
Ni 3.212263847302619 8.353939806340282 8.009626616310468 0.41422297411560277 0.16815760294726523 0.3639095705730313
Ni 5.735863448109769 7.874271238233108 3.6782626320711818 -0.761273049929134 0.16786912517256894 -0.27115830958122333
Ni 3.0520617762409046 8.25228645774324 3.6204000133606766 1.214922348361159 -0.12648850534325315 -0.1423241868239291
Ni 3.2239753949591647 4.233756033204594 9.174821024647333 -0.13763835131248553 0.01365230067611197 -0.04593918573427572
Ni 6.960887726657262 6.098795204009893 11.328388912834168 0.535810956833445 -0.8977312648905894 -0.25540336073981174
Ni 0.37752926691683947 9.118327908699746 0.5303627098802509 0.7195412174079866 -1.2596166059447405 0.5426143529085236
Ni 4.522081894679839 0.39340702409770417 1.698136543763335 0.09744532403336766 -0.5195266178511246 -0.17406959755632603
Ni 5.856431982991209 5.474837483712294 0.2631843512404142 0.04475107896344551 0.024643252469976912 0.17630542886538025
Ni 8.026521357768207 8.81851589501939 11.3096513381655 -1.2990208187739758 0.2092877973286718 0.636128203097969
Ni 0.2786356602271645 4.99958666645324 5.824190516036187 -0.31109525498547713 -1.6988939519258097 1.0030688471878402
Ni 8.032985699315352 8.875811418774084 2.7771379283079667 -0.15604385040286672 0.03840662480265644 -0.17125655358756312
P 8.64873902518073 1.791884823087659 3.840713248156409 -0.4246624242813718 -0.6926863019986715 -0.7166348423944691
P 1.8520113137123744 3.2325494379317403 1.4215970612345128 -0.9044837531230746 0.1380263307795236 0.9430757544636597
P 4.801986982089484 1.0720078144775163 8.232314617582515 0.6273103476960229 -0.3613981170050873 -0.41130425780691104
P 8.51778426789718 1.5541467167324146 12.484953380126502 -1.141265384996641 1.1180521801049712 0.2072597111550495
P 6.396163930996697 7.854833134501381 1.4256217224153305 -0.45656467230660724 -0.3287654185717306 0.6687434180298288
P 1.8135047547892735 3.1335196923893984 6.151229398668046 1.2937351448950043 0.3340202392127667 -0.9058410384819173
P 7.116491730509709 4.09256832242591 6.074154071677248 -1.02223153615922 -1.0790899399091611 -0.38363558824704896
P 2.370411836194084 8.559843059134892 10.186511213157317 0.70320417081086 -0.5268025826872476 -0.4230115189415102
