# total energy = -340892.5672001996 ev
CRYSTAL
PRIMVEC
9.08361215994912 0.00000000000000 0.00000000000000
0.00000000000000 9.08361215994912 0.00000000000000
0.00000000000000 0.00000000000000 13.29478458167502
PRIMCOORD
 96 1
Ni 6.531952725987586 1.953585183703855 11.559336835240018 0.05035659807568101 0.5953499927393424 -0.25383267381858216
Ni 4.680758016836824 0.3068825647974249 6.028812365230993 -0.6545321595264534 0.10265360770718449 -0.2950644267748596
Ni 2.7648516557417544 1.5900681147595512 4.659383369421025 -0.1983706361955358 -0.119370149130917 1.3363262400926532
Ni 3.650113231196039 4.180260078813331 5.061005282377286 0.23427917716668684 0.2276040791393564 -1.0979682648709026
Ni 4.978255393707682 4.6370204250187665 2.4802748085909383 -0.14362722190606877 0.11586959217682626 0.6143265338418453
Ni 6.996061714307418 6.082377516880403 2.5766092390183606 0.6913267026469835 0.39500372087467456 0.06630360832324064
Ni 4.772229989756416 4.666278739296225 11.355634110879171 0.919444745308281 -0.39368320229103815 -0.15154879074599062
Ni 5.632284541888766 7.917176306356898 12.498373393781092 -1.800561284460325 1.203878688952488 -0.11651776728378642
Ni 1.669240877020441 6.413856686272829 0.2082118293615694 0.5295451784293913 0.20923226150038804 1.0181892477690466
Ni 2.796508043589299 1.6421535460128716 0.3562856054248114 -0.062100883095802736 -0.3662680435028789 0.7787503807782911
Ni 0.6799383347112283 -0.05503488007228698 4.74038829622391 0.9276661047768089 1.9739929913223357 -0.15953540849589298
Ni 8.88157430962404 2.4667184260303423 1.1442462541340324 -0.6112828619195151 -0.41728541509101036 0.7389077948600564
Ni 6.856637353598101 0.6919032684480393 4.879717279007142 1.000334993196445 0.6415897404331724 -0.7734266545725325
Ni 0.7368199131047222 7.446345445151219 2.488703492173072 0.46126413466480554 0.12233874484093768 0.455808253756557
Ni 7.4490796123655985 3.791572320995125 3.6150650226247425 1.5042295609372673 0.7265634143620906 -0.08669914126045714
Ni 7.603246675363742 3.9058623272785713 12.718960736142229 0.1644395306657297 -0.3803299209125837 -0.323055769781463
Ni 7.938568212635512 8.690509614649791 7.450304083264263 -0.08263499849341252 0.6003726427649144 -1.8328949635960239
Ni 6.849397714827802 0.645644974297789 0.2953182183501625 0.5600639158435387 0.08546064086766571 0.8515802202558238
Ni 1.9111556320149359 6.642899963052124 9.101848267370906 0.13939852853670187 -0.2149164563693589 0.5046702695645825
Ni 9.014503887747706 4.903851527750943 1.627813247735994 0.019160117868218612 -0.04150840365643174 -0.4990012442042633
Ni 6.584510505065318 2.0772313103554416 6.948811489725904 0.23638542487641223 -0.333131151739594 0.614708342661296
Ni 3.3760061552455327 4.464141121284341 0.24782818641164042 -0.08865780764872473 -0.8295029287408101 0.7840561092619207
Ni 5.916165584359778 5.493913880172368 4.781282717483493 0.2463312232352145 0.5020451732369096 0.14767953759857147
Ni 5.318545666747776 2.7308244451601467 9.268152852734012 0.7519970239438468 0.7745903358633305 0.9026906657783937
P -0.1827268475121944 5.603934588812099 12.613280177319874 1.1426774348528193 0.3568346660041209 -0.7632507424807952
P 3.9168534978081353 6.233374399287787 12.576041909893473 -0.058167609479667565 2.3517232698285433 -0.11260506249294155
P 2.4366789211202042 8.574302966232677 1.512906464197211 0.2562952764264618 -0.05789250144140997 -0.0787001822153806
P 6.397542519106634 7.959596774433809 5.89091859314501 0.3964684783456591 -1.4600497810962598 -0.14661175845568944
P 4.801542805705921 1.132680999325569 12.82791139528743 0.19417536716726558 -1.239333430215672 -0.7208833332581779
P 4.128292734516113 6.357211281791541 8.225256999578166 -0.9497580515798418 -1.8348777983540079 0.3154789858754696
P 4.74906677913626 1.1271309123887399 3.7846923932603387 0.32689468391157894 -0.5661569161151541 0.4159741524787546
P 0.07096935225655189 5.778230936019758 3.750471701742963 -0.15625776618588574 -0.9370747996852183 -0.7273967088966634
Ni 1.436654991558063 1.2253974270902435 2.608875137231636 0.024565605154506082 -0.2052714770804271 -0.5411526807613325
Ni 1.9057236320342095 6.443696351718793 4.847317851697351 0.12072614893817919 -0.1405400983403128 -0.0018090281842807554
Ni 5.99697339678209 5.7012019061927335 9.502673547554073 0.11709163750938544 -0.5691026290070391 -1.9215445437146326
Ni 8.903665654027263 2.314431670717835 10.302766268461049 -0.35907923906392347 -0.19546991760897303 -0.13487595807599995
Ni 2.623374398718652 5.120559259423505 7.07493925917805 -1.1647231017989488 0.329648078287 -0.15173288173233868
Ni 0.40363756646081334 9.1552817066462 9.20141373858954 1.344599535845039 0.0409504742704327 0.28739585448600824
Ni 1.6066911247340152 1.1640103771408294 11.488953375957975 -0.06146684905622963 -0.39305019669272956 -0.9407193384163411
Ni 3.794515411285686 6.767645206756668 1.6355506684443264 0.7780860077214149 0.7914212913777402 -0.2335279008229591
Ni 5.7276533843597495 7.78461007271355 7.961249083458046 -0.4854613007362994 1.2072126384217272 1.052224997197517
Ni 5.726399845902659 2.9181285247631235 4.755530677441086 -1.5837671514522789 -0.42383735727691524 0.19350945144849255
Ni 0.7775362955689503 7.322217887063212 6.829318390484331 -0.5603408236540092 0.45347497763768996 0.4364416763044871
Ni 5.195390055144616 4.502392211449624 7.081586646445435 -0.25301840544740295 0.10682907924111279 0.5387432999888916
Ni 8.161280211845298 7.102648817608161 9.187732910544435 0.24816313423763073 -0.6553767669149358 0.6215819298526779
Ni 4.858233628247249 0.4878998765297317 10.5402645712973 -0.29799111350335133 -0.5976020219983127 -0.1822919854661183
Ni 8.329272532319472 7.4577998798931855 4.914948976540999 -2.1325642361327466 -1.8187862921087838 -0.012319440797301363
Ni 7.0404805770260666 6.017229851559716 7.131123216169337 1.709184020997908 0.2466112163694785 -0.7079332008554131
Ni 2.210714988811589 5.304139058103241 2.6273421204437044 0.35249644364008326 -0.5892922165810367 -0.21862655823109445
Ni 2.3244690619865684 5.278178094984652 11.483144406078921 -0.4891027541436286 -0.025383473070111125 -1.629003654692575
Ni 0.918925441555576 3.576908402024342 3.763633855542415 0.6351815229139836 -0.4007393378068711 -0.18363975774326435
Ni 3.585646836775945 2.7093689535974774 2.7461039889186414 -0.29124196770497585 0.34576992354952707 -0.8412274162665898
Ni 0.9863894279382778 3.5710767231152674 8.269436054939806 0.69440251335883 -0.6713834267558373 -0.5197688157689178
Ni 3.776157431417712 2.6123650609650726 7.170036501649997 -0.34530069722259243 -0.0719435802178374 -0.9404226331115287
Ni 4.035449136183328 6.809311735036923 6.03124495652671 1.0680853612685413 1.1891622086779197 0.26552759365800727
Ni 0.7137402717150402 7.352729739797762 11.443857784144736 0.3112955439217413 -0.8206693896095802 -0.7884146433409326
P 0.28433158962660277 5.610492956681806 7.932000761153797 -0.6637061127162376 -0.5160617992309758 1.4734084617913528
P 8.621592250345826 1.8084018129815278 7.953179202550225 -0.2905629393600802 -0.5724221802985755 0.6270460382910427
P 2.0358009559873924 3.3692661151356678 10.36024009835746 -1.0027081214143119 -0.7927554368081314 -0.12274677891263376
P 3.9611906080187134 6.144327750774306 3.941424668289515 -0.1885500505606882 -0.17265060572161234 -1.5526773720260096
P 6.858081647907358 3.9487642267919014 10.588006219288442 -0.33370759306835435 -0.026374890449102965 0.28546521312219864
P 6.382708980697727 7.900071864946015 10.301995069801578 -0.003602886859909924 0.21204453413820254 -0.4650565118277023
P 2.399263523259649 8.457732973335247 6.09067267136602 0.5858173706585588 0.5962465364116829 -1.510379382588747
P 6.886504269880089 3.9281171766979357 1.4831930609581567 -0.22329876689578318 0.4799737952591669 0.4569485380085872
Ni 5.10190152035927 2.9275209795792967 0.669860067188459 0.3091877535501191 0.052687817312018936 -0.8111923033570804
Ni 1.4339662424037236 1.2241893066931924 6.934745516531665 1.2374488115984494 -0.7406592303335244 0.9556685035270058
Ni 7.150174275633514 0.8256185790103877 9.375455744660979 -1.5119834938510734 0.16545691618665054 -0.6287581358861428
Ni 2.9252319093533043 1.4724898409292437 9.144325962203467 -0.9281129625062403 1.0767630915481974 1.454698029866043
Ni 6.402002572602514 1.8641479398740335 2.414784691097554 0.7688475198422823 0.006650415436982095 0.7780533547112665
Ni 4.275792426300455 7.0955999346900285 10.32583319279392 -1.1857349281639256 0.48222479607687274 0.5278649625134908
Ni 8.4081455353841 7.291778703224727 0.6343885622975947 -1.4490043219153754 -0.5368198577139335 -0.5263606100538226
Ni 7.570300414611074 3.8619248959963404 8.544026379049134 0.1855526584952611 0.021742533883414166 -0.8001743549800219
Ni 3.0754476011280105 8.513833361096063 12.371913164129458 0.917824950316671 -0.9453848622128107 0.22967973072146247
Ni 0.05580153692575407 4.64736665909577 10.374385098976166 -0.1464145548432188 1.8295121631667202 0.5009285431339631
Ni 8.94688547996087 2.3396386940397678 5.724361483368085 -1.410945567370441 0.8064771572695982 -0.35299986563906305
Ni 3.7388056188412118 2.5167418773578687 11.505319319712617 0.04258852409448795 0.5611517495910787 -0.42018870478073445
Ni 1.0531358089723553 3.334993647029847 12.380395441022436 -0.11816018798321586 0.3710562089201416 1.0291393190226468
Ni 3.2755777408861477 8.558016049902507 8.086978082343046 0.21716000098789695 -1.1605751410688463 -0.19466619076075506
Ni 5.580662374847849 7.891179008790278 3.7068912564126424 -0.7131993343503588 -0.006668670269427224 0.30976290932729883
Ni 2.794073635571181 8.349392732916979 3.7340794155134995 1.5433949182828195 0.12383306999827705 -0.31540930897979874
Ni 3.522170556064713 4.195783971734838 9.053083804667674 -0.06704125782021357 1.0039332520706645 0.8590783284050817
Ni 6.923565406872337 6.250160914278394 11.60362126050095 2.415784876195143 -1.3214976597202532 -0.2582742545297036
Ni 0.861407101960328 -0.2048127417482118 0.10888162369394015 -0.09451503776045013 0.8277062418517036 0.3398211621652599
Ni 4.57976641853295 0.1830193398188489 1.7575435777104749 0.25617212058503624 0.10868413017198056 -0.7744057306563502
Ni 5.7983329693932495 5.647790267586259 0.2517423148258462 0.048840675651786854 -0.12642628464675 1.2480037042961603
Ni 8.076275770675334 8.879957426686634 11.364487907503275 -0.4433584580289784 -0.6419725776938879 0.04757003646947937
Ni 0.30528657416763616 4.879571032853815 5.809288713835982 -0.8464992061884905 -0.1348643881117742 0.6532792609559588
Ni 7.769358688152279 8.730423005812522 2.733088989633717 0.3388893943796099 0.6628779603879873 -0.2643222604959964
P 8.633836959332479 1.8161683012482854 3.571777069601077 -1.1230758585718077 -1.4148868114063762 -0.23585757739740026
P 1.8472524215393322 3.405400723703109 1.3023873973856341 -0.7904938944674644 0.1099902505779138 1.51858248722483
P 4.940467567754803 1.0005235282225762 8.169990487399676 0.1302024638597306 -0.634414819951288 -0.09532827769036487
P 8.704353039349837 1.3952246371900139 12.54321646118051 -0.10422069508398824 1.9354300434474734 -0.10583663342085645
P 6.36895639211776 7.754661403923491 1.2216867715850148 -0.552606688234545 -0.4106331998818154 1.7128316450528243
P 1.9544208760085817 3.2505978078644118 5.936001467901438 -0.6607030642238556 -0.2524054544537524 0.3595386951988453
P 7.148366636843941 4.056187022397372 6.093332352961934 0.015327888606321989 -0.003452477324974699 -0.4256055049209315
P 2.306510761046942 8.541175033239853 10.262470457232787 0.5125630420490979 0.05012854122527496 -0.3600004653266123
