# total energy = -340874.0829127254 ev
CRYSTAL
PRIMVEC
9.21771374824172 0.00000000000000 0.00000000000000

0.00000000000000 9.21771374824172 0.00000000000000

0.00000000000000 0.00000000000000 13.49105581133429

PRIMCOORD
 96 1
Ni 0.3627197895777819 7.317555564116125 5.180160465235419 0.15187814906095135 -0.5715032680287319 0.11949381919297487
Ni 4.128604636612654 7.479999328248273 12.854236906634096 -1.6933257138094129 0.7862402613974331 0.45349966022803834
Ni 0.8821572996924729 3.656528659976224 2.5813653454362573 -0.46790092325503296 -0.011388701452915869 0.011662781049908947
Ni 5.312822718981449 1.3034584235600488 10.146190681709617 1.5583253143404066 0.8530501199331308 -0.3185213722462192
Ni 7.942885244574895 7.405888912108996 11.494378981557906 -0.6769886887577566 -0.19817960323065223 1.488663073957578
Ni 4.3402433374283 2.5048122352326887 8.26277216329248 1.1758994301307424 -0.9280273447709695 -0.3578433097742934
Ni 2.186616766933209 5.462020628885719 3.713224050094116 0.64194455266943 -0.7247204476160809 0.534047437175119
Ni 0.12793541028878835 4.129618585092172 8.202858869409138 -1.0935688502516263 -0.10990540417359136 -0.854827780658844
Ni 3.4567900272247343 3.483493743089844 2.337945812187155 -0.4812212945130228 -0.5306168142270151 -0.9676819830481139
Ni 6.058489648532042 2.0070096203568655 -0.003527618937375754 -0.5833845928473501 -0.1627035218112295 0.6905402021899463
Ni 0.04924932119285319 1.1266903327263544 13.56255827014137 0.7265335895654197 -0.6771264998872016 -0.4973896767427691
Ni 6.67508093664006 6.829938522602728 0.10836159577737625 1.2698256852672583 0.8282538868250574 1.3469929757778802
Ni 6.972029575436925 0.7093159547885461 3.55090011623682 -1.907756488791605 -0.7089300175510436 -1.7871627516662318
Ni 7.619666122445079 6.850309669327579 2.4804654886967845 -0.39268792825730436 0.8064074803739273 0.07260872460566205
Ni 2.2619347035344557 9.055260468313154 11.83147998014366 0.15639609153596293 -0.1244989857170501 0.20141482233849828
Ni 5.10559008519498 -0.3879449842054863 4.830822952044579 -1.221428267800477 0.9375411977986756 0.3375989577029605
Ni 0.4967213770881197 2.4198525703625755 9.820597998366383 0.12607687172713125 -0.14568076200098784 0.90856975026699
Ni -0.22450662879206654 9.676110340035146 11.31787543910023 1.6567422582584241 -0.3878627389545191 -0.865538996428761
Ni 7.609969087895512 5.377798381091619 6.346313672784594 -0.7915138510915465 1.0775146250022412 -0.41726664603793306
Ni 1.9170078662295154 5.590561642948183 8.51251873505377 -0.7398529323821452 1.8254055971975145 1.5628064900402117
Ni 1.101184919609765 4.206558839260647 5.593121401973292 -1.8872827943182853 -1.0120885341879473 -0.24192100998266075
Ni 1.6614283253969637 7.922541750990395 7.016347419933943 -0.21464546209615937 1.6067049911953748 1.5526843140045454
Ni 2.5766643115766765 5.924381135545682 6.378395924447871 0.8570376438259691 -0.6707177681473803 -2.0012669965469403
Ni 7.061469049043815 7.57969811692519 4.934515775959449 0.4770532791782623 -0.5716896730079251 -0.7210985345927775
P 2.2197452290730793 7.7182864386483265 9.728737031436136 0.7373569054331688 0.46505471205548937 -0.7549409370635192
P 8.134715079186149 3.3126895128584026 6.12454747020126 1.3507308455537577 -0.18473659035186893 1.2057975032417556
P 8.3293747518266 8.327752434259374 13.66819326628019 0.5585243392705607 -0.4386543676850897 -1.3037272231107095
P 5.21303175317003 1.1202748041650439 6.672581092752378 -1.4355551383890053 0.4464581800002247 -0.5382866720674472
P 0.08434299984029758 6.282507738511249 7.2821475614400315 1.5593429569716435 0.4228958192992523 0.42742096086311554
P 6.10544468084715 6.4269677437021375 7.950197656654906 0.17099712927858937 -1.9882721269491692 0.3258896396858323
P 2.9738740195709172 7.879089449786346 5.21151359576479 0.05368771933144303 0.10509744126198674 0.9633669006125278
P 7.4512124091434275 1.2375978609586644 9.938415124600933 1.2662508234318064 0.022891302775876705 -0.21508306385421022
Ni 1.9073108316799483 5.394104516184949 1.1898372004880118 0.8149746532176481 0.8941443188702795 0.014456027524329944
Ni 6.723252707130591 3.2704262966894246 3.5516283155993826 -0.004583762715940493 0.935680233330537 -1.096349241210241
Ni 1.3297196891795509 6.424442090216794 11.190668228174005 1.163847898282847 -0.11626245673987073 1.5074971759449456
Ni 2.4806341728529224 3.49079417214237 7.441423197459359 -1.410725738050151 -0.31412735694358157 -0.9359095757325235
Ni 6.545083523852472 4.835022542292471 12.33882477198309 0.02941213461352999 -0.05347174666589501 0.28415806427500095
Ni 8.989584259980772 2.0293164869062497 4.37046821983137 -0.08476695723475079 1.414124222208739 -0.4615639252934115
Ni 7.113844096867618 1.1961458035733004 7.709409780595824 0.20242963675625783 -0.18546009878145478 0.6832722077736233
Ni 3.818797287552819 7.150825563229654 8.235736609743164 0.148104540951132 -0.5497260242526404 -0.10200568971054046
Ni 4.164618243062424 4.836949044403554 7.953368550081761 2.053202251963651 1.054022455417572 0.34846058300781274
Ni 0.3673664389280069 0.9393956131325787 6.529428159328722 -1.0772708844225511 -0.20929653907942017 -1.5797875979792406
Ni 7.198656278322527 3.3946165500034136 10.59491726840545 0.7332881346804339 -1.4998802828296363 -0.21910324075719684
Ni 2.744159382679511 0.8328794035879242 5.849950864749685 0.8650345459885167 -0.48662241092393604 0.4176355993415775
Ni 5.40459427409123 4.3215221614110275 5.812230137768945 -0.022255211853774572 -1.1713575763963309 0.04816370418942027
Ni 6.805751242509512 0.06571215741483671 1.2550211829221545 -0.9843458168570403 -0.8544508569353995 0.11731172393999152
Ni 3.8614753008270535 0.41983735097169056 2.8963677977966023 -0.5861166470665324 1.2838860200150664 1.9113064109263924
Ni 3.8091463415705027 6.129069680419907 10.603267595019949 0.43829389902187743 -0.48216026138752444 0.097380018013071
Ni 8.006551991375142 8.17952238426737 7.036866971845341 1.3997900649742538 -0.7480516661428536 0.29257405625283806
Ni 4.408933738058882 2.2182427417807036 4.431204655525811 1.0323855938740867 0.39969264170991164 0.4050467069329734
Ni 2.353042583275825 4.6281217461902076 12.252522086263287 1.2113706264541588 1.0253376858883696 1.6074344131622316
Ni 6.840658723345263 0.4236516407973663 11.969075554128217 -1.3639170052267284 -0.8188007118319576 0.4350157424912379
Ni 0.5765384796243893 3.5181523456624406 0.15540603991295146 -0.09533059168321001 -0.11103360424076361 0.020549027795945255
Ni 4.917032538858534 6.234778418266328 1.3416704546676819 -1.6345189280838495 -0.24554060901311903 0.45535034028353194
Ni 2.600888462523694 1.851193392195382 13.563502163998665 1.102575681735927 -0.44040220361413185 0.15108702061822366
Ni 4.724852431136173 5.034586038488407 3.57762595461421 -0.6847475067675691 0.03034595928170903 0.17989494598885147
P 3.855972325897309 4.488279815437849 0.34397833459091914 -0.16292437957278394 0.009638551531028562 -0.025231777983595254
P 1.7593480953780003 7.33872865191114 13.170399869117816 0.4646186529593353 -0.6969815869399157 -0.04313436929562894
P 8.600329438694018 -0.036160168093627765 4.537095904098544 1.0349286720109143 -1.2499752262002344 1.3931633036863555
P 1.6381075103680622 1.7023734085425688 2.025911463557761 -0.7304825469108387 -1.3235337163136753 -0.5737262438219797
P 5.292903240215656 2.09785018640818 2.144713963360132 0.2424971942011049 -0.7479951018733053 0.9751484666284884
P 5.5658673886152075 7.810343742875063 2.6128530545819997 0.5072195183489975 1.6830274172071982 0.48635115954042046
P 4.45238603926293 0.8336334125481472 12.236643653074045 -0.24887635825457138 -0.9114591559996432 -0.7109858716388078
P 5.7860324743722495 6.935831614718151 11.760220602774519 -0.23453371637965414 -0.18814587314373402 -3.2275515639984547
Ni 1.5785518637665863 8.925723941198072 3.6868217534588257 0.6491832365097142 0.12284705193592392 1.1533498269650009
Ni 6.661143753903421 5.535393627948983 9.898293183266427 -0.5970515488114814 1.3205296393800288 -0.0029662817171755363
Ni 9.080470914599337 5.392528287184972 3.8833332647314154 -1.8110110190387392 -0.007885316285347709 -0.2086460499796149
Ni 9.121563481160145 6.067735015122551 -0.06751790747972282 -0.049022966865922016 0.31540390966316006 -0.6135125225809821
Ni 4.708739868025296 2.942432398992426 11.776922177774862 -0.9951020269322797 1.7802482839345857 0.22792880946862681
Ni 8.930904296157061 9.151327477890707 2.3148084296559115 1.0401431263323182 -1.058917578726344 -0.8503846572858258
Ni 5.728670643571911 8.290844709604938 7.272785129888704 -0.5174476238349088 2.7519152197723766 -0.36217793259390524
Ni 4.9619135856473555 6.685192768294884 5.878876049556283 -0.7803691473286367 -1.3913331924561523 -0.6017409838673508
Ni 4.479854825344404 0.25106101769928385 0.8594208876963112 0.6270804910734039 -0.21878853773025544 -2.32295159701249
Ni 3.0163953317164993 1.6316366755260507 10.167358238876561 -1.666473369503259 -0.278065835334334 0.6773278172647302
Ni 5.761347437752724 4.091660041104418 1.3830082124062637 -0.03889616284456527 -0.7235984181964957 -0.6571377154701005
Ni 2.5810795963193023 3.9779779811236105 10.067686181568648 0.5604274698305445 -0.5084371928061825 -0.8234325541770141
Ni 9.215003442404404 7.371156567828798 9.657207575062905 -0.08659372603084442 -0.3065986526667042 -2.801904150095994
Ni 2.2851817768557563 8.613501551214295 1.3777338367700829 -0.6822509655979606 0.16969306575518517 -0.9700818507388583
Ni 4.30425738411888 8.544857239150963 10.199048737718208 -0.46897744414866327 -1.1406843156821904 1.526254916168423
Ni 3.52390419885534 7.293561856005363 3.22979922465785 0.2906429006683962 -0.09710053909943923 -0.37919297909466304
Ni 2.031602479841889 2.172108085962659 4.024719162486675 0.9780851806593089 0.5174615077919797 1.304011587120348
Ni 6.79115038440446 3.6032963648015572 8.06565412647487 -0.2404801637710762 0.6655840464652408 -0.3092273485388029
Ni 6.769461104656236 8.176738634805423 9.471030964110634 -0.10412222183291099 0.2957748225783229 0.30702339890894864
Ni 8.08882008391781 2.024053172526209 1.8195250158660166 -0.49476226642225113 2.5392327949398594 0.45442037227009485
Ni 6.7898691222348875 1.9398677955859092 5.346815802642944 -1.330634846134831 -0.37194221106952075 2.730147489077982
Ni 8.050594226240001 4.67239442389132 1.7362180870175168 0.30063600732536605 -0.40952016932329466 -0.4129739321998501
Ni -0.013710426985766126 0.2570119735027064 8.754615526422775 -0.10424923432907852 0.6177702694160716 0.35330942645968183
Ni 3.4886833157622834 0.18630012831250353 8.163329627049478 -0.3748169615141545 1.364225794716399 -0.570333930310979
P 1.6597967901162858 2.702771849288298 11.876216308831316 -1.3271854541336499 -1.1792850587735237 -2.34985330649934
P 3.2212958840000785 3.9649072634512854 5.151222375629992 0.6080705256298045 0.18995824376212445 0.06567394515904174
P 6.693829765797683 5.481986196218763 4.136587176460492 1.2546937147218262 0.20082218305982188 0.5202542400457686
P 8.73216117645819 5.3777522925243675 10.894930796924491 -1.3307441180191855 -0.876859820758219 -0.3032585325498778
P 4.970605889430855 3.9822457824510336 9.834210717589578 0.22662885971028066 -0.08340221567674024 0.278745635010178
P 1.059023098288739 6.998235534775726 2.6051359848815268 -0.7863266504636522 0.03918206951610026 0.17367416189012025
P 1.6367156356370882 1.624926180134335 8.010947918919522 1.1323693680585916 -0.35500661165644665 1.253223557934203
P 7.657606231005932 3.32532699799857 13.440409740356591 1.0924874442619894 0.7553993647571764 0.29802350940318356
