# total energy = -340894.50508624903 ev
CRYSTAL
PRIMVEC
9.04921734053080 0.00000000000000 0.00000000000000

0.00000000000000 9.04921734053080 0.00000000000000

0.00000000000000 0.00000000000000 13.24444428677662

PRIMCOORD
 96 1
Ni 6.378666428462435 1.9621507879996742 11.446960978105455 0.630491830747798 -0.16309664348459005 0.29802788027855764
Ni 4.5534755409215295 0.39467707820012726 5.930570916935704 1.0226992198242582 -0.1920063845404048 0.12054668593752144
Ni 2.972912138620257 1.755367128575604 4.769311132187615 -1.347162411476209 -0.435261797063773 0.33945529418540893
Ni 3.51454397754058 4.33110912969105 5.323723180385633 -0.5241358344883619 0.45027626819473426 -0.8114059620297832
Ni 5.091641529701402 4.442658828597904 2.3274722060023625 -0.39448641491862385 0.11605368316317433 1.3583209991961895
Ni 7.306419310836684 6.120211739529309 2.544324024346183 0.18125737355401686 -0.06465090321116608 0.3399857127675822
Ni 5.090428934613098 4.439021043332993 11.58835861461873 0.5616250896830715 0.5643504590340345 -0.017707958802724345
Ni 5.560101399337972 7.589867937336187 12.359887623220922 -0.19412883020004632 2.1216817848922878 -0.004831874171004581
Ni 1.7819899252158218 6.32195498504155 0.3524507165542239 0.7363438907876222 0.6588909507157813 -0.8080092776434084
Ni 2.830667495388584 1.7404359203987314 0.30564997567595126 -0.6553225166382327 -0.6899403638224182 0.1255495384687515
Ni 0.4457047083750163 9.18070220101973 4.819175937968123 0.6442631735002775 -0.5667593255858433 0.13587148922004985
Ni 8.578838773235612 2.3583164624089505 1.4351542478578097 1.1541784935138832 0.48170928989303485 0.36031182591944394
Ni 6.9555540171143315 0.7789276484842589 4.791283536172017 -1.577733286553373 -0.8233829318860013 0.07909458944032184
Ni 0.7139768929148632 7.337648158969039 2.3941712703110136 0.08343486868688857 -0.0989645888913715 0.5307962772276729
Ni 7.583795912677592 3.9112797526257004 3.854517633589184 0.5051119850876913 -0.5357597918805355 -0.29898844441961414
Ni 7.591370107370952 3.9437302450634366 12.64734505288549 0.254699906914884 -0.24744708200721255 -0.14204419368966503
Ni 7.730936182347864 8.735942230907543 6.9799407522148496 -0.21325423817558756 0.8136955293949083 -0.00966786210706722
Ni 6.7692849328035765 0.8689275418442008 0.3947449473282039 -0.516286256536956 -1.3195109683075275 -0.19829890241733591
Ni 1.8016719723580628 6.454227391054488 9.275614009409011 0.5427470218316459 0.6470312231637179 -1.0864412380679096
Ni 9.132741350512202 5.026070902762239 1.2527482743171803 -0.7368324003882666 -1.0515878778341503 0.598670315361827
Ni 6.3889372898447085 2.0106002962293563 7.033276837666053 0.327346683847333 -0.05106699387914431 0.04450168195680078
Ni 3.3374417501287175 4.3478411320662245 0.38067070000851305 0.5215346494200889 -0.15147448586462944 0.10482439010625817
Ni 6.229698216942632 5.757817743250996 4.728504592701076 -1.4484510205150667 -0.5645391780060729 0.6306622948873913
Ni 5.2252803674929496 2.834513412646263 9.351146919428125 0.9588975519872646 -0.7075030552965299 -0.36557950207628653
P 0.17812840862838242 5.432380749514712 12.269242520683397 0.5877567537731169 0.4720049181210774 0.5292297040715015
P 3.978433992553319 6.107597130924121 12.496994120996337 -0.5428958887046843 0.07456764810424577 0.7938869793094134
P 2.398558330749891 8.320818446722177 1.4060963069022 -1.257489018078776 0.6263598108572954 0.2459321880245829
P 6.199500979557041 7.778317882962473 5.682939091626541 0.6608838127760941 -0.057188533395849894 0.5789921202066094
P 4.653143617806423 1.0415920332015556 12.704494478412897 0.9789873807586044 -0.19809784215012333 -0.6291517717801357
P 3.994948813718648 6.129224759737894 8.23160764509134 -0.3647870880819782 0.4321160523459397 -0.6076884597000374
P 4.8796364720239644 0.923807423728723 3.5289557606572384 0.8299436158226546 -0.3218054423141296 1.8949552232618785
P 0.12446655136240999 5.549278535714009 3.642751475242577 0.18336002171931648 0.42091247032063633 0.5273733675890531
Ni 1.3779242842984185 1.0986473468713627 2.6178570573913036 0.22272463955986802 0.013513203995086405 -0.4946123711079481
Ni 1.719514130516956 6.4870669998265305 4.905595961052446 0.5979887159137701 0.538334237475931 -0.6047257775272875
Ni 5.88651570851856 5.52784094045885 9.283295889785585 0.28658004345293225 0.24012920818956066 0.6529982393804303
Ni 8.739688606777376 2.3148621220057124 10.156184273944342 -0.9209688952622914 0.19026420503831748 -0.061650425821945444
Ni 2.258539794919134 5.496322517380033 7.000840823975639 -0.35025881255881613 -0.4135022938994943 0.7787416390275427
Ni 0.8130766789673282 0.015304035920440568 9.092549252865185 -0.7791571292984065 -0.056326699616186866 0.6591154080217616
Ni 1.4095874948504652 1.2748356033584594 11.39108296757735 0.8807527280547219 -0.7516149580140797 0.4190165388495042
Ni 3.935024898235466 6.69633014472967 1.6485628391038727 0.08607924828827111 -0.22370808651905985 0.28821140840876813
Ni 5.626341668340825 7.718728788511135 8.031258883930649 -0.8307529990978272 1.0171656916005385 0.7668698272906213
Ni 5.156705400484259 2.812270437071262 4.719975705606104 1.5421553894487634 0.009973052052311856 0.14840124625594442
Ni 0.8495549779259894 7.861082022347731 6.940631858154536 0.938761700469338 -1.3055426790528935 0.1322043247811078
Ni 5.192558398542907 4.467878996591203 7.096823154745116 -0.15747852596686426 0.17470440292684752 0.2701810332696185
Ni 8.271925526855727 7.305369601655764 8.961799830086287 0.06414902387408307 0.370467169185891 1.8512631816905665
Ni 4.700543416855186 0.2692359261585359 10.602972173603462 -0.814434721553778 0.3684740500152622 -0.4755643533375616
Ni 8.258125470813466 7.111707306993188 5.100660884361941 0.14811276848124816 0.005438654517068053 -0.7900678626736393
Ni 7.22343799024158 6.294101494878875 7.272736315033074 0.06659748541457562 -2.483583581006671 -2.187922915408709
Ni 2.1275252300798844 5.158632883721637 2.697257602789081 1.4565998748744462 1.251018065642452 -0.6204861256853379
Ni 2.4411620447479008 5.053996786661529 11.330621528599803 -1.0600830597893547 -0.020753430497267484 0.25980611779319773
Ni 1.1577206359493168 3.501712187725546 3.9308586386932647 -0.8559783493235193 -1.266610006543438 -0.25108339320821915
Ni 3.6539471666101084 2.303505354574212 2.609420472310517 0.6739347324227813 1.4242127167929923 -0.9092971153513179
Ni 1.1265098862511147 3.3258587522702947 8.161530508047884 -0.4023737880865006 0.8215870163278431 -0.039139132093306786
Ni 3.647667009958745 2.507257526277524 7.127311776920582 0.1989823016376057 0.5662924132517537 -0.540797868525075
Ni 4.125465671618668 7.00145164612833 6.050366262443022 -0.3920909181032538 -0.7883987025013325 -0.5423940093676014
Ni 0.8154349049375663 7.237138504895995 11.291404936553672 0.49901075728595995 0.38539345147842013 0.2981497505684026
P 0.19651279804179717 5.526999363270699 7.945673198660814 0.22927015398786965 1.2291438912771802 0.4856340788687379
P 8.548786323323252 1.5394709075551032 7.979738071425069 -1.0177976687575825 0.5542329109840584 0.4885106290855844
P 1.753521088291918 3.1763928338112617 10.381842790347394 0.29895090631345933 0.36290066969254275 -0.20604975000734835
P 4.04392317653879 5.882850775602419 3.8273129722909225 -0.10111454535483876 0.33856260716781045 -0.14290525613837968
P 6.941799207157455 3.880847235596111 10.586548749530609 -0.2719697497389251 0.7267264223025162 -1.8797350638780144
P 6.350849135168068 7.917485792388002 10.304972406044316 0.8167906233804643 -1.107426582070325 -0.5394752930589096
P 2.491828611161422 8.741652286883062 5.657284561213551 -0.8509865525358827 -0.8304220981209698 1.374547745467697
P 7.086206613270505 4.028123243522536 1.5288190741338932 -1.1801219528525224 0.4810492877115327 0.552030761126417
Ni 5.27324121800048 2.8693619476093764 0.4524074634638705 0.2075582162320748 0.44624297866562507 -0.1355508726558375
Ni 1.4004749332540347 1.191211788350896 7.128291807130009 1.4246284641741722 -0.29330322110937873 -1.5969700232957982
Ni 6.957237171490633 0.7035015192266524 9.286938199659033 -0.9145470508963475 0.27486249790568795 -0.795197984811353
Ni 2.843282103993772 1.6452019598815149 9.164228101331249 0.07807463281623973 -0.3565546728698569 1.021901663623627
Ni 6.488795400288217 2.0775102072958997 2.5283376774581447 -0.5559509221164296 -0.2552136133265088 0.7271784222382703
Ni 4.002948321614621 6.848863747777769 10.37821405429956 0.40543828594443726 0.7443605904445116 -0.00991597356213131
Ni 8.26137413974407 7.234324198385081 0.2078822343772049 -0.478066550934125 -0.296866770090921 0.13613939816945586
Ni 7.558973910235676 3.8750557366668996 8.472418170567941 0.05400062258617151 -0.40711901608096984 -1.2365571530221156
Ni 3.114034678934395 8.268912137569123 12.625173566125394 0.17215438281148415 0.3689445618937775 -1.1134223946424437
Ni 0.11610055017482288 4.860415934952645 10.0157793365444 -0.2607391711304283 -0.3282632821243314 1.3786584252019611
Ni 8.702704456584117 2.35284168607743 5.835992119734854 -0.8746139621468357 0.16204686206383703 -0.3152162191323862
Ni 3.7069122341611602 2.6467331090836677 11.323813802592856 -0.5888790403030181 -0.6493205334185269 0.3985333312944878
Ni 1.0397278944837158 3.330437656111202 12.817204286949007 0.13872927038381913 0.42753871738790233 -0.3718671348572112
Ni 3.205929478350239 8.524416781735182 8.11359951995671 -0.13692075642017065 -1.0457098217868184 -0.4341320543347039
Ni 5.439321499012688 7.85794194402205 3.546980896152701 0.38097835312986 -0.33554901715246727 0.14752784251205558
Ni 2.905830292429253 8.36792867082448 3.580396940052542 0.6472605655657047 -0.3478823419068396 -0.3361460273065179
Ni 3.442322176049901 4.261719733145439 9.201033981948093 -0.5616657131130198 0.3202766643744291 -0.287195308439428
Ni 7.310980116243438 6.300978899857313 11.369944901407438 0.48547544180368657 -1.2664837653782186 -0.5342690662676218
Ni 0.6435359773449167 9.090210030250807 0.12147669004020471 0.5521343765838169 -0.2913913487986465 0.7868442135300192
Ni 4.4812356409966965 0.08204291678423033 1.5370040909799423 0.4200112986626057 -0.0030112760224980397 -0.6981990042867846
Ni 5.9181427222023 5.789851971703195 0.4731681772816773 0.43520343302201175 -2.107412676567783 -0.6268017834907206
Ni 8.253229844374868 8.909587657396033 11.14437868701857 -0.4264195161817946 0.5705162215251142 0.8261309269447837
Ni 9.054013161943237 4.832643887743662 5.933073930379173 -0.4102840440725128 -0.41482384092439517 -0.5963167275279858
Ni 7.947990703154207 8.769632466084813 2.261435544383739 -0.09417153837810234 0.5208797894449093 0.5993084631664581
P 8.461470427748317 1.511354990097198 3.5494051814076006 0.5866246970512026 1.2802792765004145 -0.5808446000343157
P 2.008880944984747 3.240397946196122 1.7001234681645907 -2.2263179702471403 -0.1274218157907999 -0.16129352883758027
P 4.916475834743994 0.8532461535716539 8.243752599330238 -0.19317777914068665 1.1384032329574976 -0.12195642180085449
P 8.499766714417726 1.7354407525722868 12.619200177932937 -0.16792568944211725 -0.7002088356279619 -1.7758390991232964
P 6.293929559754414 7.663302333915169 1.3145173251623405 -0.00816788052277303 1.4188262556700983 0.4191669483844394
P 1.7119670834748275 3.147842553933666 5.965284618564371 1.0157937509536765 0.4705995531331185 0.9959332645843235
P 6.918732752828456 3.8961766093243666 5.983177635490511 -0.07517931354631568 0.21544378962773864 -0.30514186561551965
P 2.4762096624867054 8.6280303172656 10.281715013234994 0.35448930570039594 -0.5939862796225963 0.7985633017391601
