# total energy = -381170.399895865 ev
CRYSTAL
PRIMVEC
9.25643652755207 0.00000000000000 0.00000000000000

0.00000000000000 9.25643652755207 0.00000000000000

0.00000000000000 0.00000000000000 13.54773051301382

PRIMCOORD
 96 1
Ni 8.177561819223648 8.066577145330177 6.078256629109946 0.47991157456266376 -0.6782508432996318 -0.11984863142923229
Ni 4.238263102998452 0.29611155303731146 6.486734842013397 -1.7081846331991162 0.5477629869889986 0.7609899714710765
Ni 3.7296311725754037 0.250350507805689 11.645168266252377 -0.5812035260356313 -0.11796349859137747 0.7298415708927302
Ni 4.122881621757241 7.166842258998294 6.658939735773144 -0.344459946488852 -1.4922327935867075 1.4496962057760774
Ni 0.6657710481003081 2.6751471804761255 0.9230722140900344 0.6938414986490373 -0.0938367807465029 -0.2980990998361253
Ni 6.170507201127438 3.006749762424392 3.5594626948504002 0.833549330896042 0.6346508472214941 1.8655973389250515
Ni 2.5565352028888912 1.2902731996129053 5.205688458325181 -1.6432632499353828 0.6277780313610607 -0.4632266577078151
Ni 8.438139763742006 3.412949966299888 10.002357202210398 -0.1390221190338896 0.21623517518078242 1.6186289963264704
Ni 8.169064410496858 0.9903831691874944 4.6375098717589545 -0.8537399469113038 1.0683671541750182 -1.6240373118262352
Ni 7.64931549981142 8.211644018496022 3.506884284120651 0.8688876011860198 -0.1315144978029348 0.5451733718849514
Ni 8.381046063277042 1.129812872511711 2.074347060320628 0.15148605582885524 -0.9773498451551813 0.021957992328329925
Ni 2.0433398492607155 1.3684993446565856 7.815347276054941 1.1567002314944723 0.006367079868608389 -0.2327105471279863
Ni 5.649129157614205 7.3472502068034435 2.561943738748437 0.15639814841849195 -0.10992057368224294 1.5310117141271182
Ni 7.3826560764984 5.158667612082973 6.159326351453049 1.5482172793721272 0.5492002336561573 1.1596174051412675
Ni 6.049146061893301 0.6689265673105069 2.659284425209133 0.671946755458475 -0.6940793256914564 -0.41160019178077506
Ni 6.095307910826307 8.53160200330017 7.765505067960964 1.1768034300022507 -1.2329722638843348 0.07801241211973661
Ni 9.11294324260005 7.165379742027888 10.266063822273042 1.8779800288601205 -0.15868591601140414 0.4473272128687392
Ni 3.9119829720500814 2.8470854888640513 6.306062160123731 -0.21921714062724182 -0.2636092935893718 1.1026975520257718
Ni 7.824882331315797 2.003731557384972 12.132303974141413 0.7131476551768169 0.01704512840774484 -1.0922179926506868
Ni 0.7151994934817716 6.028522721323272 6.456604215492077 -0.6506510793044924 -0.02466356418495107 0.7532864321792316
Ni 5.3686128488284135 1.6783493007791923 7.974329350243642 0.7349043301276182 0.22771797900940136 1.815469054810093
Ni 0.3462083131356314 8.549763131755466 8.211536643832373 -0.7661303780214355 -0.04085457212251674 -0.2287533622524512
Ni 7.206311704326213 4.3240517566802446 12.396118894511359 -1.5019415362340391 -0.7858535674819757 -0.9928736518223933
Ni 1.7955450435786284 4.411543594682003 2.526435122608092 -0.7956034477798879 -0.746578938252069 1.0044785830511733
P 9.241348530027091 0.10213181800425385 10.626501129629611 -0.2534552358745054 -1.2261393001229013 1.0833399734347666
Ni 7.189372425491763 7.9825472145874805 1.0592390235404021 0.4810724276399844 0.6488536210844374 -1.0217139730928533
P 2.4732828128140056 8.52767727421503 7.629403979209899 1.643587466044021 0.8816256175779784 1.1449394914141184
Ni 4.330716390975765 8.899184354007728 9.068173561719886 -0.6881968987687502 -0.44006950286506147 0.4831233966317422
P 2.971019917451181 5.083070295011416 6.8286796404872 -0.2777583313962442 0.6031098391904194 -0.4858287113780471
P 5.121928815528912 3.5990228532562316 13.64568043501515 -0.390965803359875 0.8580300896462256 -2.9684396440588037
P 6.6832119636199705 6.490298570074197 8.324416110281806 0.42864943395357785 -0.27472134434213336 -0.9864872886800753
Ni 6.1249470205683325 9.041446526907542 5.4498593691090775 0.7497403666991862 1.1517719409549194 -1.370856412659039
Ni 2.3282714782672898 6.808645934923594 1.6276379132958412 -1.1882561519238828 0.7945248700037284 0.814992393829461
Ni 5.582630917643338 5.084356939687913 1.6530533110530807 1.766086904832539 2.1795028096658142 -0.17372558395334595
Ni 2.181371830670177 0.24580004361169147 0.6089124611229906 -0.04556329045209572 -0.15080882725617253 0.09009891097062549
Ni 0.18300622953675152 6.508357877727755 13.179178249776317 -3.556560980260191 -1.2741901328835412 0.8611357251547427
Ni 3.104692117258989 2.632271366508273 13.504066212671846 -0.9226825355192882 -0.331635541030674 -0.5602523777052609
Ni 7.132473110193751 5.534136446706899 10.409249787537707 -0.67815931202709 -1.761210293466528 0.45744141848460573
Ni 5.271096290073808 4.687487223826147 5.734361499461052 -1.734484704546226 -0.31448319762110355 -1.271640884099126
Ni 7.0585234388230305 3.5081894416701904 8.240840670572318 0.9989285997672216 0.12636920615656946 -3.7809362680496053
Ni 1.432627936877934 9.138222570740423 3.6363873849191495 -0.7470399370488877 0.31091964863956134 -0.9240971564786279
Ni 4.550806682148832 1.2141297527865758 4.21353360718746 0.4632798795432537 0.7609272365539411 0.5347161811073694
Ni 3.367389785740783 4.934597053205637 0.7520697314344382 2.6199865172501586 -0.5388214615249947 0.8518715262439974
Ni 1.0110527919401315 1.8206484994250915 10.004308459029144 0.14218560436353578 1.2685241928470152 -2.6096982479502735
Ni 2.608908120727862 5.392633301601855 12.20590930607353 -0.5044944061083505 0.6492202603952367 -1.1723834465576841
Ni 5.276289150962401 5.692514075590744 12.639748303758743 -0.36912171090159007 0.005365892297603662 -0.4345729985268645
Ni 7.70298431876341 0.6573125164069091 9.165906721089096 0.22800131457777506 0.7475868106912932 1.8555926623038559
Ni 8.291230859708373 6.102805624408768 2.337539022512673 -0.2897160179787527 -0.022000158420175015 1.3145140293135682
Ni 1.7854647842066527 8.308281215781081 5.741284388335525 -0.41750010220497774 -1.8157349068769697 -0.7876119449339791
Ni 0.34413116878019395 2.9342163258414695 8.012507522676804 -0.4840502793213857 0.7261731209022074 0.05929786642936885
Ni 1.2129726982213809 1.4352475084135348 12.136016730830208 0.5060604650438898 -0.20224194622548397 2.207628621367753
Ni 1.941287636610547 6.745239344750926 8.541450851759107 0.37971439881577185 -2.0679678403086 0.2983641805720539
Ni 1.3297519013773471 4.845892622019555 10.143930696233008 -0.4784673859169695 0.4471544347363009 -0.6426166390357901
Ni 6.971698064250823 7.723940891048215 10.447224318367395 -1.3318774602926804 2.082085510656904 -0.12428069905865693
Ni 4.380654866009567 7.1858549796135724 0.7031911183823554 -0.39270129799374304 0.8213311915632951 -0.0993422839457644
Ni -0.10941570790306723 4.7162006899160165 4.470060009440332 -0.1318551689718052 0.6698798456271172 -0.0014369895568426864
P 0.4642065889814865 7.241819394822907 3.9281641487334156 -0.6038282054136828 -0.9481374852572834 0.34642735462786794
Ni 5.990136279068373 0.5885455238446082 10.818824888168963 -0.16816840158054264 0.46470889868029647 -0.4720864220912902
P 6.996449775509468 0.8925268992125477 0.10703217549876626 -0.878005504326888 -1.5776862353655214 1.016984685937984
Ni 1.7057946350656095 3.522435097476867 5.804809460895667 -1.1328609629830297 -0.4904168449693618 0.4109921258831309
P 0.6528509140035186 2.429536893813126 3.6598922541783394 0.6013581466066353 -0.5257198911460301 0.19891468162446388
P 3.4219935047814496 7.392782618052984 11.085254751856247 0.039895807753673226 -0.46087975474219334 0.11333911244548868
P 7.545115793888251 0.8318518834573922 7.163267423213668 0.29655001018145055 0.7545714695392424 -3.272817377814789
Ni 2.5871092127195947 3.699205265729045 8.464215145423232 -0.7635209654230464 -0.09162743180000994 -0.25924150353897935
Ni 4.893331859192536 2.394510538015554 11.754173914017537 0.4757764693483677 1.3738100959707242 -0.013880100416201902
Ni 4.726984438463631 0.9570322284003235 0.6243540485282525 0.21030286885674748 -0.4558154528454085 -0.2791863220920224
Ni 4.734713562959131 4.53236786059789 8.065261805700464 1.2557411821497342 0.16751636981884052 -0.1670376304102091
Ni 4.946685959302791 6.5547696504468425 9.48463082290492 -1.123082543440027 0.2960483879546837 0.7482612110504985
Ni 3.959996108287399 8.007354464465255 4.564758908917775 0.028000856088300163 0.5777988712294565 0.6098641271951174
Ni 6.133416659985557 2.417309141168149 5.97033583570511 1.30017344432118 -0.40527399245243106 -0.9261362983958437
Ni 2.7452739435634435 1.512575779114624 2.64206467634808 -1.0006743788137349 2.336608525674292 -0.6224761595321731
Ni 3.453585722629524 3.5774460997244812 4.016766759117761 0.555755518276172 -0.25872933978925117 0.5668781105518947
Ni 8.45694884275381 3.021671138097142 6.075628726781476 -0.2512787970484769 -0.03588822925617691 -0.5995462902088772
Ni 8.984556468046051 -0.05899960074475363 13.303939278144822 -0.27717777630242585 0.5156784477496281 -0.8201533692051101
Ni 6.635430238295692 2.7087573014858997 1.2290233591497612 2.0539226750694435 -0.5358541513665546 -0.9959337788049556
Ni 0.38840933288106294 0.8511737690524909 6.242157573666204 -0.2179344172600763 0.4292024782435705 1.0533166875997988
Ni 5.637752997129211 8.364328938919108 12.672398532301232 0.02260051100833527 0.5257394315300559 -0.23041146668116447
Ni 2.1304521733650907 8.880986199806348 9.887485750621526 -0.6648142581787518 -0.28615683987258456 0.6523901734827862
Ni 8.359487822618334 4.6113530334363375 0.6092688339290705 0.6957914232865565 -0.5447092877643394 0.8430066196541999
Ni 0.309120548924708 3.9989101674240253 12.113391223040566 0.9157657537947972 -0.44101926837284045 0.7926430795999833
Ni 4.046636354129174 4.490371408099585 10.364447709129717 0.4154779295686264 -0.540937736537049 0.41687506702646915
Ni 2.122519407266116 5.6111037163836475 4.688070379327004 -0.09415456909723785 0.923853415898938 -0.03966517980010588
Ni 8.52774206927068 5.506700368857004 8.559916516975962 1.5572199970913696 -0.36058796239896607 -1.1317805854346572
Ni 3.7082673170836498 8.762198349925203 2.5656416851387998 0.03182254382723552 -0.3932756824399743 -1.872910070536381
Ni 1.530912779863829 7.767742348668224 12.42259137731936 3.6905079987640184 3.024652958025578 -2.148564982436377
Ni 6.012712727744452 6.8069705199131905 5.160913223583103 0.3824515952412768 0.33480622544917177 -0.8591485195213848
Ni 3.651099565126512 1.775254934723375 9.598363732801642 -0.27344042074718067 1.255356802227122 1.0841611837844813
Ni 0.29489988549663965 8.152699030726746 1.7212121557359152 0.4365609754911708 -0.3008668923892496 0.5532736323945826
P 7.307382734705096 7.013731542495215 12.563717785457978 0.2152319307272487 -1.5225990645833907 -0.6371689856576576
Ni 4.60678961023121 3.1392649076670054 2.0413987745221447 -3.5089117538133445 -2.206467768290432 1.1145935321324094
P 1.3523653757995113 5.0543753417945885 0.5662643554935679 -1.8128676126315035 -0.9479729346549609 -0.7128185539721723
Ni 3.927524528969776 6.0055204765672014 3.4593043491125424 0.793054456105789 -1.0630475417343175 -1.369534608523822
P 6.477395097563146 5.322756462300619 3.618016135354815 0.4937633928440916 -0.19939187837119854 0.7231284205386127
P 2.376914052188073 3.152112841558927 11.10415361830231 0.4899756436668852 0.0858715031528392 0.7841959772738946
P 5.962098532844577 3.285831323549343 9.83860621192579 -1.940592047264387 -0.48191420681498937 2.68868690794035
Ni 8.320573763481708 3.4988867229660254 2.637580858497038 0.3688671716886228 0.34906324958881824 0.6510115479677047
