# total energy = -381170.2620519741 ev
CRYSTAL
PRIMVEC
9.23256209875613 0.00000000000000 0.00000000000000

0.00000000000000 9.23256209875613 0.00000000000000

0.00000000000000 0.00000000000000 13.51278787320430

PRIMCOORD
 96 1
Ni 0.4956260950389085 3.8514833294471966 6.799391495393945 1.440645922648351 0.22971546905540438 -0.28997492806709413
Ni 0.5217856366704906 4.411456689734737 3.1343726844079915 0.3567436489522114 -0.233285702905166 -0.2748010485401332
Ni 1.3132211768874764 3.1933955310574382 1.2679086850495285 1.4106594035885898 2.4429910042962892 -1.3719067083004244
Ni 8.50398375212375 2.728656049477376 13.030894554958332 -0.6609766296002165 -0.3131318257995317 1.283265612822248
Ni 2.128170206420236 6.0611308969526 4.243893995789037 -0.4529954668981102 -0.4775631289351453 -1.2788571993419073
Ni 4.7916535995916405 3.049552212563738 1.7172187087434114 -0.3741140219098589 -0.9920030762919817 0.12757813886300612
Ni 7.517835322409434 0.11013246426930666 12.819878807194236 0.10704710878918983 -0.145119233070563 -0.770590470675318
Ni 4.281849982095805 6.282555435298838 3.1232511400268934 1.9129827701875504 -1.6622757864821438 -0.5476028072620505
Ni 3.1361167154005116 1.3648219668143882 2.1429256872685434 0.01718525353003492 -0.23034384666802268 -0.03171995681110021
Ni 7.740995582442245 8.66670766024002 1.5032845480797103 0.9785559496481406 0.8229098489043247 1.3904297068052764
Ni 9.365234080902075 5.478242317377423 11.221749071274093 -1.0723485074202692 -1.3562373771942837 -0.6334997643361864
Ni 8.931460612815458 5.8115101137617025 5.286350898876989 -0.4269116253268648 -1.5875816401023626 -1.067649045062071
Ni 1.4620316138246685 6.32845973437141 6.5007587327065375 1.295788427879607 -0.2181514183668888 1.3468680201642418
Ni 0.8104758531649677 8.950147318632611 2.6362501045603097 0.11684866826064391 1.0860015794273294 0.059064153152007956
Ni 8.359918852138149 4.370787253408373 8.75442161706604 1.5614178372228011 -1.7748983324765821 2.171602323871815
Ni 1.6005569765126963 7.665066991216817 8.465112818906666 0.41465157701258915 -0.9491024202737138 0.9879808425064663
Ni 6.351190302415794 7.195683530868954 0.544281697635943 0.23986721277742562 -1.2196567777223513 -0.14148035076639506
Ni 7.588898353375159 1.796102643117097 5.806850439638227 -1.8808313822659868 -1.3679302401511795 0.051111216853518424
Ni 7.307323672539417 1.9917129376566363 11.145645061367574 -1.63148116969879 2.408502740711433 0.8788750514160347
Ni 2.094148214850962 4.0272159176506035 10.228870103743223 1.5354478955216009 0.23782627108799684 -1.1294683923617128
Ni 5.055215551648101 5.1538008504206125 0.8965574930006358 0.7051091011430566 0.9385115321317449 0.300225916371141
Ni 5.211532061623507 4.832092221863939 7.450532714012544 0.044814842321845405 0.8208511666030831 -0.8921051769530635
Ni 0.2481758872124454 6.4837791276332535 2.040904028859103 -1.609106658658332 -0.24210073009363464 -0.04959786553278555
Ni 4.339812007352766 8.498167237961297 0.5520970615066052 -0.5142795105195723 0.03523002684688772 1.282121986136108
P 6.2242518052418605 9.053616642789152 10.822135159932975 0.6792456031127334 -0.8827995832814216 0.4601978981838204
Ni 3.6860635131794415 3.112822961064208 3.9383700487034456 0.23734521768652028 -0.02920644636062712 -0.8358257856350445
P 1.096708361611754 5.367036106128603 8.828431681874076 -0.43901097969356007 0.817355751855315 -0.5523932866721583
Ni 3.6919723529635218 8.405130709048525 3.3471176910651472 -0.7988978022604435 2.4651449146855096 -0.37961541134406235
P 6.165717361130818 7.00374779607014 6.856213299223821 -1.3280524301196355 -1.4010558190605549 0.9066617346109999
P 3.019167850486539 7.707841451716258 10.351295724532065 0.16459739639983265 -0.3790986196086439 -0.9180591778146641
P 6.175356156028598 1.2071021073902628 1.2632591667444304 0.2501706515859627 -0.6813927313627234 -0.8569988201682337
Ni 3.586767307120408 6.8569685228087245 7.761069942352441 0.41033957990079645 -1.0739564753373374 -1.7032663699618924
Ni 2.977519762570937 3.021559084086659 6.208152986598892 1.160368424374679 -1.9683861866585197 1.4171452684232497
Ni 6.0225387871128255 2.846168100683269 13.154712446121298 0.12310544780363315 0.6321825881866596 1.0566262115890062
Ni 2.8613002700678116 4.479777649738163 7.955032224545953 -0.04827580428725234 0.6424150645479453 0.1698650725566752
Ni 2.6431717564136292 8.517647944124436 5.981638536732397 -1.3868923830759792 -0.3617223331137254 -0.7248734282541774
Ni 6.504912462423503 5.601321603567379 5.019676650115509 0.09080622145029522 2.166895405314449 -0.5442585733801658
Ni 2.342328718344489 7.254956579953007 2.071996528454176 1.2461967329944086 -1.3063664605057694 -1.7688590682610377
Ni 4.939346896507155 0.6146264352654165 5.100468955088208 -1.5341055225610933 1.8801369273021231 0.6119876012960234
Ni 8.846871878281487 2.076717137487926 2.0390529001454967 -1.8258216016890105 -1.3775510510703954 1.184935829301398
Ni 1.2797254413614725 5.3898128369838 -0.14311394608285247 -0.8470152265929606 0.41347555442661693 2.3474632090006082
Ni 6.13203697436156 1.8285089363079114 3.32253784081959 0.010311666338653208 0.5919615358830838 0.26808224175906087
Ni 5.053599853269642 7.48698009966194 11.953615197161605 -1.9176542075212912 -0.1876545353296123 -0.18772704043876057
Ni 1.230552815283331 3.3660629086228537 12.180426935529738 1.5198538977380858 -0.17151803477906588 2.2063235294030843
Ni 1.569784846824667 2.107406174116492 8.12532037084206 0.16916753226901832 0.4100102215858358 0.24593913000311834
Ni 7.511224807900994 4.105111044616672 6.754353210652228 -1.60170445265699 -0.4623871925256553 -1.3291356358814852
Ni 7.358656718163613 4.763143447633454 13.38160543103646 1.6753884126047016 1.4170460238412241 -0.025287828032511287
Ni 8.193298802789252 3.3414119676486447 4.353374641169662 -0.09967755579799607 0.3404965909657297 -0.2988478050766918
Ni 0.6432639965814473 1.3463568424891381 5.8639963064000105 0.7865475082252067 0.5854432751485918 -0.04644774993957807
Ni 8.003098789677011 0.5489773787518542 3.745717867080811 0.7964706808761897 0.3446964879796902 0.8692645249094643
Ni 6.6307892149487335 8.560053102137372 5.550594214021051 1.5229263660158225 -0.16366331462133749 0.23500962757480817
Ni 7.90602763109917 1.9541548747790771 8.030541657449199 0.8864613484037249 0.15959197276544126 0.9083270381285647
Ni 2.6474556652570875 0.9893798264712365 4.26210891767968 -1.0606677286482313 0.34843692885872896 1.5489279322859064
Ni 0.39911442972812267 2.4719631236699087 10.377888273329074 -1.9036136702678248 -0.16815708872663299 -1.575631666829338
Ni 1.3665022931279862 0.36471851939126265 10.08845852860537 1.8117003317962797 -1.240058995527787 0.7848577792276096
Ni 8.07955363694571 7.424780328372334 3.960963051571605 -0.9730049379229243 -0.01865618164860658 -1.4093442843215922
P 7.404764133603764 4.186754591820766 10.643428763456983 0.12442108129126313 0.25157575946360544 1.5227690145023516
Ni 0.4735371900648278 0.8182856774983323 12.22878894265 0.6719117884554815 1.2422076664396735 0.9261550674489211
P 5.110056970894095 2.127893229555357 6.955612909979077 0.6781667682262579 -0.08433115524891283 -0.44560534508162614
Ni 0.8946740503194602 8.108774696190418 0.2939601629769035 0.1463055400691803 1.1662482801942236 1.926595990095611
P 2.669835395939291 1.8668333018449683 11.142888218305815 -1.440005717961191 0.041657013419154065 0.4693299423920756
P 3.3377189427835945 6.307686469505504 0.12442631700948291 0.144511424283235 0.5093759025703679 0.5659735964597543
P 1.215402180774463 1.2312452574455277 0.8493458631258358 -0.1252309787870682 -2.8178092513620245 -0.38262900135940553
Ni 4.512959478150638 2.811407504140985 11.064500072520262 0.6315058738346091 0.786997965499064 0.7378449008131809
Ni 5.089625310828205 7.942090018906384 8.966099339537195 1.4113240337557824 -0.992401083061349 0.7617253069752042
Ni 8.685514389365286 7.124703592962692 9.541906543933637 2.7739570300637646 0.7573567455938633 2.0208408049138096
Ni 8.3129712735412 6.223319316463436 7.561877413693804 1.449006893018537 0.14005415984282976 -3.6026696016927957
Ni 0.2706387109541124 7.845868256047505 11.749855320001119 -0.3284190909759054 -1.080903596079132 -1.8137111915787216
Ni 8.988499381856156 8.397292263772455 6.309485895871 1.081872901970937 -0.1663611731684748 -0.5182521220140751
Ni 7.228080591497605 7.078300735533338 11.463276590473233 0.7003566740597357 -0.37304675698760914 0.19040407305029144
Ni 5.903272549096035 3.580840002212003 9.229774852108257 1.2922426195098775 -0.11711760565131442 0.08464971493059614
Ni 4.16454104725749 5.78916731332815 9.985801669919143 0.7556104523267181 -0.7366519089463442 -0.8483614562082098
Ni 3.83514169441935 5.150283244236652 5.345266647805349 0.7984157204177024 -0.8771526694082894 1.0325000079647637
Ni 4.46995420359713 7.383353821948635 5.147818150139231 1.1713220951727055 -0.15902684429059064 2.0314178090987074
Ni 7.4688473475745445 8.262035228089996 8.075201407142249 -1.3588563028743692 2.342153109641605 -0.4751648039062978
Ni 3.9689215201557886 2.4509867424364242 8.79502734871348 -1.2699737808093483 -0.2135907955793999 -1.0183093182866785
Ni 2.90325303253478 4.5601194056773275 2.1783020957070742 -0.08457592426986725 0.7842995927312945 -0.3748025633364513
Ni 3.21362407475575 1.4725936649387117 13.380416277029914 -0.4969929555249828 1.4404399772851322 -0.7586227567904806
Ni 6.820638390698795 6.087212885062016 9.13742799558903 -3.916333388736397 -0.8724115551788783 1.4481401741428674
Ni 5.912643599691099 0.884526541246519 8.920250435837598 0.6640514118707983 1.4548062733091334 -1.2044155352925645
Ni 7.277207054764934 3.78316236944377 1.9143837667511365 -0.47903919926003957 0.7715302088807681 0.8986375787549427
Ni 2.666613231744535 8.769355286364085 12.291935051561275 0.11588399035452944 -1.1389994717805996 -1.0069946646048076
Ni 2.465925028015552 5.952094337811996 11.583350677679256 0.9565293088654041 1.072895895283307 0.045376628362586366
Ni 5.957957014785263 8.531173647692682 3.2468659148222816 0.39397219428636665 -0.38284394558368906 -0.9852423605293806
Ni 3.4780354225311716 0.12508275217924555 7.939587071304096 -0.044579329272271616 0.8174213149859277 0.2250111216011996
Ni 8.132299264580787 9.663538164376495 10.001273597591268 1.7132057405627914 -2.4459860823688717 -1.30335261338011
Ni 5.73141763700093 4.816258377755037 11.892455935627728 -1.296599868037309 0.9775524480842906 -1.5235138630881762
Ni 5.863000112942664 3.5574077594432603 5.165073808821178 -1.6686595785213003 -2.6995444194801443 0.4677985933492137
P 8.534958998179357 6.600487945930999 13.49482988037403 -0.07489752063983876 0.5576769036686008 -0.63665013703971
Ni 5.283195209129804 0.90673639278493 12.461952683786016 -0.31121815371658657 -1.5470255730568712 0.11277321263968965
P 1.636573201509097 3.739298466609138 4.874940542860683 -1.0275565479165594 0.8091503332263872 -1.205085050555763
Ni 3.4884959154614257 3.9410576475489854 13.133429543824013 -0.22403615928243997 0.3269178238400305 -0.08832973488534465
P 0.925158124068016 7.748510888042622 4.436221191223547 -0.0833587640333145 0.9567846194093199 1.0262874513961486
P 0.6533930405300633 0.218952058199088 8.155805367846831 -2.517759969778064 1.2114601008441719 -2.3663276500052794
P 6.57495991155134 5.903447967777124 2.6056709354214784 -0.2832761758906799 0.2967832092381792 0.0415215162825543
Ni 4.164984210241296 0.37675501068267714 10.34493079617715 -1.934534013995765 0.39504203031177776 0.5573755703780982
