# total energy = -340892.78971516853 ev
CRYSTAL
PRIMVEC
9.08188163245255 0.00000000000000 0.00000000000000

0.00000000000000 9.08188163245255 0.00000000000000

0.00000000000000 0.00000000000000 13.29225177975489

PRIMCOORD
 96 1
Ni 6.083843500210766 2.258346087674223 11.37531008653333 0.41173003249041995 -0.5640658379140803 0.424294756529308
Ni 4.9731929538936575 0.42112412515483655 6.1239799677468785 -1.7268410719580387 -1.3610031740140431 -0.3925305767438336
Ni 2.8690390519976217 1.5422760511642124 4.768409238483241 0.22390529013153054 -0.6278271394314413 0.4770139412998946
Ni 3.4252861361384164 4.693670802057101 5.072854797990376 0.10133026091007065 -0.6897932967215926 -0.2092723707097041
Ni 5.237430299000051 4.393823399203253 2.7176804132781447 0.7472818778563646 0.6866159274348755 -0.8080501581836729
Ni 7.351465288075182 6.32948115180357 2.77935637940126 -0.1353672958901217 -1.6181746823978713 -1.2858732256484242
Ni 4.793725891627032 4.531141448971552 11.31691722060805 0.6302321493285081 1.0688453793630173 0.37029233417092355
Ni 5.488162886169577 8.039308836577264 12.361741380911559 -0.1690690590179411 -0.8846006410459022 0.5629502362523983
Ni 2.0184118577252343 6.316893663908142 0.6616232481392478 -0.24681690462238134 0.30614279607620826 -0.2958691820643421
Ni 2.587373576103835 1.4327758047319117 0.5151252324512525 -0.031946728109925625 0.282008879142482 -0.7009801665763475
Ni 0.6225802391475864 0.052060978074854596 4.748404577886374 0.27325067333387776 0.10179254525846985 -0.255519831713018
Ni 8.727833526199229 2.226550420198111 1.395407494707001 -0.2212441983595996 1.1217599679738615 -0.4113338254932658
Ni 7.020993780471419 0.7443037900232177 4.990641973008725 0.05583330491953609 0.75259917630422 -2.415937342612607
Ni 0.9942662336331958 7.356178784624769 2.740051812219564 -0.8397024949816312 0.9121862639736549 -1.0840894500062814
Ni 7.592462098171187 3.9619163560265975 3.8615588397994385 0.9344515031297584 -0.2854742119832632 -0.2490607063512356
Ni 7.667941616135759 3.943307580631409 12.560047898365971 1.161760162515883 -0.7274134210672117 1.1307881396144008
Ni 8.187052886420565 9.079020805729016 6.86171301643363 -0.3510525121047051 -0.7370180340365113 0.522044756287288
Ni 6.9658031859977445 0.5964571149178551 0.2887466189760841 -0.5809618423384705 0.5529136779520026 1.0834358755826825
Ni 1.574979906800168 6.507231738448091 9.218495802376944 1.1641708288399046 0.3420325679942819 0.3633508698560839
Ni 9.143275118037927 4.917648166037644 1.543669211801412 -0.13878429199147066 -0.9221287198983473 -0.5045779669610923
Ni 6.378695868185476 1.9724302911923703 7.105984753034029 2.063585652080504 0.8234104426898272 0.1107052743670674
Ni 3.5969246164671924 4.430087352425794 0.8057245552734168 -0.06741972420555485 -0.12281337048451108 -0.47822184556506675
Ni 5.944209570634865 5.566176249100112 4.6473695532919725 0.11312468244183743 0.47197303644187755 1.4783511505086089
Ni 5.239328412254124 3.13840766020713 9.13612313627916 0.30684856389398124 0.0021710395093898095 0.11597423607549061
P 0.3704735632922185 5.719896177035181 12.656071540694358 -0.3465978187674611 -1.0242405961694492 -1.3879208243404935
P 3.896381498412308 6.181037797077191 12.75929893150662 0.8635561616707772 -0.6150713824276697 -1.2401484699177996
P 2.3231998041686297 8.445287107790394 1.369740280933511 -0.11856102296606032 0.7073719290353043 0.35925870206458127
P 6.508703003267037 7.867915567051645 5.716518625268724 -0.11265828432838015 -1.194133436640266 1.527922276568517
P 4.585251299535013 0.9786363154022933 12.428866475993734 -0.4374400356620144 0.8264528290605767 0.8064553028927272
P 4.074931290637491 6.126065167761879 8.165509755080922 0.83011459418288 -0.4004248918902459 0.1552511792982423
P 4.841832618453929 0.768323550474752 3.7096816256406915 0.1237811337144191 2.5083435615601704 0.23657825761350867
P 9.29603236652356 5.525907186092662 3.6454536507884168 0.25474618677178706 -0.3893850891363165 0.2362910653903931
Ni 1.4628005052963293 1.124055403556395 2.6415024986186526 0.5010560698507629 -0.818347683454939 -0.06255185459029228
Ni 1.8157133423298188 6.66083360192238 4.7946349879750345 0.7957507719910295 -0.39576193919693775 0.5833041173184018
Ni 6.182763354580893 5.55865645113661 9.13450202041384 -1.209689382096994 0.578727810801629 0.8686209777881944
Ni 8.441127606018313 2.4151175278263657 10.25012035596529 0.7072217766106852 -0.13549945059261181 0.5549132248805346
Ni 2.213136481077226 5.642209761842189 7.088904458311858 0.4198776012982188 -1.72575118132797 -0.4656231829644497
Ni 0.6572258010692869 8.928497700116594 8.911165837274147 0.431088896633006 0.7071973511306531 0.9271981640014547
Ni 1.4637268572193698 1.0319742060298875 11.569921186365344 -0.5002939948737578 0.5506364518820517 -1.0651206222132623
Ni 4.307200412517403 7.131838145380288 1.5156625053281658 -1.081369479971957 -0.2179434161211408 -0.136975520917506
Ni 6.013259116427748 7.943304266200234 7.990384740406508 -1.5391469416397427 0.802455951925347 0.18507828996200384
Ni 5.224143506221545 2.7031403208390543 5.001263233538093 0.15747132687801266 0.39971938118278905 -1.037037747934117
Ni 0.9145454769621549 7.548287826076411 6.894092648896521 -1.0326697007734085 -0.029185363314704574 0.07871355195181928
Ni 5.082030222969273 4.489637250066716 6.827033851550015 -0.30806135325515976 0.6007773344025008 1.1662811903146881
Ni 8.087733429260107 7.284431919997151 9.142344225174087 1.4843683032369661 -0.5777528484828696 -0.798568958166115
Ni 4.588366384923275 0.3456736692113788 10.40662388061028 -0.3832229261896626 -0.34129568982825736 -0.4286592041455908
Ni 8.316996448330936 7.226435024109561 4.680095205443764 -0.1789634353135176 0.5181721607057592 1.2114446742252039
Ni 7.103393692213998 6.1122062164426705 7.044029064957684 0.7230965388594127 -0.6192198573784045 -1.2883242582920782
Ni 2.2687720877492237 5.02920091771119 2.8650521059759093 0.6343019485225075 0.9927942047347097 -0.5842723947689422
Ni 2.2604167566786657 5.234233476677403 11.331431883778663 0.0033475763159942344 0.7970622917136014 1.6665505025980976
Ni 1.2519373783439232 3.2146046468179788 3.8889270899963146 -0.747534360186803 0.18910900838795175 0.6922625841976917
Ni 3.8278587017521346 2.6286870554951047 2.716364448634532 -0.7421988069065024 -0.9833119762758873 -0.06902769212262307
Ni 1.1455703810630815 3.0734267973703453 8.270705189635567 -0.4965499544502932 0.5271543095997115 -0.6299763245639602
Ni 3.7516072238516953 2.4257705749413265 6.953748804552145 -0.5890093952332952 0.9276815313957766 0.06974451568398957
Ni 4.258775819834561 7.01837819857107 5.955938820719241 0.3520074198188067 -0.2967325585059019 -0.2699200662987481
Ni 0.596012102719532 7.368448406664251 11.185203599974141 0.3161125056944104 -0.009255200049680834 0.8389689592497164
P 0.07520706151661972 5.620858258204274 8.030527565259739 -0.5131543957761936 -0.3560661632692126 -0.27697131671857456
P 8.431836841143117 1.621170356609796 8.174934023615615 0.39849013676137823 0.23045671809680313 0.004353648983005405
P 1.8431042972306915 3.082980936811896 10.364394039365727 -1.4256749031608156 -0.5118300205378153 1.171313610532273
P 4.100042693257158 6.127118666027296 3.4762027971318683 -0.22422616380605898 0.16712530502800893 1.1750113710988344
P 6.916079884246327 4.122238811883727 10.618594997117695 -0.9465182044863054 0.15351954131911627 -2.2788155259252236
P 6.477788278305973 7.7777869740688015 10.282500896616343 -2.426566025971047 -0.25502283747194143 0.5545563557617482
P 2.599552379327333 8.515798836520624 5.854891081490601 0.02990630064112914 0.48575183539352473 -0.8161666166432202
P 7.0718250717778455 3.953561024956039 1.3578965991409953 -0.9798111622114802 0.01701170406664812 1.049561848543057
Ni 5.199286396286635 2.7445718646911037 0.390911429641331 0.7164157844051274 0.22679855251892556 0.36460942485353337
Ni 1.4725998555410382 0.9942843973963925 6.852661105044473 0.26907365913805276 0.745273074956452 0.6739208484657104
Ni 6.777599353633427 0.7460720323704325 9.525506993435636 0.4931676682416216 0.10082838157298764 -0.9989306566497507
Ni 2.795902659485444 1.4263276687970246 9.073809622067836 -0.3520801820382711 -0.29567146423123913 0.7143419325952343
Ni 6.389258096484452 2.2323537425395092 2.627731641550949 0.4529216762373813 -1.3744965805147875 -0.15139169634283603
Ni 4.18745580364207 7.03234613246946 10.32631189344718 0.025528740398723777 -1.2295272427585278 -0.10220983530154655
Ni 8.29045010841872 7.103902277583509 0.5295063919623704 -0.3228367117921214 0.3202614948657775 0.08084705335505431
Ni 7.761121721335678 3.810221687687979 8.189197118665954 0.1362738668647911 0.2722469146597118 -0.16062684178785885
Ni 2.837688396719832 8.207405383082651 12.44893834251443 0.9126297792689765 0.00947297248744175 0.368343695084985
Ni 0.026628076846604155 4.760068438423241 10.328783981618276 0.34624712029626176 0.2410810305798687 -0.39335744352050317
Ni 8.82267561573166 2.397662151394178 5.659149287399585 -0.10813751363989119 0.4230179466994134 1.1027332903597138
Ni 3.382319754296232 2.7579040668776025 11.85534565305272 0.010742583228484724 -0.1985560127334645 -0.1410797728938667
Ni 1.098653380725579 3.479296086004295 12.716099145307357 -0.11034814813796479 -0.34670503376928674 0.3401944863442787
Ni 3.2043966119013403 8.142796877391403 7.936391137927506 0.3601606450535604 0.5179173643824758 0.9681386109695587
Ni 5.652726580733174 7.854755920615517 3.7087243953202167 -0.41470299907581476 0.051395323752840526 -0.5519896234758364
Ni 3.1424400156368337 8.442063039822951 3.582993010095197 0.25093941143118714 -0.6209468673718403 -0.4329861136557188
Ni 3.13631882743949 4.382670848600378 9.390045280266055 1.4345225833594326 0.596950761567559 -1.8926427730786177
Ni 7.380490981663772 6.099727711126424 11.500124201716908 -0.24251339215102102 0.8866870912612858 0.19594300059064965
Ni 0.3603036722782938 9.17251877678488 0.3745295316140784 0.7520278771817822 -0.2963911160060831 -0.0035620063196454784
Ni 4.662065854094556 0.485469256279731 1.2174961587581876 0.39778796848803105 -0.7606986654829029 1.3891986626116526
Ni 6.084470150041057 5.768629553692369 0.44104069150019903 -0.45699584630675494 -0.5506508500597549 -0.2559080682903722
Ni 7.81916402663126 8.664877922958896 11.68575059608359 0.5389446173664202 0.7170845283373779 -0.4299491266016079
Ni -0.07526791012332922 5.181222533787353 5.797521743621463 0.09345934280242614 -1.484653952798185 0.4522981837207694
Ni 7.943531313240195 8.71837928745526 2.6665321643039324 0.39080125275755273 1.179583049629917 -0.011276858465399933
P 8.632364786836506 1.6702397628861267 3.5628285083821973 -1.022841144718761 -0.393132986214523 0.35374677110741654
P 1.8982404004147753 3.179130817294501 1.7231943981102669 -0.29503614464008543 -0.13019989275656932 -1.1409403975570545
P 4.828682053899399 1.1488307765569188 8.270930420299207 -0.2031130359765276 -1.6022536402922405 1.2860413757951723
P 8.475139252604443 1.690655832719403 12.367217755515414 0.20728542218666238 -0.1921285119405659 0.3949039620720166
P 6.35155920596936 7.796195948068824 1.4598352709544413 0.5463666208621042 0.6380488171594495 -0.9199219420550158
P 1.9675714845372092 3.269477375435708 6.08242763486957 -0.7957034636928618 0.10566334106778577 -0.3079191712503407
P 6.964050382849248 3.842226238440855 6.006103501916343 0.24507961021630048 0.7699551510841643 -0.3853870237205169
P 2.407388846586099 8.369553297141065 10.311171488634434 -0.620744521553047 0.9983187340973646 -1.2366209163805153
