# total energy = -381171.456044232 ev
CRYSTAL
PRIMVEC
9.24594818931940 0.00000000000000 0.00000000000000

0.00000000000000 9.24594818931940 0.00000000000000

0.00000000000000 0.00000000000000 13.53237976983510

PRIMCOORD
 96 1
Ni 8.571419322168211 0.8945482649680502 5.537611975924478 -0.06033967743032189 -0.757372172212831 -0.20168041729505912
Ni 8.455428901631796 8.125256090363935 1.4451768428409328 0.019786438598307858 -0.2818186175085469 -0.9999184744843165
Ni 7.490540236319795 6.680733860657636 3.0506987690638185 0.38886135542236255 0.44638078979506995 -0.194180252263272
Ni 8.950928513187552 6.035412903994502 7.226994652587003 0.5088020323447688 0.25948807233214666 0.9559541530882245
Ni 8.206074923836137 3.0599465664827523 13.06808361345692 -0.10518357321788982 -0.9381546630129585 0.598040395087312
Ni 7.712868307441246 7.855930864393015 7.943683234442361 -0.948794916335624 1.5769475574272842 -0.057778601571365
Ni 3.9665950038984708 0.4479264341316013 11.890198812571288 -0.17830677556612518 0.2431980769228715 -0.30209819369318935
Ni 5.115635220093195 6.829658348786771 2.2955248522988736 -0.14851848856009905 -1.1211627007094949 0.6084268805279587
Ni 2.7010003643253464 1.5118604706602015 2.4417421267864743 -1.4398643072873203 0.8431374888051092 1.3673797669643482
Ni 2.184725107098382 0.06920592249621817 9.193181602743119 0.6745741657789931 0.3180295202114652 0.01206155915022439
Ni 4.443195897273562 5.396628832729477 11.818638871655892 -1.1383975765305427 -1.4076129034527822 -0.3452364196435602
Ni 5.622091280300657 8.731180061622071 13.522271403729397 -0.2871803960410925 0.28893465972803783 -1.1277321263968965
Ni 2.33103299187863 2.2570838979407872 10.214605543097921 -1.140587642203326 1.0024291567213124 0.8491561841953634
Ni 5.7871591940381295 8.44694112115731 4.160516748275081 -0.05729266307388198 -1.1919929932584954 -0.8061583404775987
Ni 3.769147779462033 0.19294352305395204 4.718348844413403 -0.9554841554303416 0.9143904707138252 0.7392230121076301
Ni 0.40557721745699504 0.8749736679718253 2.094772201370465 -0.06177203900147426 0.40367013830042087 -0.24542928024623542
Ni 3.3666624070929116 3.6260574846655773 1.2124822145648044 -0.09921938521465493 1.1238160791719418 0.43678466146620254
Ni 0.10622392542181716 2.296027831882547 9.63851917137052 -0.6867293130842883 0.023513252630591765 0.803527844833287
Ni 6.788828241406238 4.712021842040101 12.044426776604743 -1.2242127725241496 0.8134667012135538 1.3618860908396286
Ni 0.7068767815944379 7.497409975854156 12.794743796764843 -1.026064279641749 0.44758380896423555 1.2785041868778628
Ni 1.2997861561250303 9.283579238580863 4.157187282317715 0.1496664861216132 -0.8925198958929791 -0.47054041776040895
Ni 7.369011492794038 2.840900806982698 6.356077182103365 -1.3284550648746927 -0.07860993649441944 0.040463250221369026
Ni 5.88346499079439 6.966165528443975 9.078494860907034 1.055848967103349 -0.11286114436780562 0.08041742201680344
Ni 3.0320792785196793 3.0674727683413923 12.31254448173692 -0.5162435762244787 -0.030687658891843925 0.6685145898484744
P 2.505245148414868 2.092829627647492 7.935049367985852 0.28797666669014277 -0.5542761055171679 0.2659006607267098
Ni 2.164097396598841 0.5954178002851982 0.15886850544973527 0.24899642877220338 0.4182752898081054 1.3158224637123468
P 8.266682114479119 3.009417459409695 2.0115614410913447 -0.2810051204683161 -0.6062972357794655 0.2977774548306485
Ni 9.062887700295997 0.6160538321381452 13.316213427707023 0.8053253030533422 1.0491098486073027 -0.3946111134219462
P 4.012122052979484 8.077130929830492 10.317154204098598 -0.11122926519133748 0.857405054467717 0.7236133305948312
P 6.020582403034726 0.3667516316525703 7.993279425339082 -0.16492109828783855 -0.12552588431966769 -0.09857455254180443
P 4.958685248901038 3.639686012355547 13.280555503765951 -0.04926053679802484 0.8185052920787259 -2.016080407410689
Ni 3.742944762180232 0.07076478936767605 7.100209587492896 0.0414783217494447 -0.85354428596073 0.6727150010830671
Ni 3.194558326752951 4.334371086614846 5.767107506113273 0.9012662746270412 -1.372112396553327 -0.14149217784093698
Ni 4.336238768157163 2.2752336943148785 6.735105583814785 0.8251845038711144 1.1942658484530724 -0.2065179478930185
Ni 1.5458948060922095 7.102404575602528 10.708334555567768 0.7161933839816762 0.05436803322791927 0.7473600393924676
Ni 3.7601977015760824 6.367148280513114 9.08471923325499 -0.8259344946632614 -0.32996226709330917 1.1633264785617383
Ni 5.606040314174613 6.357264361856006 0.14282770986674412 0.8233726474733561 -0.946125597033577 0.07227653807722391
Ni 5.768362181287987 5.0635527937176175 7.321003755803107 0.3806960460027508 -0.33586706261351834 -0.3623149723924018
Ni 6.018437343045531 3.0728816480555254 1.4265564277019707 -0.13364439966174402 0.19668836339710644 0.5001752099077064
Ni 6.8796974206036765 4.403604746955752 3.1877006069512883 -1.2907400668224223 -1.3717490996766375 0.7092989708546881
Ni 7.619955773685135 4.896709657920122 1.0559760488876522 -0.13219661147162395 1.0979461533837156 -0.8717782924702534
Ni 7.756610888514007 5.066372807927551 5.4073088275291274 -0.11114519011796344 0.14167704015823343 0.35910160766142674
Ni 6.116157769880871 1.8344885881729651 12.552026560608168 0.2355379892744524 -0.8728172752577291 0.9245003054543174
Ni 1.5198582158785352 5.749731595605972 5.879291369763689 -0.6394469830585569 1.2457267353365256 -0.6137364656663301
Ni 1.1395076435703289 3.452917858123936 1.9761466855887044 0.13455379884989085 0.034020837030134955 -0.10570576426994699
Ni 0.012211123826420216 9.13603239673789 9.779133401231173 -0.4346506458423353 1.431050308540116 -0.2001292707578553
Ni 4.136498548559861 1.3826760820005943 9.421445572627771 1.751620335785248 -0.9201458851403636 -1.9830381322437394
Ni 1.6731467915718956 7.2386806065539995 8.470931583027843 0.052037071101897474 -2.211544154372075 -1.4208342872390625
Ni 8.369515550685257 4.069862999671385 8.108209335613596 -0.7581990389895007 -0.5821350367109652 -0.6234704051246424
Ni 1.4015563082847997 3.934354382422945 8.271410492403577 -0.8525675238697574 0.37806066526243276 -0.3656008422325252
Ni 8.137312806854926 7.3820297879008745 10.104506640773211 -0.43823939163485814 -3.2860109936869275 1.106858368271681
Ni 9.061630251336814 4.861510333011224 3.4254647886415355 1.1065117835655396 -0.4080003902446587 0.025920319410187617
Ni 2.1589289115386694 5.44799007514317 3.322889314390995 0.0742406037821302 -1.0701461004523118 -0.6254218724240583
Ni 4.242928658627192 1.4967618372017748 0.7484419418592007 0.9013886591375186 -0.2667439825636116 -1.7521708089720793
Ni 5.808064282984549 7.160219489880264 11.52232102442439 0.5314349392529364 1.2541586681539625 -0.9664622517084
Ni 0.5237358128531767 8.64087488526662 7.2263446624264835 0.7030658454607828 -0.15160021280921632 -1.6945487875832366
P 7.722317666531579 1.4458998759924633 11.11047597866276 0.7969630471315758 0.4944136248335808 -0.8512781156343725
Ni 8.743754551213904 1.251337387403563 7.664726504200991 -1.1957663442579987 1.7132335084769332 1.6731299555878283
P 0.9533774597665388 2.53676458592851 12.619986129283078 1.0416505641157803 -0.6534620663907262 -0.3504346760150481
Ni 5.024460924604189 1.3273668196929955 2.8797578290111026 1.8186765060037968 1.7082306559457032 1.2625628330572578
P 2.28521007245428 7.856476375338541 6.1192200279344116 -0.3539933399005839 0.992861053416903 -0.8044724681347435
P 5.704297006007253 3.870178255763459 5.108148775811941 0.3602074391310958 -0.126676195874027 0.6741147096440714
P 7.936990092519179 6.410049480297009 12.89229872112688 0.13738612609236342 0.369603278523699 0.08153405211974991
Ni 8.066535073159729 7.504557093835396 5.69039294906005 -0.4952808579298825 0.44221894510789644 -1.3541861510922097
Ni 7.702531337320902 3.872351053597342 10.20882775004944 -1.1462029315075744 -0.8688091825396006 -0.29973380722607085
Ni 7.301016789515857 1.1217924067630136 1.2623973906754369 -0.03720900495012947 -0.24836856538021743 0.3091273326258289
Ni 3.476171417920595 7.06629914776716 4.354570709711371 -0.19290498509527423 0.23140468383236923 -0.00825324114772772
Ni 0.5125380449526864 6.98752366885363 3.954580818769335 -0.17690552434322437 1.1071365616337319 -0.05466216742957038
Ni 3.7606230151946294 6.4822141062266 6.76275281821 -0.3906012209316047 -0.7159293316870121 0.4059918444550621
Ni 8.009607769912005 8.951057956462762 3.6693183518355914 0.6409459362015865 0.41625311717175406 -0.6548831151079689
Ni 5.977246643684055 0.7254121340096908 5.764496450333322 0.24476542140999136 0.07009778525835025 1.62397920489479
Ni 1.750396689027594 1.4451602001341202 5.923068160844897 0.5641416854573381 0.6654981716196539 0.798492853512541
Ni 6.9512980436912795 1.9881747396401848 4.1408672590982 -0.30193878529718965 0.9088137479569961 -1.1711894262495828
Ni 7.66270903829736 8.70576294993976 12.009404973901848 -0.30320453938349073 -0.8655698496666964 0.09013722040772863
Ni 2.5587144670248385 4.679698007030511 10.439026896898485 -0.8701533552723207 0.3587120855324919 0.14432476219372564
Ni 2.174018299048867 5.581557043263459 12.730992059129083 0.031082580337417436 -0.853162220030963 0.5645515193012471
Ni 5.006449817453538 2.9784805166344985 10.909682645562144 -0.514752593501249 1.298877351217576 -0.7046252195281026
Ni 6.328694381827507 2.5605359188260084 8.773935175423945 0.03944457914886755 -0.8979276971721117 -0.7159699551169605
Ni 3.5684367353006565 4.269492267889935 8.207686492612503 1.9805778436287051 -0.929901936085863 -0.1494908797756974
Ni 5.6605636708827225 7.636025231707636 6.506936847196892 0.9923668873893038 0.42710548650522573 0.21507612187567474
Ni 5.897158240121964 0.2540157848928658 10.445467624435006 1.0503486061104106 -0.36168350945599 -0.4574051659300316
Ni 0.41752853013817226 5.978189730403441 1.2900714383205178 0.7669243346776404 0.21050521467554068 -0.08212103497147147
Ni 5.770766127827602 6.045805349804222 4.369808032393237 -1.3786769371447225 -0.33773728305303774 2.491574826742264
Ni 3.8703909125727325 8.803714525480833 2.52063595383734 -1.155247815318662 -2.1061911454558566 -1.305833727930751
Ni 0.38778616387419973 3.555427686142049 6.018485421976322 0.3688484026355454 0.27902408548254526 0.31366250149202113
Ni -0.05128080266409816 4.718225873301953 11.576640045676632 2.009117345829295 1.3103452426478595 1.084426778741042
Ni 4.143118647492031 4.052064549330006 3.561505972507982 0.9694413889413821 -0.38005429865369383 -0.6040562622640887
Ni 1.5584138199946649 0.2602124193961344 11.603501374472359 -0.3912015735197649 -0.010998150882716542 -1.2145623939185795
P 0.46052403859400576 5.558719551137119 9.567405809754598 -0.3605229134889856 -0.029311347369607586 -0.3565179060946505
Ni 1.8334992717124314 7.954788542860557 1.6984353845738203 -0.9317523590310405 0.3051835174867325 0.32131796115474986
P 5.7613999822713335 4.65206186777317 9.53661957593554 -0.5931622410594043 0.5188362766523194 -0.2036408834555396
Ni 3.377017869109714 7.568945877304154 13.166870098123098 0.24814539362581778 0.3746832641497676 -0.04407513594234345
P 3.1425498679632082 6.272377311162916 1.4989549761217618 -0.2592512737309922 -0.7565615033860776 -0.7555834557435246
P 6.092562109999729 8.713788433002781 1.980084534939558 1.065585734775139 0.1473694625573204 1.4874078613942383
P 2.338392766669143 2.9722395015797294 4.164197560265161 -0.9081581166508683 -0.10155857487079285 -0.19483125558370964
Ni 0.0326687088785421 2.427625413029998 3.9889933134839204 1.1376748394319052 0.09464924934546924 -0.695350479094396
