# total energy = -340887.6680796555 ev
CRYSTAL
PRIMVEC
9.10669306391248 0.00000000000000 0.00000000000000

0.00000000000000 9.10669306391248 0.00000000000000

0.00000000000000 0.00000000000000 13.32856581768034

PRIMCOORD
 96 1
Ni 6.571690283626046 2.272912218287376 11.103641583886251 -1.003300760692988 -0.4119616888852518 1.6595843556929097
Ni 4.783017365843957 0.7553519296765493 5.979860867803318 -0.6337316778413343 -1.0506157437288681 0.7337884713556201
Ni 2.9054084829523283 1.9462187089345597 5.013193588056342 -0.09062264468457942 0.26447524113409293 -0.11777915049471328
Ni 3.5505357309888685 4.837967152191587 5.22826362770435 0.23750385475157162 -0.3426048955579842 0.33591488513231826
Ni 3.7542069228458046 3.3286784729509216 2.8036375445450843 0.38148820288674296 -0.5111515064135519 1.833854499295816
Ni 5.573050314968249 4.867299810763964 2.8271091354188638 -0.5682868179739632 -0.21020825226041218 0.4295632040170989
Ni 4.852528754506778 3.3785558312250306 0.7566897028973758 1.2359287754094972 -0.045120803598038425 -0.6902373262375467
Ni 5.646459368290795 8.273066441062033 12.519801576500232 0.5523452070430424 -1.1913075371556965 1.860161512621461
Ni 2.347204620843552 5.71700891997046 11.459487439287466 0.7042069010437614 -0.31887207071741863 -0.1897695247900861
Ni 0.9545180404419754 7.890740143376822 11.579031910676921 -0.6713859978589986 -0.030626466636605315 0.41507246660009156
Ni 0.6893657419244288 0.5997868442798976 4.927811054606207 -0.002895833490556303 -1.0296903064301106 1.506709647046644
Ni 8.85084058670761 2.483923404807254 1.4147876139592608 -0.46496729454800567 0.028098043787796775 -0.012806407736048912
Ni 1.4897548224763852 1.4219190653495208 2.8832883253390706 0.4632845075289441 0.5162055238976916 -0.19111755417754828
Ni 1.9604342569108029 7.148963561149462 0.3346390991089162 0.006102513353312071 -0.32455189471101525 0.6478447202039488
Ni 7.651771408947227 4.091354915912091 4.2614360701582825 1.3325994260603695 0.5743996157399205 -0.3233455331077399
Ni 7.618796073122771 3.9786413750395986 12.609809399391196 1.1213082251484237 -0.367223979658245 0.6287812758145945
Ni 7.752864809385584 -0.24018720997041465 7.185736388009212 -0.6652767996374671 1.5266182130451127 -0.3095227682920347
Ni 7.192375167301128 0.8501298384291119 0.6039668164266597 -0.8901154002165446 0.19240696241293315 -1.9384027529225523
Ni 1.67338218275375 7.071993790813006 9.363784183959288 2.0490185528996068 -0.42915774104856413 0.36420010523025664
Ni 0.07462024350886368 4.8347615962097565 1.6747745961333578 1.6475420798163947 0.5016913894419166 -0.733704396282246
Ni 6.492917388049811 2.1605993719126118 7.215699229746198 1.1129043173554445 0.463152352826454 -0.1385606060164388
Ni 3.4650694159619357 5.397992352926403 1.092009071983118 -0.30778573099626994 -2.4537883520221095 0.032915519781098156
Ni 6.264630804661943 5.915571256981353 5.016925510901098 -0.7491618684878969 0.30242549512562106 -0.75727395607207
Ni 5.396981509988951 3.449588037640595 9.339752531458 1.623076490574863 -0.7016460822951206 -0.6149050320531345
P 0.4900994575345705 5.586464473949035 12.686542395706267 -1.8063241550860312 2.2522208061558304 0.1432803800896113
P 4.010596761233472 6.454459822960973 12.672040897565735 0.4941297750445749 0.9073842145993211 -0.15152025150090034
P 2.8101706861966904 9.018312673371998 1.8124987590186332 -0.21686766655845874 -0.6776646317788587 -0.7517908214703117
P 6.317677292145361 8.022559526436474 5.769803152054172 0.24103012273727523 0.5304792602078864 0.7964843077229444
P 5.253168612076823 1.6657598806037721 12.752785392204657 -0.5920672082230126 -0.7486862144030589 0.5683228134182213
P 4.096909998721514 6.296659044400858 8.751269825360623 -1.929984961172502 -0.9586656384821167 -1.2169602047267944
P 4.99060443574688 1.3907104279923235 3.6877344376805317 -1.614937406407496 -0.28196491327842405 1.4880696633479535
P 0.313567121874945 5.902985807075416 3.9696202848248214 -1.8780437922185205 0.5754776792954476 -1.8055366261877293
Ni 0.8040117230791501 7.895320810021312 2.4746081684043717 0.7222300770940594 -0.6475629272974719 1.1401749801459395
Ni 1.3610226083878696 7.344229275247223 5.140361272265089 1.6692982405465637 0.47793799577606083 -0.059460874369794366
Ni 6.160295421469234 5.902102457841787 9.324584423380339 1.4937988525222468 -0.8076092139915123 0.9633512168832441
Ni 8.695380228281955 2.493230445186319 10.377408305493516 1.7063092705532745 -0.016863865634874183 0.14584222727951657
Ni 2.442606338075534 5.371774183404556 7.607185950051078 0.050635819878996666 0.34787102905292994 -0.829468733068765
Ni 0.8123088311900759 0.3589466844120476 9.425361821567078 -0.9862798006549596 0.3695510851295249 0.29217476393189035
Ni 1.8035350409705768 1.699044843994655 11.868954414508613 -0.7601438214206973 -1.0189862897490451 0.48806917067279165
Ni 4.389790356481895 7.230377397733455 1.8655862266211378 0.14587282340713587 1.4317478488277728 -0.8491533559818859
Ni 5.455300772794755 7.894637808036547 8.52641646528284 0.49693870524827966 1.931267427429351 -1.863324740840791
Ni 6.865645231175791 0.9680141596609327 4.886532235985634 0.9072150360113085 -0.4149649944879498 -0.11088113782329936
Ni 0.6637140087152797 7.926802648172416 7.324913068448755 1.0543456430849454 0.02789184131426164 -0.4489570351626784
Ni 5.182364072989513 5.231440042268164 7.184283870454945 -0.8463264280560521 0.046950657717925594 -0.16265467085116503
Ni 8.490197325365406 7.5598757685703735 9.484994269522259 -1.786205529959285 -0.30682336708300056 0.08784508193944225
Ni 4.970342043532183 0.5472239222016928 10.828486493634491 -0.8293031540251783 0.6169426313084536 -0.8301901846158218
Ni 8.22115829021989 7.757591183120158 4.587146056653037 -0.3332607353389228 -0.1104003415321389 0.2386227988473632
Ni 7.4067011901203985 6.534708002824301 7.044587197837668 0.6193635820451204 -0.5911938044791237 0.7598903106489945
Ni 2.3423416467120255 5.973307691426825 3.139717322507198 0.062346937668337786 0.5370376301516944 -1.1475471042402945
Ni 3.3981352214549614 4.257852586411549 9.50356099547611 -1.1433652049484633 1.7461451716032894 -0.3312982122959133
Ni 1.4727344130160402 4.11947638429815 4.187169166342871 -0.5058971999931481 -2.5476192192313416 0.047515271972143974
Ni 0.9848797553380642 0.40039215551690355 0.6657284092356801 -0.9007970483001067 -0.6494038371609525 -1.0127307957576366
Ni 0.9674768647662508 3.521039151940149 8.535466696915632 0.883298120184395 -0.325949032168858 -0.17140053536459515
Ni 5.396334934776706 3.1187783029929284 5.076210993848017 -0.39050634722495325 0.2798571229068019 -0.07863230509192264
Ni 4.216389812589745 7.3185666140063175 5.930025400317608 0.024772578958989596 -0.23428740469680295 0.7450473320988911
Ni 8.447095346780166 7.435277993162969 0.5525586230373642 0.5001687821498031 -0.2134344725071937 -0.9339632506394302
P 0.2939740716053184 5.917702223173821 8.13860884900256 -0.15509459911572 0.0651196153174685 0.47268728890008266
P 8.548206960604784 1.6327025845411438 8.251995374497374 0.014389950173084894 0.8862466612897576 -0.833865319474564
P 1.9329775771232482 3.446154814330509 10.785461921940858 -1.0841079619490428 1.1640214477462338 -0.7020055225170684
P 4.3193682985060535 6.331209838136839 3.8920749714825376 0.9059024878474722 -0.33324145206521316 0.25825934213136814
P 7.204896870355154 4.220323904021992 10.436147386852625 0.44150726375285254 0.8813011443590242 -0.5188319057769452
P 6.447292855467506 7.857764807552364 10.471334738438406 -0.07296225129033886 -0.15640097663196936 -0.24221514418431192
P 2.664026474843231 8.961231920831901 5.980127693912033 -0.6597723248794702 0.5234681189973759 0.004823903751204596
P 7.040111258164174 4.132781262961374 1.4022850349608085 0.5705691862502368 -0.19774457257576264 0.46139011871970864
Ni 2.8758299436654364 1.9381410721280719 0.9017684311546015 0.818041722178746 -0.28203767549788844 -0.9475597583769422
Ni 1.4981420868492998 1.3811484002056127 7.357181724886307 0.4039434465664656 0.5750891856077773 -1.2527687297849714
Ni 6.817716705231545 0.6711769437354792 9.268564600589912 0.5825777806753386 0.3554467845176588 -0.06376335839989018
Ni 3.25008771123729 1.831911496764282 9.682443768632641 -0.9798469005454221 -0.21785985526839902 -0.5807767229108578
Ni 6.594721110552323 2.484997994596618 2.9249669277880597 0.6056827421239183 0.0749653977632967 -2.068397728757167
Ni 4.0731870631173415 7.418722025052263 10.495485688619699 -0.1782088165356802 -0.4719216143786517 1.5649687877988532
Ni 7.455349144821931 6.327403240408415 11.73653581104099 1.1335757296618671 0.32087804540385384 -0.28620851904612643
Ni 7.847656378177843 4.313148427098127 8.205584934297933 -0.19316980872088668 -0.37850186656490936 0.6345315480348104
Ni 3.25550619364976 8.86398154489449 12.534943275167818 0.14591036151329068 0.11896160083858866 0.783638819218844
Ni 0.27353956289046133 5.158522750374648 10.345819008363478 -0.9168924112000726 -0.5336879969531713 0.09917516224028082
Ni 8.580836242090292 2.593923151126947 5.939662102987986 0.6997066991805627 0.13266352380571345 0.7691269987559141
Ni 3.9668937409016394 3.2706597310184136 11.68095493085944 -0.19290961308096455 -0.895397217440774 0.857762952027768
Ni 1.8748131281006568 4.094077817158022 13.190068761592004 0.0452915248479478 -1.6379174122424371 0.03316388834647837
Ni 3.1856760707273817 8.708238878981799 8.103754802385343 0.1737860048776362 0.41005110212610024 0.3747058898575869
Ni 5.956569589453516 8.02873386437875 3.5283782359337774 -0.22259017086453275 0.4713009500755173 0.5078759209860737
Ni 3.3939552493081995 8.246520430587498 3.786178701087313 -1.0699118729543187 1.873768047661302 0.5633065911505525
Ni 3.979014749457937 3.0739187326335595 7.252459307235565 -0.42313981698925834 0.2053090151865819 -0.5221841100786297
Ni 5.443407431566713 5.025291829879813 11.496540752295626 -0.9858434844484893 0.05257828831734816 0.10154134847961221
Ni 7.917950942449861 0.04409005478986618 2.545209628234878 0.6237791946143129 0.08987753898843875 1.2820985890973402
Ni 5.088874761314874 0.6450899105947064 1.6638447430384908 -1.031696795337178 -0.2554666098775794 -0.4619297932732625
Ni 5.911536991924675 5.753426585798132 0.469237844911907 0.46783407457283943 1.0853950561915824 -0.34449697037437443
Ni 7.875677672939469 -0.026266434995437574 11.569754922385185 0.5872103943513436 -0.13100516226668404 -0.10509589860008998
Ni 0.4076674926586208 5.307016488555698 6.009357446852038 -0.5426917431136783 -1.208402030744138 1.2733277848832458
Ni 7.641744939810876 6.217494561020024 2.5524203078553707 -0.9925170398139229 0.769508550465049 1.0099961704352929
P 8.594978936521494 1.8467827266458996 3.7169906000306137 -0.603616860733825 1.01985995060325 0.15455569589311446
P 1.8603790194892889 3.5145187596589254 2.0109873318151723 -0.8702582562813013 0.29483277038002775 -0.2358020415691165
P 4.884292900144917 1.4490114774118676 8.344921892536567 -0.19889257013727682 -1.7970692121466663 0.7422584564998442
P 8.750029493756289 1.5728898240619864 12.660044650705322 0.7547769006818292 1.4731163844722308 -0.8899405652015769
P 6.4843115630417705 7.878136480084623 1.3504506483330199 0.17121798704014382 -0.19004643260055654 -0.3199593902443264
P 1.9983363137186978 3.529590336789407 6.4186778043137895 -0.7404717969130667 -0.5206525039254517 -0.5638457514834742
P 6.844608770045028 4.227663898684934 6.341851919728791 0.9222066243241344 -0.4170419316216366 -1.0889048691170535
P 2.5115986452299337 -0.13529813983539024 10.47541271562211 1.0754628846795349 0.3030083642122846 0.49917145123354034
