# total energy = -340893.5682261942 ev
CRYSTAL
PRIMVEC
9.03106566438805 0.00000000000000 0.00000000000000

0.00000000000000 9.03106566438805 0.00000000000000

0.00000000000000 0.00000000000000 13.21787747394565

PRIMCOORD
 96 1
Ni 6.330560358819127 1.9147755955085337 11.435803776168271 -0.24566762150928656 0.20553167272034925 0.6195983237637459
Ni 4.702033423939674 0.2786535343169583 6.048157125994685 -0.2674795751780555 -0.2447559083282946 -0.7513128533926288
Ni 2.9582159034471838 1.6609755541891535 4.850829263557442 -0.45374057259425077 -1.220146829984892 -0.1993412276389212
Ni 3.368804277590311 4.061929544331268 4.633698961688411 -0.36289269927274276 0.8551468545611595 1.0764514738450495
Ni 4.981301070728956 4.652543183522986 2.7558351381928508 0.9337732461158113 -0.05839643766102201 -0.3282213731428024
Ni 7.0665109394389045 6.185106013536062 2.46338936023276 1.1698323980010563 -1.5868416766125444 0.948799287210998
Ni 4.9961120185908845 4.455936881721651 11.538903326099105 0.18829782534056602 1.3489688685573284 0.24859019447272024
Ni 5.637724086182793 7.9214458115714335 12.435841685125432 -0.9171065840934077 0.5276842139612525 0.16437551019701369
Ni 1.8760052301602044 6.4924422127368535 0.15127847959779409 0.1123222411452001 0.09515164290318451 0.9070376298931799
Ni 2.596666216432272 1.3909195944847297 0.269460812470216 0.530422438828022 0.6902861771976112 -0.03565991529545472
Ni 0.5461428651296993 9.297572520325772 4.85780756807751 0.11892252007053712 -0.8879009090637289 -0.2792613983043319
Ni 8.580623302084957 2.4080072525080696 1.4442245570824417 0.11920765541112374 0.45405013341486966 -0.10184011066695366
Ni 6.960549444765728 0.9821103402981876 4.602491210815436 -0.20865273484783423 -0.025162358198240534 0.4595260689277764
Ni 0.6057767986186553 7.396180964287591 2.354923551021709 0.8035162748690613 -0.6019032204768279 0.19060564753813625
Ni 7.4282954341638225 3.90635137432063 3.6287571840184305 1.0150514734710132 -0.07928150864014732 0.45627362342874966
Ni 7.590105039555394 3.8598052613447877 12.625544640252585 -0.14362902167828165 -0.29923218499930404 -0.17866030225080198
Ni 8.195601875135196 8.740834408835333 7.075926728610153 -1.602550602707369 1.3458236380601274 -0.6059010287823113
Ni 6.82298825096518 0.908308470830089 0.4908393276772035 -0.3491630083914761 -1.1798473590348972 -0.2807009589643359
Ni 2.031005411961597 6.139065640243311 9.47195788480133 -0.08500658404938263 0.9580272335671696 -1.7089045420842763
Ni 9.381109878693358 4.772150618573829 1.3310273725147665 -0.9710285309228439 0.8502468461563809 0.3477229335108399
Ni 6.382163868625871 1.9451109454281792 6.789706064284957 0.899861938080347 0.36300788469436834 1.4099734332651588
Ni 3.337601945356796 4.257298590122185 0.4966137911302018 1.3340418149338507 0.48365587209644445 -1.8401673288877212
Ni 5.754179679280092 5.974068068635117 4.839593714633645 1.5971199186101008 -1.360009442642206 1.0357982191000612
Ni 5.426532613163766 2.708515965987142 9.325490253938932 -0.10635419648722329 0.3554097606321363 -0.3662798705774208
P 0.15369067726481916 5.579970420587039 12.446178643005167 -0.39733031212532216 -0.8328805869637914 -0.23849450079961507
P 3.893825286098377 6.14861147676164 12.565852907942704 0.4487441478209239 0.25578362689736595 -0.31607599602952013
P 2.2617581734372925 8.43384139013378 1.3307230255983356 1.0589661725760924 -0.1521008065947187 -0.23180988969058786
P 6.607308338258727 8.113816543526886 5.624616397324986 -0.3540419337503322 -1.2322749807069937 1.1114948386024277
P 4.615560969197011 0.9874567312337131 12.588243629304948 0.27604649091146005 0.3444614891507487 -0.5068742191944368
P 4.015293120697732 6.058797527684273 8.311758539955527 -0.7431393164429008 -0.07793785012805932 -0.4440711678252868
P 4.870209930698721 1.0543769285854767 3.7201452478594157 -0.5890711017091661 -0.4204116194248179 0.4542421948210177
P 0.05449345085297444 5.488874060170408 3.385534326928252 0.5192417396208542 -0.3582292323588024 0.6465224018480994
Ni 1.6181050849814853 1.2886698678428041 2.4744126791109733 -0.4436423078179843 -0.14003179124532655 1.1122893094792652
Ni 1.662023157818412 6.553239347496917 4.562375216667456 0.930060058930282 0.10796602105903343 0.10748136811313103
Ni 5.997566901767275 5.670181736558263 9.103535556735853 0.3096520947810473 0.852528443101706 0.701844571459172
Ni 8.390058783283397 2.4340167219241393 10.42590484649743 1.0939707136757353 0.3001806649555024 -0.5949648414857818
Ni 2.1306812848592234 5.1801019215122714 7.319637263251882 1.5273748887054792 -0.6650672547298224 -0.9707143421165346
Ni 0.40641060311817095 9.213764229985102 9.233255979235347 0.9504692187142534 0.47435027842480243 0.5629849461450755
Ni 1.2726397261019973 0.8732950288418586 11.473144523805294 0.3800069903555262 0.24396915076094114 -0.7793057390611289
Ni 3.9700384501269235 6.862779126745459 1.5519507220069728 0.31328557776857663 0.6920298993615952 -0.01143241020665773
Ni 5.641201046504038 7.786422347252106 7.79486007200052 -0.008094604082676381 0.2575779997936274 0.15463822830459176
Ni 5.399105266421889 2.9328657018322852 4.793965157939981 0.06314217987612351 0.43614265700682947 0.05538927540358203
Ni 0.7777869927968419 7.227200692675061 6.809679169340713 1.046554172064985 -0.3051662910955518 0.0457365828051664
Ni 5.099833808953234 4.590562979147121 7.069357531369441 0.7556389915718084 0.5295654901443654 -0.4178675128467255
Ni 8.183075786912942 7.334038200727877 9.112787883616674 -0.284054191707285 -1.213306152913975 0.481511572059932
Ni 4.832947753333894 0.28131318318606685 10.404253769421706 -0.6385303847815583 -0.05850956620011859 0.4454803894679876
Ni 8.221457816433185 7.073193928108311 4.5318547298995355 -0.24484512560799127 0.7615329884587402 0.5495437330385051
Ni 7.456318831246484 6.292178329298884 6.9602568382347965 -0.7575686044943534 -0.948930927692856 -0.5438363982410828
Ni 2.617672475412056 5.069706173546285 2.49472896466597 -2.0403292526557246 0.40505981955909587 0.949566504394326
Ni 2.5161452340316885 4.8764142728823465 11.262675536047825 -0.2920505796492002 0.23433342744338997 1.6067121902842263
Ni 1.0540698723493147 3.455890844805298 3.994931679813887 -0.19196473266919198 0.1144984228609125 -0.8821658063521646
Ni 3.765186785278064 2.62049016793213 2.5723708432992467 -0.7729869959319525 -0.03748205610585803 -0.3910969296211007
Ni 1.1487605969421946 3.201666343394753 8.379684798034008 -0.7359587395340615 0.011846357815624759 -0.7300685993018717
Ni 3.962533634472495 2.6487844969878758 7.05012497370678 -1.2632295201069792 -0.9994520763708593 -0.1340046112146402
Ni 3.8199150438410445 6.700825024301576 6.078928676390996 -0.3130942876933769 0.23410742747551294 0.4828326048642007
Ni 0.8212426750663716 7.23216777884827 11.221264487068503 -0.7992893812719074 0.9467663159413695 0.36698640972614216
P 0.12252085686807475 5.499323003265683 8.20342458430471 0.3843781228400283 0.4738260304902162 -0.2914314580079626
P 8.544237138099767 1.7283743980266988 7.98398142649212 -1.0985413637655532 -0.08205598606149095 0.09774460044134135
P 1.6846821018340088 2.83520375660125 10.424107664409304 -0.20778550175153246 0.9319670461450079 0.7682093720376512
P 3.8281604068885695 6.106300933631678 3.950718291126299 -0.20309709513692764 1.1687641046375419 -0.8365037855386755
P 6.734583148147849 4.130592737376539 10.455248585395587 1.6393716281904607 -0.9005638492433781 0.2528829083108032
P 6.404669284523387 7.739686581895104 10.278367034341349 -0.6873913721483194 -0.5681670045666473 -0.5534227563779373
P 2.458572189751325 8.444859290372532 5.758249077515814 -0.04587413682429519 0.03871952805738493 -1.1127814186243352
P 6.729914087145034 4.099507808998028 1.4608922920665732 0.9102900753922065 -0.2595461792635917 0.5852506995218114
Ni 5.294579711206057 2.9075606555462334 0.28408933280360155 -0.555707695757372 -0.04545196168521204 -0.11855768053195066
Ni 1.480805792088252 0.7869074661174283 7.063898252111797 -0.3615852933152289 2.1407652838863003 0.16163754244056033
Ni 6.875973513834652 0.6231579877985749 9.191249783021815 0.6805190705085182 0.13010887570465982 -0.535623266302671
Ni 3.005520625947661 1.4984976499306413 9.336222772499369 -0.7592907293917827 -1.361147155791075 -0.8052813371892842
Ni 6.210429121953653 2.160167714596539 2.40939442421026 0.7580329457252816 0.03328575863632332 0.7080627844547418
Ni 4.100961810586912 6.981167367917425 10.374513566736267 0.8610735044582397 -0.550471129948781 0.16874689979183194
Ni 8.107377393633255 7.044186144856778 0.4284048606931352 0.7507826919207714 0.7071269029040338 -0.27954010588701533
Ni 7.549013690304312 3.8754019119286602 8.387153489425359 0.5157933760609374 -0.3306299825842951 -0.8802899294856903
Ni 3.1242791408161747 8.32640783174018 12.261881683847617 -0.04776646875100161 -0.1577585191011283 -0.04160661979719286
Ni 0.15646411756262305 4.9348001130819625 10.321655641894143 -0.965086454406796 -1.112137100172117 0.24364930552767716
Ni 8.67644290989902 2.6329981940228446 5.900037713203051 0.13951628506148875 -1.030065687491658 0.2093371625093685
Ni 3.6022482966653087 2.7253589036472015 11.458749908075337 -0.1940910349835754 -1.958275837697395 0.40849481338257393
Ni 0.9713543409667503 3.392230862196313 12.572951325637506 0.11618943741009022 -0.6013599463788482 -0.5827456737117707
Ni 3.036795206707331 8.261194505818848 7.909961005232399 0.9779003183420126 -0.5698909292362896 1.0503596618540039
Ni 5.740190558403184 7.823323281986156 3.5043497375111134 -1.3899566238235996 1.744680414132305 0.1518904903561255
Ni 3.147723787553716 8.504265641004098 3.3340111936068557 -0.008839195558184777 -0.41992645225828323 1.4678281394900978
Ni 3.4160367515646324 3.944281850552399 9.212212692885908 0.12886986109123613 1.0176737415852086 -0.5011131483409434
Ni 7.074846613144124 6.1200642778643495 11.648783400209654 0.7043953629054837 -0.6213433314793105 -1.8958810775102577
Ni 0.41166758650257873 0.11516415069226549 0.5268145781698823 -0.35118003882150484 -0.9066547926324643 0.3327737684001753
Ni 4.622063336551029 0.44278592982443726 1.5522939025062128 -0.23542923161073 -0.9419922915914938 -0.24278644330674964
Ni 5.896960829095392 5.777037306742617 0.43284453262540606 -1.2451531222212429 -0.598798099188943 -0.5319527594296193
Ni 7.839001212161953 8.750199624038272 11.569740803275533 0.6151300035797471 -0.6916779153388153 -0.3411805044066318
Ni 0.2489548745340603 4.9399026652417115 5.938342978664252 -0.7269197692602448 -0.014139781835491777 -0.6637539352350375
Ni 7.822943977223838 8.825310998042944 2.6319171754502393 0.19167676911512793 0.6685374726666099 -0.28844357902423223
P 8.714508852117332 1.6749104886714437 3.5141050947552936 -0.49069683810362585 0.776366711037463 0.14288520153372167
P 1.830488658682082 3.2275855021531283 1.4530939667746372 -0.3599107338262834 -1.5410295033744363 0.7861867824516783
P 4.826598914097957 0.9124085746894277 8.235755799759408 0.3670864256391162 -0.2424995081939501 -1.0065483210960087
P 8.477461437800315 1.4942440179532215 12.500596232905677 -0.47071782387853767 2.546650684670485 -0.5572837819952402
P 6.2970551048143975 7.834214747304134 1.339248351684714 -0.7853331762021314 0.6732338497010147 0.005839232389596395
P 1.9584498295696846 3.175142103229823 6.1429824134675295 -0.4184920338046018 0.32081248227324105 0.08868403290096985
P 6.986739535497187 4.158155550104958 5.959980509141323 -0.14002176394299756 0.24634664985418223 -0.20567873982117485
P 2.2910730129249886 8.273431599936478 10.006065951686635 0.09483282611118506 1.1362846439525978 0.8109660462788874
