# total energy = -340896.4464002525 ev
CRYSTAL
PRIMVEC
8.99935520638943 0.00000000000000 0.00000000000000

0.00000000000000 8.99935520638943 0.00000000000000

0.00000000000000 0.00000000000000 13.17146601332271

PRIMCOORD
 96 1
Ni 6.482730626344291 2.201269317760955 11.424745517878721 -0.35345597933987516 0.0974995743100708 -0.211737544420745
Ni 4.731411077594397 0.4167655460771147 6.1358612734340054 -0.8186952966023449 0.12693330619015558 -1.020157684349327
Ni 2.747944158121486 1.616680193292188 4.852631494283105 -0.18331065653861978 -1.7103554155981897 -0.5077154841488094
Ni 3.5764068133400975 4.069319504813231 4.975771473468916 -0.7511282481856483 1.1808349197591472 -0.47675143166712725
Ni 5.093941108692471 4.646916130171602 2.6445802623270476 -0.1656507773650115 -0.9020183223017174 -0.22526283260068947
Ni 7.181224591534147 5.906303917181997 2.529988770792416 0.5234287811190081 0.0641546803010379 0.08515365115020819
Ni 4.83136691751611 4.69294783280954 11.235840049633767 0.8966046074853139 0.011254489867896747 0.7168844965114299
Ni 5.652315111013768 7.897978248738152 12.318574090778737 -1.102983201586991 0.5741453336372692 0.8735492683277472
Ni 1.8059096383299003 6.478860903541885 0.43917754065180054 0.7103670071078863 0.41638347210203125 -0.11182190447001387
Ni 2.8106426668758373 1.5769840368237733 0.33453033678381977 -0.007677314039599681 -0.5382987562523052 0.7280045176839913
Ni 0.4739861472272211 -0.0005021640287774938 4.461044344616631 0.49758790879650433 -0.4660381590146812 0.9427404826114281
Ni 8.652142226150545 2.3068047580024187 1.23673460971221 0.17582771789801332 0.22539318753096668 0.6814708928988265
Ni 6.857274796840538 0.3790474479156052 4.563741388179305 -0.17826049570922203 0.9235070883031127 0.45496955990534543
Ni 0.8705778384062981 7.2323139318812775 2.6363350529513143 -0.1418963552578911 0.12717190456352295 -0.08895991227017581
Ni 7.529832619898911 3.7262730780575097 3.816642804655679 0.22873844985411573 0.2178104900877023 -0.3272680080905977
Ni 7.796789497132882 4.062983958643709 12.74147089765883 -0.8445045443559649 -0.506553088409592 -1.192050328858992
Ni 7.768468525832474 8.797004849290893 6.899977637932869 0.06468021378720473 0.8498534673727041 -0.007675000046754523
Ni 6.948492262713094 0.6934552261269075 0.28235657411648063 -0.22116038039654168 -0.05415283189331964 0.09876995638206215
Ni 1.9599696026424795 6.367898852021696 9.049100191092547 0.033787123752774074 0.6596684523117542 0.5610566187741112
Ni 0.23165060630745002 4.922404396281578 1.467301693634986 -0.5424526305196787 -0.8823432124702933 0.2757675262184605
Ni 6.231864596484051 1.9056944904998798 7.1766574186917715 1.2916985740809495 0.467699091656872 -0.23147873160341426
Ni 3.3658398967570187 4.486718605507298 0.508574269596458 1.2607000688169063 -0.43262795898535167 -0.970922858582915
Ni 5.820180086440051 5.50276382373376 4.889168877022113 0.6480144130125937 0.02324971455655996 0.4057452756618948
Ni 5.492090588283401 3.1098712324108133 9.256063765791712 -0.8259355231045259 -1.299345549103246 0.22678518278248685
P 0.38836898019172933 5.460403858080434 12.368981279990003 0.19113143813461922 1.0748278221986973 -0.20656011398486362
P 4.010175741423883 6.269832876724415 12.615695907225241 -0.2632619375522821 -0.25936311671850815 -1.0785556646722458
P 2.493811362267586 8.404992930051687 1.3794607858914132 -0.20793539706583544 0.3725399925545197 0.03674389238825285
P 6.174178728662121 7.716083278314305 5.8408606050445435 0.3679348896823405 -1.0574085982809853 -0.6385766646384615
P 4.8254633404036005 1.1742358866467273 12.520097555166144 0.019903680902462497 -1.7260424873161435 0.03342639797924565
P 3.9940488966287346 6.127031105960234 7.940747685060107 -0.47865636199932404 1.408946791772857 -0.2674862600462748
P 4.509981939098513 1.0085127577947999 3.702394188560051 0.8393939626022769 -1.464371548400065 -1.1649421597882905
P 0.12611786587259274 5.4266652748566555 3.761177977735223 0.016939970288448247 -0.40948571654093346 -0.703154548519847
Ni 1.6153482886997312 1.0168821582744247 2.4981526512905656 -0.4992722384774628 0.714115418406725 0.29441830855042844
Ni 1.6717202506399147 6.32767173358737 4.9939222732832755 0.5845750136110255 0.28803554495253625 -0.7928814208630345
Ni 5.75892147454241 5.594224272200887 9.201230693617136 0.859228737940017 1.440280311778816 -0.06794602902267009
Ni 8.756570745683414 2.5460526201000833 10.143886168928178 -0.08626513904683208 -0.4002330875944139 0.026681365945928247
Ni 2.2659926814700544 5.0242141034063055 6.979164765567616 0.2728997177523622 0.6252264685838006 -0.12898710339539077
Ni 0.5775606279369533 9.074229990984275 9.02373190828393 -0.30090854426046243 0.03663667738642722 0.6770629936391178
Ni 1.5813487241706747 1.048703878807708 11.345453097786326 -0.639899240104627 0.8748975548255254 -0.357484640883294
Ni 4.10926764323157 6.807949330142877 1.615927847184557 0.20699591597070158 -0.059585315762800614 -0.038568604301817445
Ni 5.571095928939989 8.010191210652607 7.934807210590644 -0.7048992991250956 -0.46854318482472207 1.2274590473755893
Ni 5.279669804497308 2.5693789491787795 4.829779431231588 0.7955648812324686 0.43171855979720486 0.48969616475325345
Ni 0.6402249391409577 7.449567369492701 7.017757601069577 0.07590950684412087 -0.18025130088700572 -0.37280018819444183
Ni 5.179039012924012 4.450352210520025 7.128371377537548 -0.2063138023020124 -0.004426411202469796 -0.38821857963204104
Ni 8.032338624179873 7.336958435942652 9.05793845798614 -0.5016175987811877 -0.5975873667102934 0.6643599442501525
Ni 4.513329699290364 0.4715563212815236 10.441943018396007 0.11453441830517049 -0.043139511501951514 -0.3146696026002968
Ni 8.007653392442657 7.044254403039641 4.710300389803962 0.011139818666903395 0.10311460650400306 0.3460671430749717
Ni 7.19378769160894 6.076598718553978 7.068058597887659 -0.20651100591448304 0.6405409874536839 -0.6866519228791336
Ni 2.3864850503105894 5.170417630494463 2.6115067314639626 -0.3693356266846091 0.2767874828425427 0.9956288459700273
Ni 2.4639964979783415 5.321984773373863 11.193243400934618 -1.0694341619869518 -0.8920267583066444 1.1410010755916609
Ni 1.0757919384245587 3.2730835411188535 3.742633006156338 -0.23525799614018839 0.16533093213174752 -0.10055584463789134
Ni 3.546267972258094 2.7218910243703958 2.684937871414013 0.7906270776112191 -0.13031250707503364 0.15302228996772357
Ni 0.978418913489568 3.2629052702129866 8.078850892393737 -0.4801517155979279 0.5087686080036721 -0.27897857695659056
Ni 3.623320452802769 2.6641871578377563 7.035367539627136 0.29007802930386173 0.004944488489468904 0.008720667702449498
Ni 3.975771205903876 7.140502508555327 5.721105283407536 0.4278243669491213 -0.9750312243243338 1.0856812199734334
Ni 0.9080439546178835 7.386859861382996 11.235655562849002 -0.3760809158282426 -0.6413187461599729 0.015335859026121975
P 0.20964988227246184 5.664725222047534 8.051756533228138 -0.6986828859017387 -1.445562386113362 -0.37338408572236986
P 8.41228240788878 1.69386766416718 7.978154405526353 -0.5683279556245437 -0.17713435252457882 0.05552143010607212
P 1.942348864858495 3.2713916623122197 10.136075628416064 -0.5591797134663725 0.26933719721208454 1.5370316950689529
P 3.910165905370042 5.96803049555807 3.8957246398327796 -0.2612135396636856 0.578119487793669 -0.2810220897491806
P 6.9410227977689125 4.166512542641134 10.531074433697405 0.14989068631727734 0.39982865306714366 -0.11711169211404346
P 6.1456327734778515 7.69728362497889 10.207478313669226 1.0934634350220134 0.20757004330661669 -0.5791561565882993
P 2.21864707295037 8.390440972443566 5.789439188484835 -0.15444462423654692 0.31533937497381176 -1.5752961378667902
P 6.901380637432625 3.8212252764021577 1.5183406375921307 0.504975202399511 0.507514680991913 1.1185604871999575
Ni 5.264730874608945 2.802561245767554 0.5722753065372934 -0.6297667796563154 0.9916976292364211 0.04001125028561497
Ni 1.3397250322594394 0.9760340843206426 6.889348499323746 -0.6307427704163395 1.3687997872403266 -0.5561941484754873
Ni 6.914798676266089 0.7594672975227618 9.364780478150967 -0.4253782194014738 -0.02879764095798266 -0.42941485136469276
Ni 2.5481494698976666 1.589169163973679 8.913276520470196 0.3970166375396453 -0.5280464823966777 1.3704085264883432
Ni 6.353085913108297 1.8770855398281296 2.564971964861712 0.2532451767462284 -0.07631008471664923 0.1755289557106719
Ni 4.052571704498628 6.970450689777916 10.33561023527014 0.15062936425551476 0.2755230143078223 -0.2139453507053412
Ni 8.215007539164201 7.1015622979366855 0.3980090896474005 0.6783344041523737 0.175741071721478 0.46652435462248043
Ni 7.4888315569041035 4.014783411365353 8.242307983567416 1.1442980011753776 -0.5496987705591307 -0.004954772902114047
Ni 2.9552353093555506 8.243778478232333 12.313187076663572 1.2172317132206263 0.2896265435887399 0.32772823555646785
Ni 0.10087377416786608 4.985633867001842 10.210204218406082 -0.2594104250166758 -0.0560140534717745 -0.11029415497157778
Ni 8.427032351314699 2.178077979012575 5.666720379129613 0.18318441537340063 -0.21313416765795548 0.18615403952468584
Ni 3.6458368398995664 2.702947381349309 11.606617089978647 -0.7370781978504855 0.7709835923486787 -1.2171309259767038
Ni 1.0589631439117646 3.27727724071402 12.64346161830028 1.043296070139003 -0.07525310420704459 -1.2999057924820903
Ni 2.8035691735672508 8.315854315266005 7.903920523078686 1.928303202594705 -0.3843125597094155 0.0667646071200592
Ni 5.664563233651155 7.589660334295197 3.484946364872971 -0.5651958377534654 0.30966623584843445 0.055755143383433015
Ni 3.1767184439835594 8.183689782530767 3.5694935085568202 -0.3847105664787826 0.2846589151708194 0.37205482538798507
Ni 3.4489129460338117 4.399874826336998 9.074956238961375 0.30431397039758556 -0.9838470228437507 0.3873914557450554
Ni 7.25315643888215 6.276573393884886 11.622607144572408 0.13689401694729328 -1.5984980299045504 -1.9520002891013288
Ni 0.6180766256781567 0.13451606428935184 0.3343125523842424 -0.14551723983993003 -0.410588462686809 -0.29901929765754953
Ni 4.765149660818175 0.2362042801167943 1.4597278361686932 -0.7363387485812997 0.18020476391978643 0.14966700034224548
Ni 5.900697318796184 5.423308515309451 0.33526108443859987 -0.3387438699406811 0.7924494755319385 0.15592352277491855
Ni 7.986387915740126 8.648200508505303 11.281005114351071 -0.39385160954810233 0.6605559971230301 0.32997280861627043
Ni 8.97409416395547 4.626919562574048 5.990975251969738 -0.20415484697748068 0.02799982764703565 -0.4810004367514683
Ni 8.019847518947916 8.756525748906641 2.4207572953068857 -0.08342741248772083 -0.500572702456441 -0.3425668432311971
P 8.473091052018699 1.605332006190245 3.389598194892728 0.057052779148934 0.6789566111174048 0.6911852919731128
P 1.9211643823541542 3.320249162531449 1.4867421010716373 -1.6895837302684775 -1.242806476365937 0.4615207307603019
P 4.544242484932849 1.09776836420009 8.280887320036348 0.7262579673065299 -0.02303682721480549 0.055165332318234034
P 8.445912998848303 1.632969026483716 12.128378114975959 1.1390876606190319 -0.2652784537616786 1.0582364934989192
P 6.389308318409898 7.711394614174644 1.3468615210555064 -0.34007004495127235 -0.5685457280623046 0.23418918855604184
P 1.7927435814463615 3.1469125790496695 5.948115822094239 -1.1937919941404471 0.2798008157475697 0.054377803419932154
P 6.789590645219829 3.6919855341571113 5.939330651397239 0.815746498386666 1.0600064409151486 0.1855176914922676
P 2.4355315369922623 8.491188755636468 10.09126603823526 -0.35681306873756613 -0.12835306935581764 0.009823928068957275
