# total energy = -340889.5754018786 ev
CRYSTAL
PRIMVEC
9.06685451390819 0.00000000000000 0.00000000000000

0.00000000000000 9.06685451390819 0.00000000000000

0.00000000000000 0.00000000000000 13.27025807280508

PRIMCOORD
 96 1
Ni 6.651353831716398 2.332593403495619 11.139824016723033 -0.44447585946287327 -2.2944902563480034 1.1095148320579213
Ni 4.935234003005144 0.4349098123555944 5.8303011909053035 -0.6624498717116333 0.8826751418884153 -0.0837518857066751
Ni 3.2978144718160713 2.079156685023261 4.662318960896046 -1.1031621503670164 -1.163039543448939 0.7743872187135888
Ni 3.523044205773278 4.593739993111652 4.406588328221717 -0.27303778599212336 -0.6711039478422055 0.9201561695530088
Ni 3.493368390820501 2.590799287462984 2.4010943963308544 0.8658452148152702 1.3734511699694087 -0.17439407077528032
Ni 5.051788418287132 4.6160625890217455 2.5944287493406493 0.45312607893870344 0.44650523118807617 -0.555833679812275
Ni 5.400218571913858 4.629744472542596 11.314142455678303 -0.45037139901170176 0.5858194275410878 1.1547634194830758
Ni 5.767725387520614 7.688828663971676 12.249443810658494 -0.8151708283888541 0.583120540552686 -0.6844662280817244
Ni 2.064722252574492 6.55401208123274 0.22470657644948408 -2.946197544831152 -0.32851267913097615 -0.3002441712035861
Ni 2.8571109394009526 1.6251067427057626 0.24219653888269738 -0.2144102061569017 -0.9511248500203812 0.7804982167073332
Ni 8.322166588225079 0.09398701429895744 6.5815970795255385 0.7725730483229856 -0.24760237663815424 0.6131358559678538
Ni 8.58577631750618 2.332085659640637 1.130954102699253 0.48315167876651627 0.6311340923174873 0.6955669659805763
Ni 6.892786034760257 0.7787965651656877 4.528661737870267 0.03569411096749982 0.09594328556654443 0.019313355616631254
Ni 0.9481209806330291 7.662924660513049 2.4140590916565423 -0.8291082644055527 -0.26877849649513713 -0.5677479147513578
Ni 7.723790455128997 3.967156875500418 3.655783863118268 -0.25318578426320265 0.49148822365666966 0.21699467905462627
Ni 7.756095657902215 3.8808313532989542 12.542928825692545 -0.3234254944160559 0.698147839333875 0.3295087244956583
Ni 8.365959495717261 7.236220351528144 9.368032794369386 -0.2977663990870549 0.20547845088491062 -2.798103288292665
Ni 6.864597183954213 0.6761615849938435 -0.014691931118081288 0.08735657233879794 0.11260686226515446 0.9725966467409121
Ni 1.9058437602379465 6.534726881597984 8.979704853966552 0.16777733678971105 0.3055663547474479 0.10504447653686425
Ni 0.01845376907222343 4.959469705225972 1.283394221617538 1.2375141176187463 -0.1261231515840344 -0.1827696964334852
Ni 6.71516635406215 1.8972937163942347 6.776125537279996 -0.05346274780483051 0.8752868198441442 0.071317002377432
Ni 3.2913226039559467 4.676620110582881 0.5063448393242608 1.0186597596475617 -2.1429671766336256 0.18617949344598259
Ni 5.9264406764752025 5.715219232802761 4.70628413862474 0.5689388497356653 0.718946007026149 0.1259233768684025
Ni 5.226270967309816 3.240802090385255 9.513155961663202 0.6121377537206426 -2.300910043831418 -1.9788415776638886
P 0.3367701786712499 5.325208484194847 12.221323867947055 0.5723121370832724 1.0400099431885639 1.1054869418454512
P 4.053174124647072 6.081094014589935 12.378496884942136 1.5878860587166588 0.9627914877250321 2.087804929639185
P 2.414013757383776 8.558983762301335 1.0304298862674044 -0.46337423902927294 1.3297971807248838 1.1248756307847079
P 6.682108602361012 8.000528989803199 5.7983459687178405 -1.3099294952666796 -1.134339604411085 -0.18615558218658262
P 4.978428498096812 1.3459382910112903 12.597774228885136 -0.7507135292457329 -0.05727646512396588 -0.7553137470219056
P 3.996714821344003 6.425525685358678 8.179521392280666 -0.17876134660504053 0.11402431143797136 -2.0996713420594677
P 4.965589832049415 1.4140485024152813 3.533710453469718 0.45657701360178143 -1.2407524220503858 1.0647071888249278
P 0.29692679302246167 5.782803566642665 3.4298704883277464 0.21297990146827836 -1.3888482212507693 -0.15923124699191285
Ni 0.7390320611515129 9.205940102093713 4.40721212781498 -0.740360468146183 0.21569987150260272 1.0413191489182905
Ni 1.9553487860986747 6.882059945823766 4.655989389732424 0.4571701671010901 -2.167191853508945 -2.2300013326359984
Ni 5.9134388070458455 5.816867739199213 9.03266616478298 1.372094141720882 -0.10601018288424323 0.06328539032220713
Ni 8.996368825949967 2.4675988677934653 10.106323186818443 0.24200302817350577 -0.47353652427425535 0.5580967648148388
Ni 2.591787574609288 5.3870172316843306 6.743082292546142 -0.0167021432460293 0.9429150605160794 0.4812488053168486
Ni 0.8982677875574563 9.117084927471897 8.822452048651405 -0.8051039310711553 -0.5636506047535325 0.12527185932733265
Ni 1.771717780831765 1.1086405736437122 11.450614030357409 -0.49388500602362045 -1.1397954853193337 -1.18719505764922
Ni 4.174352635751216 7.02884325418628 1.3859321864456624 0.42206612430910545 0.3396339858551183 0.14151583199002077
Ni 5.456505604980415 8.169127150220824 8.056439748405795 0.196917448688777 -0.060862639813327436 -1.7510850321070681
Ni 5.553611617245689 3.2866169064428115 4.986405516732758 -1.9978548855415983 -1.6218963542238325 -2.0766949357689524
Ni 1.098784902744333 7.523186298138408 6.528276721268804 -1.6218894122452974 0.1290989463829067 2.8838557493691366
Ni 5.150589932353864 4.850839720823521 6.889706024268519 -0.13628337994648787 0.9548555207074071 0.1271870740721745
Ni 0.7260845928494762 7.164302061211789 11.115725224005958 1.098279111243102 0.4056761129868562 1.3276191992369586
Ni 4.879382178957142 0.4529220256110747 10.434828927564409 -0.7775417051821706 0.537844699434022 0.2561124709916944
Ni 8.455639754103426 7.139168740390189 4.715692813594644 -0.9348032300422222 0.9246699982629624 0.4976239042407623
Ni 7.509531615181218 6.05150886818269 6.843830460285456 -0.903197173101167 1.2293765761132762 -0.13170115989244416
Ni 2.290804270859704 5.455852791452581 2.4366582266305103 -0.27536617701498384 0.09106538864895283 1.0001462742244065
Ni 2.5466346389341186 5.034171519890174 11.409316321238279 -2.288955185462387 -0.4551302538529258 -0.6476763129468847
Ni 1.039487673966098 3.508646040742722 3.6184275156734356 0.7259741175175239 0.00348693010733593 0.07902774075812842
Ni 1.5020785932727554 1.2089290518571765 2.4910530071518044 -0.9830420104439521 0.779804018853786 -1.3793896469410307
Ni 1.5210464529981478 3.426926480654308 7.982989159669942 -0.8738614002515273 0.42678101328627144 1.0150368181829936
Ni 3.9467564527556123 2.9121467465391615 7.062139464162168 -0.40294765831209955 -0.15692548167687168 0.14628291436136098
Ni 4.236297386058999 7.3167158862518695 5.775428587149053 0.2923038333105869 -1.4791880445876073 0.5917432492246906
Ni 0.2073861641964165 9.161331177691741 0.4221971755864869 1.3522495961911292 -0.000482853173689491 -0.4412316414939627
P 0.3010222912241633 5.628331565618996 7.856510165393969 0.7814855203212671 0.6116235330883854 0.145505155655072
P 8.912282816823154 1.7807574348213522 8.070467079085123 0.3312717299333521 0.06746908938625155 -2.0954272220711334
P 2.2359679345216663 3.015962231173838 10.384056355437137 -1.0951665337560492 0.3366772172196395 -0.9183126885863669
P 3.9206801790604744 6.5546014267787 3.71835331970477 0.6084029692685587 -0.5842639101285099 -1.3843431342915642
P 7.173876659620018 4.108717675640262 10.18176485681419 0.25078643079309065 0.8524086296943901 -0.856677432273073
P 6.299197200868289 8.020122462492765 9.905796098091558 1.411317348887563 -1.7028668205306283 1.6423451089964876
P 2.5837724751842175 8.768237698535719 5.4817577015966625 0.4332218838156087 1.6619633974480472 0.8868189888534598
P 7.07014277667632 4.354973445306448 1.4543270970826252 -1.0024422693474346 -2.1988413620934257 1.0655777643553392
Ni 5.210957049969382 3.346186140857644 0.49508017922730685 0.839108055930742 -0.9656906636496981 -0.30301607752176846
Ni 1.815229615832797 1.3567731822024205 6.747661054095532 -0.5228348562887511 0.1188996372524017 -0.7338643188988782
Ni 7.132232596656954 0.9408221627176653 8.926637460951856 -0.7190138841496069 -0.7227617812278133 1.0108518335673686
Ni 2.9311236731191066 1.4452838163512167 8.9686106507352 0.7289100602173963 1.0137024156422867 0.9741524212638061
Ni 6.497634379620651 2.212666118319822 2.324697079865196 0.960275406171398 0.5990410684376845 0.3799342281360618
Ni 4.135800370190811 6.684121444071833 10.378482959943256 -0.1130822592396762 1.89432221766357 -0.4051312962269797
Ni 8.17134852958637 7.093317656914419 0.17205988548605589 0.7491883508504581 -0.4582034934616108 -0.6524503372967603
Ni 7.912888773691514 3.9626325150783477 8.046128921407842 0.2977388882832292 -0.9619144844367175 0.7547121088821648
Ni 3.173716433545781 8.171665869495733 12.36324915563994 1.2979430123287645 1.3594132038191038 -1.9297592183149408
Ni 0.25937188146291296 4.805024904765964 10.053773511198735 0.4266714842916006 0.46149733372153423 -0.28519421884899915
Ni 8.838650890996236 2.419490137533937 5.702986232639521 0.24947491107051872 0.19376039111703403 -0.07744651231393758
Ni 3.792220983750072 2.956284194504367 11.83499970240049 0.15938602740222227 0.18570872445715111 -0.9946523409893708
Ni 0.9818587464256608 3.06089756233973 12.562648327660401 1.0086802798373469 1.1711336333109832 -0.251146899456303
Ni 3.030614268131885 8.584470690450512 7.735910119610321 0.95034657709346 -1.5203925438503751 -0.3727173986726484
Ni 5.557591966394564 7.9253375649931215 3.3670090790246308 0.2063783369913607 0.9245213885002401 0.1954334079440828
Ni 2.995643410120012 8.650123784270573 3.270681002880025 1.8077097225796481 0.13954045343120483 -0.04688997968331924
Ni 3.5310683720529017 4.560981447610771 9.203056842345783 -1.1650542598861224 -0.08314767646377293 -0.6598787685503474
Ni 7.3868208056575755 6.119401475077402 11.091746113768986 -0.05552580098144631 -0.4032073397313895 1.277297311053955
Ni 7.8575809609167075 -0.253530107074256 2.496400637967309 0.2108065479660434 0.8114185604352736 -0.23266503860203155
Ni 4.845218271000508 0.6875350473454362 1.4493512073038033 -0.374877896659077 -1.3489755534255479 -0.05597728669656811
Ni 6.112066389743826 5.712408507891256 0.2425356392429888 -0.9384737369152741 0.4820661590118214 -0.4257541146836538
Ni 7.824033599069693 8.685212511391638 11.2283636648064 0.9244558253696272 0.7870627572987283 0.4286093247442619
Ni 0.2776842076041057 4.798261031269242 5.708109005462105 0.052313464691735714 0.6046370744682231 -0.1707474751616285
Ni 7.285707243679765 6.323351301398138 2.5779597147301314 0.16384354895294362 -0.4185969348135823 -0.21057592001247605
P 8.488915110313844 1.8282314852621533 3.5638341710374255 0.9102024007744067 -0.24029273035061843 -1.0934634350220134
P 1.7305179937418111 3.3092205748440566 1.463218054657539 -0.8375162859635897 -0.07391433079096303 -0.7395513419813263
P 5.018667198604121 1.271163941510663 7.911594933546765 -0.8217137717136945 -0.20951971083381982 1.7008454192252254
P 8.485134231965139 1.5634521317436838 12.165628900482826 0.9846468930372267 0.13654357558641 0.04575380919634701
P 6.411308857419187 7.884047109357636 1.1172840060893225 -0.9098000231296655 -0.19517758317953482 1.1269250571145688
P 2.19154941406531 3.526235738576021 5.823188243508282 -1.329393517528562 -0.8547650457417085 -0.4748395593563951
P 7.033385748317457 3.9620431695323868 6.088394645876209 2.0192428642990707 1.5918918374419424 -0.3460424604846234
P 2.435420600983992 8.344516384698833 10.163915846940668 0.4502960656890761 1.0440679153080212 0.6601129960483405
