# total energy = -340859.93973745673 ev
CRYSTAL
PRIMVEC
9.38208213793017 0.00000000000000 0.00000000000000
0.00000000000000 9.38208213793017 0.00000000000000
0.00000000000000 0.00000000000000 13.73162556426023
PRIMCOORD
 96 1
Ni 7.248484154564118 6.508697587763268 0.45627692921982455 1.155502097421313 1.2411702263140947 0.19178989765422452
Ni 8.219726690255369 1.3371062147690806 2.68177251140812 0.21360853619121278 -0.15511028284500383 -0.6296068570396834
Ni 5.555947136169422 3.522240079155734 8.249068214256498 -0.5126707712715558 -0.40956593495956556 1.118919670311589
Ni 2.3122047862614643 0.08893744860545408 6.90235287085598 -0.5771442683645931 0.3616804241321965 -0.3572568411432041
Ni 6.622661740747122 2.1573441367882196 0.7066800131963282 0.538640198752124 -0.6620914599309501 2.2638092823243783
Ni 2.6252661064858214 7.203346956901706 7.090105224250423 -0.6416283069805918 -1.3745588012112908 0.4790669671741813
Ni 6.424484017566257 2.2843775303340657 3.7217097150612117 -0.49227832365813284 1.2774649469800707 0.7997179841688937
Ni 9.315872886823714 5.2812866785582955 3.8260150143777514 0.6272884933191519 -0.10837791178547142 -0.5064602715854697
Ni 0.6701949717767502 7.858394556900039 6.134672435343819 -1.8165944266637875 0.6957837099770727 -0.34846109722844504
Ni 2.3217088355718 4.756650021712641 5.481953468157751 1.8561148533559129 1.0626544200609571 0.2658875481005873
Ni 4.055423812923122 1.3288406003145836 8.116722685745684 -0.2070519660196176 1.5838972492722398 0.3713045774855218
Ni 7.986825880699823 6.551423590289692 5.393068559212847 -0.8782027079393584 0.381274287103724 0.022127170916342538
Ni 5.6389222715105936 6.260438309578878 9.585869511352739 0.904632619996113 0.4169683980712239 -0.42404535952266326
Ni 0.14095921821645907 4.05321902359644 9.755002184331296 0.41781891899697715 0.03490581073824956 0.2419420930285833
Ni 5.059231556073577 7.562605650081731 1.0938616595426123 0.8113442555539122 0.9728640414696859 1.5680859932715963
Ni 8.50803807752744 6.132823226934077 7.801925680306705 1.077988479314866 0.07579355009154688 -0.14140141789934357
Ni 9.329955392267754 9.17737458877912 7.820243257674423 -0.3863653284733862 -0.5443861000969658 0.7008909492966511
Ni 2.2472432488233967 2.6643800073493837 9.095856490810007 0.6742777175844967 1.0273531736565016 -0.29271880936081845
Ni 0.7442702639039196 3.500830167481316 7.153792674920136 1.6806308919505637 0.8865749911634537 -0.22259685573275212
Ni 4.1478373229989405 6.469396045254882 5.1298195282316925 1.1600071843805184 -0.8631419569514941 0.47502005079831733
Ni 0.05627842032383737 1.612460946466055 5.881722116038829 0.524297813987523 -2.5864868428308165 0.6424903978705709
Ni 5.821929167707438 1.1211025353299362 5.601569387483704 -1.546235473055408 0.7617139941212946 -0.8350207732352458
Ni 6.350740851150427 5.032774084153394 6.630067956468325 1.4842911701421275 1.4821522694222538 -0.6862089218044439
Ni 8.088949845895284 0.26479895096740075 13.308472400643314 -1.1704980566095131 -0.6350619666169837 -1.903034400725587
P 5.121613020895315 5.518531392191517 1.6088113164742284 0.0008086119442244138 2.617565309403176 -1.5949131407667694
P 5.541245413297462 8.653516644759485 9.926619232687324 -0.2673649039770621 -0.729623284234337 0.6365172110062716
P 1.0677841619531974 2.425596632228606 10.878976575035264 -0.03752550774928377 0.6875212128579643 -0.9246849106612978
P 6.187126718946143 7.314618452282336 6.814676374103743 0.004958886667172104 -0.3330149378767039 -0.19063572944512328
P 4.460879879058815 4.540402408135225 6.035900688133139 -0.6740584024848391 -1.6129183190949383 -0.7376803502108586
P 1.065288528077038 8.482950389614471 9.490462178833752 -0.006043892201234752 -0.6643406609764428 0.19765329841353702
P 3.9310549307337768 3.8766576178993 0.019373999828077713 -0.3009458252563011 -1.431998274275682 -0.32806247896743496
P 2.8063590579054614 0.25830842647293867 4.409829154959775 0.05727235135890782 0.6649942354000419 -0.5503495167692523
Ni 4.432273910305397 8.542198238967648 7.826587421685923 1.471399144670808 -1.7644200586530772 1.542236379198344
Ni 7.9831950148724795 9.274263352083992 10.44055281011222 0.9093305396924147 -0.695770340240634 0.6899686459571924
Ni 4.114849921838882 8.23115406642515 3.151174973683383 0.5625622567853602 0.19240490553040412 0.38184944288090367
Ni 2.5586439404910615 0.0731896235636001 1.8859017333858252 0.4130371813376177 0.9538144810374026 -0.0394306951917966
Ni 1.3373689130718343 3.191343420590856 4.4165026300579395 -0.6144458330285288 -1.96875076908679 -1.608460540433901
Ni 3.3429391054441635 3.0191165368891504 2.2343410093252984 -0.2614197421372208 -1.0264933967593677 0.9714864443958688
Ni 4.264709921477567 8.75208480078553 5.604000284992399 0.9121389556754871 -0.07674382981995816 -0.2724816563783372
Ni 5.709025190016839 2.114927742975755 12.46798700693944 -1.0154577077704963 0.018458206705187566 -1.8743051511116946
Ni 8.96381963280493 2.347049839705281 0.17765817111113644 1.2907799189214222 -1.568517681492376 0.47321513637909474
Ni 4.0115625784455125 2.7559772762702175 4.881785420021092 -0.7176532563566543 -0.60141162555239 0.5693736232802387
Ni 6.587000446148322 4.081027515359357 2.3006648251047888 1.227258758439325 -0.5014934144984976 -2.114866304632351
Ni 3.30592679100263 2.0616750441747045 11.904000958965968 -0.4104509086676802 1.0614061494761526 0.19129830272978668
Ni 4.116566842889021 5.64663434311286 7.8004010919425095 0.4745958187767052 0.29266507330474756 -0.17063254685031903
Ni 7.212775949554111 8.884597330360238 1.5672590124361785 -1.7146774400123115 0.5812420925830506 0.11473033636606046
Ni 4.048893883683247 9.024615525727905 11.88295038104139 1.3309343796531208 -0.29564703875120696 0.2896445413108689
Ni 2.5710470532139276 0.4799488609225959 10.215066660151894 -0.28835770417864537 0.7615502148499208 -1.2884836666880777
Ni 9.313527366263413 1.7356852146219741 8.994846178776577 -0.2924107912020964 0.21533888861875816 0.4778752608589254
Ni 0.45164311880089597 6.2138656533335626 13.034745460215186 1.0646465107903214 -0.011443208839935132 1.078176684066272
Ni 4.094706591267026 1.2593756634007396 0.44692205501712423 0.8299027352823901 0.05801025796619687 0.2054429696612849
Ni 6.067580227028773 4.6442057660518605 13.712497699237224 -0.24854648571897844 -1.652138955158458 -1.6719991844174948
Ni 7.306756267364211 7.852052269304988 8.745644939535172 -0.38825251819377005 0.01186641242028279 -0.17413644623851945
Ni 0.9904382759567456 1.0807877279395002 12.370204131196983 -0.12510987982817162 -1.6641874016825597 1.292993381632973
Ni 8.545997982275335 4.283614817193585 1.163147398685649 1.3277230718046746 1.6380331118846951 0.18727015540700007
Ni 0.9759898693052979 0.7059378904910493 3.378556304256431 -0.6373008832498315 -1.2960679067932388 1.9670816089144831
P 5.558311420894205 9.193408567329332 13.554377714393384 1.8433308142173674 0.9907820594006871 -0.5527997780819576
P 5.570808354439483 0.6785722330099175 2.738813695018167 -0.12375310868996106 -1.2011535767118409 -0.6076390945193405
P 1.7072856516778623 5.323046326613876 8.544407719335451 0.31580217354284323 0.008423448177004848 0.5251989856455535
P 2.5777646240986263 2.173462554078601 6.794215929152134 -0.9597519295677599 1.201635401444266 -0.6876032310488094
P 2.808873455946103 6.007150235313206 11.74704904336116 -1.2782100526762117 -0.3086704475940684 -0.9983207909798937
P 0.6424061823865403 5.7604296186163735 6.084209029593076 -1.6370758901777482 -0.30047968425315996 0.1989966998153089
P 8.480754982370032 7.480559340882438 12.05547467675014 -0.31342724555276347 1.4752575991849497 -0.1337485293397761
P 8.772012343465839 9.061074297317207 4.771973776637193 -0.9375232000765467 -0.16260993365615867 -0.21759657430468332
Ni 0.43714404890534575 6.256328957557233 10.448092251401247 0.34666338189807394 1.57437234050094 -0.24170812264090633
Ni 4.5797696252193 4.503906108216958 3.155046959024326 -1.301824606771358 -1.9125328271343258 4.709669894858979
Ni 1.9181573321310703 8.070485908044603 11.551235604905077 -1.234408996330861 -1.1229344478979368 0.8053859810879486
Ni 8.472658245395875 3.463029758131522 5.24408015501437 -1.2867196328091195 0.7240298493069595 1.0287708799396345
Ni 2.140334421684924 4.819425533988509 0.9612196572329769 -0.5932252330868557 0.6771262427768855 -0.1861308995962343
Ni 6.437731517690832 8.394608703231334 4.104218146243154 0.3048855266303394 2.578300707475598 1.1868638995620464
Ni 3.5323070534005416 4.846145704211446 9.873025026092694 -1.6564830910597665 -1.1616845720829412 -0.33141545460006794
Ni 3.352077253547092 7.237366387108295 9.703521760865609 -0.3385713489185589 0.808152488089492 0.009278339978132408
Ni 5.923630939202044 6.320708805896346 3.5688361906066532 1.1874727367906388 0.010694503599368677 -0.8541775486693546
Ni 4.358061639777506 6.3640821720974134 13.08975448481179 -0.16853915465640007 -0.1915279022420895 -0.20908313751703345
Ni 6.2996178850181295 1.0968404706541932 8.780468414189833 0.011381502364064268 -0.11118735620980852 0.8479665347626364
Ni 0.2870429297530615 8.813640642370043 1.0422264317199448 0.6790365724257209 -0.8811021409743407 0.370067362644311
Ni 8.286377002496852 7.493863133500459 3.045550553603731 1.010772643590001 -0.33638565412114974 0.07603677645060453
Ni 2.1174702872631204 2.494639375441596 0.48583611752894884 -1.9592687977382839 -1.279712862473983 -0.7313667492880049
Ni 5.081504619314186 5.010979507107087 11.385686887342658 1.4594340018891316 -1.3757726190137338 1.2750846196733525
Ni 8.025874106987697 3.873664733664357 7.960086008104179 -0.8923280915971471 -1.3834069956305401 -0.6736768507757043
Ni 2.626063583476323 7.286369002654083 0.9523667244301808 -1.2757821599610093 -0.7213669577628157 0.024045728095294074
Ni 7.075469175954152 9.358720856419273 6.962909520681804 1.506110322899748 -1.2102843353685158 -0.8758424352372981
Ni 6.299486535866752 7.801210765639926 12.036731152848672 0.06607657991409911 -0.2593741724621017 -0.7835439455121925
Ni 2.9333924514513074 5.966413234221916 2.948633644052136 -1.0992661577467195 0.4427982146501342 0.014147495144975635
Ni 1.0991953732967346 3.865896369568644 12.64968322624719 -0.412707823022657 0.40179708964742417 -1.4939060675240723
Ni 7.681795622873933 5.418809240049804 11.82214698245262 -0.1733427466926305 -0.3678675267795148 0.012194999404295125
Ni 2.243086986390545 7.506988666555897 4.572398123202389 -0.8453110994176604 0.6876909056666092 -0.5113070581548098
Ni 7.32067927741015 2.1182208538424163 10.622222759589691 0.2924285318139093 1.8765867480570197 0.7855008121282473
P 7.594063771836473 3.373346433987892 12.715814709340734 -0.5438032310103021 -0.41747027740830683 -0.7629859188551827
P 0.7281133800763494 2.469598597939833 2.3449219834529766 0.24661635857580108 2.0150848762666396 -1.2241343538777305
P 7.067578844789303 4.5808204184303145 4.180592986727642 0.5969211938812043 1.0171083560000418 1.796969967564641
P 6.990120373805956 2.24195175443936 6.959077878294498 0.4933211631003504 0.37600866782941045 -0.2023018529291419
P 7.320566692423257 4.421709685701806 9.87188510310039 -1.0062277045317962 0.4675808209114528 0.3522791854229546
P 0.5196444508851126 6.503218451734407 2.0202512746633587 1.1659086374666179 -0.46392959731211064 -1.3468515651040094
P 4.428333435764093 2.5778584449210387 10.109813770528994 0.30570288032531223 0.3059481635668989 -0.6620197261527502
P 2.4718127693487566 9.075109892350042 13.490457588084091 -0.5694160464824001 0.7467167493815141 -0.2502297869586723
