# total energy = -340871.45838373125 ev
CRYSTAL
PRIMVEC
9.23064535763290 0.00000000000000 0.00000000000000
0.00000000000000 9.23064535763290 0.00000000000000
0.00000000000000 0.00000000000000 13.50998252882596
PRIMCOORD
 96 1
Ni 8.332282141810756 5.646173536968279 9.070305478482474 0.19281859602905502 -0.28547369776263093 -0.3208816449482796
Ni 6.423006199507783 4.013032354282564 12.76392057647904 -2.6688156229377196 -1.7560935410652527 -0.03618364900940865
Ni 0.17385828460354702 7.05197315205869 12.494828799365141 0.18840324057017876 -0.8203896535856322 0.4721668976202385
Ni 6.708011609433989 1.66012235943187 11.92289708218776 -1.7056502968130365 0.5727574521508071 1.6678026298376436
Ni 6.5909577940669015 0.2543052061150407 3.792441157728816 -0.4643296609640068 -0.41152434423751705 1.4692003372472762
Ni 3.907221465113497 2.9851538265479878 1.8875746947729655 -0.5837463470621431 -0.14054138389189344 0.9654659492334018
Ni 7.778812638663477 8.743230478703966 11.581257046901978 0.038902590602468486 0.4992616969545014 0.5397807401144704
Ni 5.13788804345919 4.896589739893931 3.1443806149967855 -0.04250702012427518 -0.8016414264438517 0.40765920485515594
Ni 1.1257972150158697 6.728383644014477 1.5134021725476856 -1.4115821725131754 1.1948759712332453 0.23863745413538257
Ni 8.960926021769765 -0.033303245837309314 0.12329188558434909 0.5926048258940374 1.6091159146297127 0.7710740951799558
Ni 6.064072549910019 4.831652148922598 10.10915555143788 1.4611275875414709 0.6074285211704313 -2.349685670573224
Ni 5.346279095878353 1.0999421770186129 6.526064510193885 0.3228997038195729 -0.5488922154974354 -0.7655284827713784
Ni 8.166352058612366 2.735963321094953 0.752014226029963 0.31543836244552126 -0.9154621065114492 -1.1050714515745872
Ni 4.756311620492176 8.24975094054925 5.351304259279177 1.7295322456369568 1.978215771154432 -3.372651256684991
Ni 9.430858183297918 4.634568637219837 1.6332897960779869 -0.7377595401882262 -0.5799192600065689 0.05167428844584004
Ni 6.000168791232757 0.5461569857958231 9.632455480641756 0.7639914773015617 -0.008097175185837668 -1.1286901194347916
Ni 5.346759089443457 8.263763060392105 11.444711800533458 -0.14271885115918648 0.4194058038681229 -0.9668736282142057
Ni 0.59941965636054 6.131493184516218 7.167288836881371 -1.2815658565223218 2.2476288159097746 -0.9902285008900624
Ni 7.570467739471729 1.8248524587174992 7.961811108424069 0.882780557118028 -2.130629738114195 -0.14133816876157593
Ni 4.156891964131636 1.1955716642201772 4.267992936226882 1.0887004664157316 0.9045596006663325 -0.5531959850791118
Ni 1.9232234476274483 2.1307375887257467 4.90910926436222 -1.851945552469572 -1.1111402834764865 -1.6997876673846726
Ni 2.8250021274218153 -0.15733358306028053 9.890726172056198 0.2711040593045202 0.5026794643867988 0.07728427570446045
Ni 6.5730041886029005 2.42680131194032 2.515288125667312 -1.1415541198816535 -1.2189196424460105 0.47657299710773404
Ni 6.413277099168936 0.23593529853976722 0.8551260744598662 0.36925258005249956 -0.14828117573831237 0.16233919649327525
P 1.2814997430193438 8.196203966103665 6.114091571652088 -0.7903666248609807 -0.6643799988548106 -0.08667497289074104
P 7.899715633196883 8.855825892302873 9.44742257661676 -0.06942518467135786 0.4656494082166948 0.22612492349066862
P 1.4498021021068075 1.5760127177928105 8.77847585235085 0.7955859642783912 0.23781598667535173 0.6498221556452938
P 2.1909398585644153 3.948805523013405 0.9802050130096809 -0.17800621360657085 1.126873635051343 -0.9118545916658489
P 7.540486602943671 3.505476081766616 9.080073347532348 0.24953147534006703 1.6961169034013048 1.1098297921951787
P 7.080062006262779 4.323597421550579 1.8265222824853333 -1.1150018233144219 1.1778233866263328 -2.8815240159121664
P 6.611569825429941 7.401546927136919 13.04609033211294 0.07857934036680016 0.8221796556065195 2.0245591343056617
P 8.970267434998336 1.8711072232316923 12.381831852687732 -0.08523001291409836 0.6442983976135872 -0.019679994927430625
Ni 0.38623420667762376 7.793932435964265 10.167397232176006 -0.30676346037934266 -0.5813264247667408 -1.4938003951841434
Ni 0.8853075159949005 3.7427498239013857 9.572592898556854 -2.2481198966135802 -0.04481201410836799 0.06716004278626499
Ni 2.554756519622568 4.67141737398708 10.93982964601387 1.4266326390883945 0.6984666561258746 0.010044014499563346
Ni 3.329955357911621 3.1368410237664537 12.671013206630347 1.6380325976640628 0.5439117315637084 1.2652797177677886
Ni 0.34819010132036043 3.8602282489606816 7.104251835814943 0.4806829055110496 -1.3091113702407584 2.3541089964519
Ni 5.578420599124699 2.97648625043966 7.782276899913163 -0.41750190197719067 0.8709331708611388 1.425075836124236
Ni 3.4329601308539233 2.663715058901262 6.424401873104778 1.9887300404221941 -1.2941254383548872 1.2684401177736413
Ni 2.593442154840884 8.663413087214396 4.358131112430742 -0.501965983259542 0.05703015344111469 -0.740432201924383
Ni 4.057191762272167 1.358594094091493 8.529378576417193 -0.2937729616569457 -0.7777705333635251 0.49898607469561157
Ni 7.599747346943095 4.456897172967355 3.782335447054273 -1.246333515682589 -1.8153268728052736 1.7781620908295181
Ni 4.1024680783651855 7.480985862161694 13.1685717670239 2.3651721962445973 1.4612898241509478 1.0947842107159662
Ni 4.542825251766521 3.3176047542556657 10.206791780967398 -0.508264414673744 -1.2283337366710587 0.6642943811195398
Ni 4.5041488471936875 5.037200162533064 0.5039240135184758 0.47156731636302657 -0.0884256370332606 0.07057832443919458
Ni 2.580639249556273 4.262721314591668 5.324297236725668 -0.03786232226341221 3.695809099261958 0.621622039061994
Ni 0.21092671073328087 4.902746580430942 5.088967468529572 -0.31732632349685347 0.23102056102007312 -0.5970443497226298
Ni 1.3638924845986067 6.662606064304212 4.032568092382313 0.3546044911220215 -0.10421786687051085 0.11723304818325618
Ni 8.351131119886585 1.6953557332396276 10.374450764064713 1.1836510490517034 -0.1453439474868594 -1.9002658368415144
Ni 3.5205958790674035 6.9531221695836365 6.422240055932712 -3.1830712221978925 -1.8205068743443165 1.8638520740991706
Ni 5.197010327776374 5.365524991709942 5.775369343403412 0.46858406536498654 -2.600771891994921 -1.2855508093119987
Ni 1.196448575541041 0.16228213210359702 11.588146800690321 -0.8234757487101237 1.2674080769647011 0.5219483399187398
Ni 8.681625150751914 8.439394551992894 7.589287179482014 0.08287565374930889 -0.8401413822912627 -1.381205617103847
Ni 7.17016233682016 6.4398982807412635 11.291724928431018 0.9091464487060665 -0.5779549371913466 0.033317383205207135
Ni 3.4784764437294946 0.6053955762460895 12.543005384268847 -0.65731640713981 -0.638923506454919 1.271208424547398
Ni 4.078099174290656 6.44194748403844 9.841441909694556 1.0041011451070967 0.36313849673496174 -0.30830020873884323
P 5.188711977487358 3.0530729160102568 5.111461628506549 0.3493568695698371 0.3773081033671244 0.10160176940390245
P -0.2692246984088524 2.755836900819371 5.4425510360055185 0.26713556157507545 -0.9602862048046752 -2.5405808243273214
P 2.4591547243574516 1.4745771545825797 2.8511193157507835 -0.2081865938446931 0.409308824643437 0.5623406276928573
P 3.7300576863625676 6.091515258930313 4.361981214661609 -1.2787777522542234 -0.05546949382221415 -0.7776792592012993
P 4.890349823547574 5.362220420627107 11.717140455989382 -1.7367894414200025 -0.014646546268581228 1.4321643675399014
P 5.126128201114133 2.0436095260138196 0.48442519800065875 1.4031258142157061 -0.35771012663053875 -1.6211918719576404
P 4.573203306050338 1.216848302057977 10.947895384036721 -0.4026481247938098 0.9686399760860093 -0.6303861584078692
P 8.287375051537047 0.39282673368142274 2.488228488434553 -0.6251017700804783 1.080573980653855 -1.4687827900938832
Ni 0.8916351234733438 4.09194514251482 12.571403465096608 -0.5018006613262712 0.13673435144097743 0.5524364812052679
Ni 2.4592931840396934 7.169248502917366 11.286468998893124 -0.6337525037769408 0.42282177152820727 0.054293985456874236
Ni 2.049000222975761 7.359122880498078 8.488281896598775 0.9353087089237312 -0.39501400528731967 -0.4342791214355295
Ni 6.445528974485757 7.228186174324893 9.17145396861819 -0.4436489926862036 0.47798556118454455 0.4036709096313693
Ni 8.00203733837346 7.544225014364195 1.3644546309085077 0.5345323472313375 -0.4114824352559881 0.7559745205343561
Ni 2.4828590219572217 2.233317751975842 10.713942828146655 -0.7614931363597401 -1.2579111932178595 -0.2590813238120312
Ni 2.571916289575049 6.119742572816644 13.37898986919108 -2.85855300893829 -3.161821825900813 0.06341625947311658
Ni 3.2747930205065483 6.830253047562398 2.2543968540003103 1.5290435346571538 0.18911697880775172 0.8319686166724833
Ni 4.559911176555141 4.956505859722633 7.97822596528609 -0.43330852999214403 1.624592670109073 0.5353167908058458
Ni 5.898640921567699 7.184959061529051 6.9501295943181205 1.361948825756764 0.3217277949986588 0.9561320734269856
Ni 7.898035655719018 5.395552281465414 13.449579384391516 0.5631590098290946 1.380949792339299 1.0399394949619443
Ni 0.5206314818423012 1.2623830762245134 6.838348323650794 0.20269523171281864 -0.3500436112242165 0.014515934227987902
Ni -0.04131267692271448 2.4694930472981613 3.0612540371016417 0.4078168134789428 -0.5815981903708887 0.6276201656269579
Ni 1.9421462708671402 4.326311231322515 3.181182275472067 0.6639742787759596 -0.1925368031225781 -0.927118459803455
Ni 7.133581288771917 3.654135627266731 6.232141373666768 0.2244431649128715 0.229122829776728 -1.0563205074231292
Ni 1.1439631253259739 9.074850648318193 2.3906051818087084 0.16767860642831767 -0.11312828198626325 -0.7220238746205243
Ni 2.8933365959308093 3.376976266000884 8.547401411722314 -0.2936348934171846 -0.5403206717783404 0.24468520299135924
Ni 4.001484816783611 0.37302422992722234 1.4785324861719493 -0.9782327619807669 0.06638202696965988 0.4327074060730354
Ni 8.085076225136518 4.038416629360199 11.19654681979356 1.017078016982739 -0.135395835135212 -0.31606056941055244
Ni 8.62203210351511 8.109712817930049 4.03047365892227 0.6104248847945939 0.5150706389623 0.7303776459018583
Ni 1.5133274043192753 1.8962053482993615 0.08372380065787938 0.03583166498662862 -0.5108278045255461 0.858636869992289
Ni 5.858690687918242 6.774564563364809 1.7699024261585308 -0.4204195898446179 -0.7697209235861711 -1.1154687356485111
Ni 6.569173470727549 6.782742915262548 4.370101413492807 0.18701201664960695 0.15556099722917727 -0.5060334684606962
Ni 2.963609499991187 0.2212364186729939 6.604774224225521 0.054214281258874376 0.21234509609775687 0.342018684037211
P 2.3677344114960333 5.066424386131534 7.490015279572945 0.545746470779602 0.702026862673307 -0.35884655422782713
P 8.456295863871858 6.170511122971914 3.1387877668987714 1.7308635628538707 1.6613337342838483 -0.43286501469682226
P 7.569147757167691 5.73019087215251 6.692507817281118 0.4724006108975994 0.6422481999527777 0.21154419746301634
P 7.373808837461175 9.812545374010725 6.2293177192135865 0.7750186816500007 -1.5172028332684837 -1.5603932526130289
P 4.217675764635719 8.29037501131895 8.200680829162811 0.42929503795737683 -0.05711448562480487 0.3755499830254371
P 1.7987574239376902 8.30729478448888 -0.1633399640759232 0.9112447259959919 -0.2599724681677329 1.1070337175072806
P 4.981050146061335 8.272707555864915 2.9163319799575027 -0.21813753440981787 0.6079648532898755 1.1001526741167311
P 0.670003633173687 5.740510733802254 10.798772460133371 -0.4879187611378564 -1.0268278972806508 0.19337446853252505
