# total energy = -340886.6816279421 ev
CRYSTAL
PRIMVEC
9.08002172643552 0.00000000000000 0.00000000000000

0.00000000000000 9.08002172643552 0.00000000000000

0.00000000000000 0.00000000000000 13.28952961930404

PRIMCOORD
 96 1
Ni 6.776229395256501 2.159002121803125 11.336021900457313 -0.5188529888228677 0.37522396714458606 0.6570811512005521
Ni 5.149661576547863 0.56209691746314 6.242197916373033 -2.252181211167147 -0.08703569866426945 -1.1405840426589
Ni 3.2930150920233507 1.9787909342879255 4.871051103599929 -1.1572561039979425 -1.9136337735079882 -0.03535678223273911
Ni 3.4931115267123447 4.489144489602445 4.698912055234274 0.07304426948118388 0.4131713929226368 -1.934570266550339
Ni 3.7154358541325925 3.033253835791435 2.5724145945419927 -0.07505590059457397 -0.481113822400881 -0.5301398745905967
Ni 5.2376288252326635 4.869107070988099 2.467426845479439 -0.4382864428227097 -0.35290164949830194 0.279795416430931
Ni 5.514823722822427 3.090784852272329 0.3666939459084541 -0.18255269532667273 -1.2852024248336447 -0.7033664074203371
Ni 5.94743226910016 8.054178866937448 12.454295561339157 -1.5637115183529844 0.10658996664711319 -1.18410022077398
Ni 2.297290849865628 6.827495196874419 0.07955006871671613 -1.1299769565670152 -0.13750902482347285 0.5485019220375521
Ni 0.638330962313249 -0.07609602852269276 13.554124066463539 3.076227744779076 -0.351940056915981 -1.592671138810128
Ni 8.006617714108073 0.2250437938716415 6.706122548941952 -1.133679602229583 0.6541498364863702 -0.14514442988154358
Ni 8.913838986310102 2.7330592436394716 1.3859381678626508 0.28874568364568337 -0.3248984794171566 -0.4799344573807992
Ni 6.869926137533386 1.1114218766273491 4.494173005531599 0.1109742117577379 -0.4214806841192805 1.0729180067704942
Ni 0.8736569725774038 7.5554223637368425 2.4507087098189873 1.0231108534403799 -0.9522425085645924 0.3739237602759238
Ni 7.556884247204871 3.8557494269986368 3.826134936744149 1.065407557326062 -0.4398658714946877 -0.10348587380049275
Ni 8.065320053367696 4.197866478603297 12.552691214763275 -0.42080499820849465 -0.9534699532137901 0.5436993584425861
Ni 8.496121675358863 7.030106797530143 9.088204455957499 0.7152238209795553 0.5579070174015359 -0.807378843148261
Ni 7.233662720426085 0.7985888024931008 0.2032980502841899 -0.8423484172449107 1.2421603581415057 -1.2230303221802745
Ni 2.3199182635446665 6.581880614202673 8.869166188332773 -0.3440292867093365 0.5580638546943744 0.3494026352061079
Ni 0.360080058218321 5.1541561872104324 1.4825532290626675 -0.39018418799884413 -0.4124777092897219 -1.6033432738119935
Ni 6.111036097217703 2.4383943846056995 6.906076427292758 1.5607308384581058 0.8753312999288344 1.1734699947536438
Ni 3.8296988451988128 4.583031912331683 0.17451801400927797 -1.2278210587006984 -0.30363597049395447 0.446854901218011
Ni 6.3035961140280445 5.881411432478856 4.599465843317915 -0.91637921900908 0.5270049285060409 0.4745996754314472
Ni 5.502483973548825 3.386348633438615 9.071246607728376 1.363524140663684 -0.8350773375047941 0.54407499661445
P 0.408431172921724 5.881002831509532 12.488250301890025 0.6773692120256269 -0.3842385119383705 0.6638454665075793
P 4.368661683780951 6.375255644026027 12.546657540449582 -0.17141210532882092 2.2390014792520794 -0.8342000771061633
P 2.6384363391654504 8.772935212043922 1.4096333920748576 -1.2908387971838156 -0.13349090480301526 -0.390129937722141
P 6.423388838212457 8.08885546920079 5.711148316563477 1.5900195601198939 -1.272342281041525 -0.5731945396882258
P 4.7241172870286725 1.4467289120766007 12.386904549467385 0.7725751052055146 -0.38705695522377215 1.338540731245469
P 4.351237122444646 6.4048655942697446 8.059289103060467 -0.3677346007460764 0.7292738713147181 1.1814954361612813
P 4.78502607152265 1.3140607173476953 3.559773412854411 1.6743558575751292 -0.29164845911477516 -0.7340810628953746
P 0.1464970675351556 5.704432732632091 3.6568397511249926 2.320581039897784 0.4307160866746195 0.7794993431291736
Ni 0.8905775927182098 0.09744679117313065 4.754475431047331 0.32224355829281276 0.7523001570065625 -1.0310697032761404
Ni 2.060928809143697 6.651533459440194 4.825042634453987 -0.5160389164128403 0.035436743541055096 -0.7213091079416868
Ni 6.333505704982599 6.096462662645128 9.23151806794054 -0.7940183626809552 -1.5085065910460664 -0.7506063142439073
Ni 8.91779787570178 2.7527719704039946 10.374869840315215 0.15641074682398223 -0.7810780004702033 -0.39089638357452033
Ni 2.8777766269526803 5.297620527551046 6.652738378298625 -1.9848386757875882 0.819794957424427 2.1718735752553306
Ni 0.528353741414166 9.216312663868742 8.778358708910089 0.14356243010640435 -0.13736967103213116 -0.3989405940352355
Ni 2.0802420149604366 1.3859835679703536 11.359491032133159 -1.1562106934525638 -0.4175466391721971 -0.10404046075238209
Ni 4.179315994595964 7.351067398945333 1.551313508182754 1.5828006737739515 -1.0358301007792612 -0.022414106029142043
Ni 5.845055026230514 8.132966213844758 7.92756341456747 0.46728180161379523 -0.36156369604867405 0.8987018563339749
Ni 5.337191261424741 3.2300905427473725 4.887689335070824 0.8257282921897263 -0.40088589068706443 -1.217361296819955
Ni 0.5781340515080509 7.83150949869866 6.540229647394037 1.382151268846568 -1.607213041180045 1.1472635115616048
Ni 5.303504381509319 4.98205345893094 6.867749656370118 -1.3576656250003778 -0.9429261162596728 0.7759262810659346
Ni 0.8900536754753202 7.263181870454397 10.918358161633162 1.2742418120570829 -0.6392389808128087 0.7964763373031444
Ni 4.953714711702898 0.6070439320909925 10.52219772982133 0.21598192151939577 -0.5324932053141217 -1.825946557302649
Ni 8.145941564626199 7.6655811850667375 4.367351436672651 0.8859085612240485 -0.09204677872561567 0.6036150609616121
Ni 7.498181907945247 6.339707359694793 6.895259397631507 0.0500920315603847 0.8826728278955702 -0.3860431692472771
Ni 2.442680154772837 5.49939676622504 2.378693242976615 1.4846876342495978 0.31380751171031757 0.6967779555695419
Ni 2.921360730347297 5.643651068439682 11.221479244727643 -1.4380509082276653 -1.3755646167679858 -0.3626114205868981
Ni 1.3418455832617635 3.581432896237227 3.6375701294116474 -1.1029567192244296 0.4895313570406149 -0.5985121925174081
Ni 1.506112252951766 1.2944387907985773 2.6113924030090905 0.310725016130252 -0.06493603855175269 -0.13876732271060616
Ni 1.611758303576009 3.2673458711282297 8.198284256798825 -2.903665327895896 2.009405566493675 -0.4490354538090976
Ni 3.6643879730316473 3.0959786245935206 7.05369669349248 1.0223125259088006 -1.5447881990859202 -0.10085075017049082
Ni 4.435563282491689 7.021653297475896 5.718657494377509 0.1770821591304047 0.9667556145791026 0.48125009086842924
Ni 8.025540478998568 7.445227222320788 13.150494408932454 1.3294847916907877 -0.10639173459337807 1.5294883355040563
P 0.6809108153254815 5.906426891823059 7.611950037837507 -0.06005145676594174 0.3244583065559444 1.3983890708616693
P 8.574727421835362 1.8822793853334712 8.001877942863908 0.8873828317767298 0.8558441377385001 0.4328755562197835
P 1.9315566622340095 3.3459425375831886 10.441583482580063 1.60114858015352 0.9504378512556857 -1.737092831593034
P 4.1828027228675335 6.346372095505552 3.652135391964836 -0.3907261765452432 0.4218198126262541 -0.5349786907401367
P 7.269991886609806 4.199001481295865 10.263995513287925 0.3091630709597708 0.13979319287195927 -0.4047137490735868
P 6.960671872809595 8.053488785300367 10.201800089741655 -2.036976534133408 0.5681898873847827 0.14333540169726283
P 2.977411703317082 8.643608465241938 5.828734595513538 -2.4052518378743026 1.2268805491643 -0.9188274234392564
P 7.012645916107675 4.064217641548013 1.4131682444605917 2.272957781592866 0.23493378003155022 0.9771919794210785
Ni 2.834837205087442 1.5109519044328767 0.33079789675221694 -0.5873641463203885 1.2976442501414234 0.020758572703590057
Ni 1.6190132407869045 1.3543669329661756 6.771719348557312 -0.23706008234593368 -0.6066985849829423 -0.9671947589990504
Ni 6.926394791494037 1.0847084532550653 9.115288344208636 0.12759639369545123 -0.4722358031849609 0.25386686949062726
Ni 2.636248053974179 1.485010282891539 8.912555979266422 1.592645170668199 -0.3465661941985773 1.6383817534733653
Ni 6.746083723741891 2.0065394801158316 2.3360734378696044 -0.40586431773826226 0.34923088551493403 -0.10105566709244533
Ni 4.404337088413754 7.21443123480321 10.236738196625364 0.3989331378360678 0.46106513128012205 -0.3500551811884423
Ni 7.590189766215591 6.204496758934534 11.331622630020918 -0.1426697430888059 -0.35639217915006366 -1.0819862876203494
Ni 8.041012835703658 4.081506002561212 7.983046886190972 -0.10759938174823404 0.273041128426233 0.9301410486798626
Ni 3.4743249621449563 8.575290383170875 12.072646819953425 -0.38067033497113795 -0.39699632582467115 0.7281284448563654
Ni 0.6762464082601034 5.0922849204331575 9.802569702646965 -0.3971192245557805 -0.7976197068789682 0.24707812870356802
Ni 8.493924310146049 2.7320604412700114 6.016740981521296 0.4906225332222648 -0.97160060137623 -1.2255883127154377
Ni 3.993184633036328 3.1144110683208277 11.237426486559302 -1.2845467935275168 -0.8542590526395675 -0.18422185549897951
Ni 1.3886258542386525 3.4535680329032705 12.521846381590041 -0.8090634299395356 0.483573082574651 0.06244721069162794
Ni 3.3516266310675693 8.560607988339813 7.909289871217124 0.35362130127314584 -0.510031790986812 0.3014333064156809
Ni 5.980846748369366 8.027874044534489 3.4509057705875827 -1.6350845707793324 0.5239008356594204 -0.49636714901552587
Ni 3.0515682392387147 8.504457135133082 3.5672680626339766 1.1719838971264203 0.3532893718550238 0.30815108475548864
Ni 3.5376036322610154 4.3814463541100395 9.031604141684511 -0.8636078408443192 1.4255193514195579 0.9032419102961734
Ni 5.496627359655174 4.726541652779999 11.356328460630587 0.4139386101059645 0.9824192892582887 0.10864659206582579
Ni 8.423445182948338 -0.0175335215947927 1.9430882895905017 -1.9447322946850054 0.8687047957512524 3.6324771719725315
Ni 4.876334768134372 0.7080092316110844 1.2683927490095235 0.5077054568464805 -0.47274231050773424 0.4659268302477976
Ni 6.0799097833767135 5.704414572589009 0.3011843144998829 1.181322658028843 0.8842694829587285 0.10786317693258199
Ni 8.699777478491749 0.013386675757225729 10.9781609995035 -0.9565272519828751 1.7181111482842089 0.8395888522219024
Ni 0.24842575734069935 4.9894899965726465 5.815737452680402 0.29478700474375685 -0.29091389494159575 -1.4391911924796956
Ni 7.525485532717665 6.031004787359338 2.6316326790251194 -1.9647509038987776 1.0197231679150698 -2.364765190614166
P 8.839419129763794 1.8704571972876813 3.8971279931610554 -0.050318802859210116 -0.30865913474015877 -1.2230071822518227
P 2.1369558295026816 3.647253972384639 1.1878584059578123 -0.5184089593069137 -0.4903376549919942 1.8360111406275026
P 4.787032756283111 1.239468340392117 8.326421520778997 0.2042111541367128 0.9271817089412224 -0.05698361647389541
P 9.006682206562177 1.6242796532804207 12.546232595441484 -0.25733271655204065 1.661088451042262 -0.9789601270650946
P 6.5427184812983015 8.06721777786967 1.349697985890027 -0.2546870513990775 -0.4809310169661137 0.04878282583065792
P 1.8414465284656394 3.3874291560019394 5.708238169659734 0.12107556185779793 -0.19732985363584724 1.79966834033241
P 6.976897871302549 4.399669957341914 5.935170608011808 2.3712741953772776 -1.5405618197093984 -0.24660607416315591
P 2.2720211499182907 8.694946907032179 10.049741509012916 1.124009940350303 -0.5659018626815545 0.11125060534757615
