# total energy = -340864.58479755477 ev
CRYSTAL
PRIMVEC
9.29546770516324 0.00000000000000 0.00000000000000
0.00000000000000 9.29546770516324 0.00000000000000
0.00000000000000 0.00000000000000 13.60485658678014
PRIMCOORD
 96 1
Ni 5.504218169322228 5.086293947191098 9.779279929480774 -0.5717338959822992 0.5531633320689634 -0.4081322878368326
Ni 0.09621366667238601 5.190059251720676 7.737489576774366 2.3977429310917673 0.8840164864076582 -0.3106183153490586
Ni 2.0966577796092376 3.040045488236156 1.38154630457333 1.1713863727517373 -0.5728952632802521 0.6616543723935314
Ni 8.654935494495511 8.628712980469 1.1193341779628274 -0.8352765979997938 0.5353481582644135 1.0403758111684147
Ni 4.295444861455012 5.282353949263825 12.422866289307892 0.7657807079915004 -0.2518814636294824 -0.12372945454087725
Ni 1.52061765404282 5.11199591503346 4.827274813692296 -0.13819525225722007 0.006873330081065582 1.6300958593154893
Ni 0.6433374517093214 3.024122352281738 12.957659636607794 -0.7606791250988771 -2.217708117090942 1.9766288862832861
Ni 7.00493422728892 7.414613369681831 9.873207840676692 -2.7250111962926815 0.6853558297755293 -1.6553510343378524
Ni 0.24176395704101727 4.300157663515077 3.322945607479556 -2.237071866329534 2.0098868770054676 -0.7810222075316032
Ni 6.80843733824021 0.5911183035183505 8.350565633796235 0.436235730941268 -0.4383216669360193 0.05028152186337147
Ni 8.581975369506472 7.022437592730932 3.62169449893678 1.0140531141134856 0.3030739273428974 1.4397933448400686
Ni 1.318515598046934 7.108485736064293 0.5712297210968255 -0.9198157554944545 -1.0778653234734406 1.6893297052761422
Ni 3.3446672561066912 3.7876055814797005 7.942937071550167 1.0407995289693945 0.47673266261405 -1.1594646816134868
Ni 1.5882142942416095 7.005770819370588 8.861917670967795 -0.6012645584515645 -0.1049611727944386 -0.5355965268297939
Ni 7.35403480750148 1.000424697661541 10.84832190968074 -0.9736086329451942 -0.1785446026085441 -1.329485048801104
Ni 3.8215619245278547 3.040528852550009 13.103571520665058 0.1831805587186587 -0.8804670784935029 0.4183557653370537
Ni 7.319576509204325 6.169885193238032 6.887853165459457 -1.679149679419347 -0.04268828289714583 2.2451466729178686
Ni 1.8968145222338555 7.4441264792295705 4.678437645989466 0.9317680427603243 0.8400313390759598 0.29429078183362867
Ni 1.9508304843068982 1.5596772087891502 8.5128440476112 -0.11143726743708549 -0.8189264387765445 -0.6559028146217349
Ni 5.573376448073465 1.9893880838042277 4.404450021056105 0.011356562663399796 0.46488476213652835 0.38938740312916165
Ni 5.5113942702894265 0.12742877633294092 6.37620181423201 0.12448561598061142 1.0925596922608216 -0.7758244653807478
Ni 1.0406461858546325 2.76759533363955 6.599878650467361 1.1619987608892506 1.4789728432530078 -0.942706801160015
Ni 8.884635793718873 8.561162817608082 11.028776680790083 1.3077954796428122 0.18416631967069572 -0.2833049722460863
Ni 8.669464310313815 7.048028014962405 13.005657712973372 -0.8612411403843554 -0.7321118549841455 -1.0837644625666947
P 7.481531440747712 5.284705702560069 8.920187239002741 -0.9195583880680098 -1.1834736429335748 0.13861511340345806
P 9.097752978790057 8.986616368474227 4.503628941884626 0.7752755348558132 -1.1910992777996325 -0.3380517289696629
P 7.597027625355792 2.0698775375282814 3.468843548335458 -0.9730327058370662 2.2495663992521195 -3.3509310913990804
P 8.678731891485185 1.9941659541373105 7.419735172315155 -2.2852021461778578 -1.355570433034246 0.7663268103029577
P 0.2843734508538929 5.193879688893627 1.3944028657750553 1.525886734195727 -0.8133186056714637 -1.041172081817465
P 6.347372851097724 8.361514765051757 1.9441879431784528 1.0747445184562716 -0.18796898124623757 0.025904635680903773
P 3.051172162922343 7.350660552772085 2.6784694609924085 0.2167152001409945 1.2438991952094836 0.5778664912425984
P 4.962301705220299 5.618933534654086 4.374409858496915 -0.5620904593552642 -0.33048857191042436 -0.6567451080173722
Ni 4.19934831767406 1.101698816881262 8.409202372800358 0.9228064626916623 -0.5509964063246318 0.7266438898910389
Ni 0.7496701643828628 0.15036348347849557 6.667155526581602 -1.3217079759588464 1.2849563702611098 1.014435180043253
Ni 4.436522172826991 7.302742417427646 6.124512156915378 -0.47261864044567636 -1.395895615015854 -0.5136544753410638
Ni 1.6060708874514382 0.8743846641841692 4.696695803398495 0.8697435214284117 -0.98037037714906 -0.15573891756793823
Ni 0.9747877980921981 9.01096119805077 12.840657586252712 0.7365912309117378 1.9822441755875344 1.0048372519421727
Ni 1.629746443362648 3.6186232764503004 9.217861574408401 -0.24236992459462128 0.9796291281076612 1.1527795562838274
Ni 5.735963471411891 3.594334219679201 11.502075862353587 1.139451985936986 -1.3612338019676105 1.5535014105892018
Ni 7.799687409406124 0.7213914929289633 13.132318683684693 0.08739076801084304 0.7219467415256857 -0.2616195168528526
Ni 3.309799957236276 2.0957282328518283 6.118417118827048 -0.22940359424194043 -1.5122267202101312 -0.08687886137143103
Ni 6.8870862893845946 4.583957584019648 3.9621149715286546 -0.6822386243027864 -1.1186453336042799 -1.401462310470354
Ni 2.786799769647622 8.624037360279234 7.324093176898576 0.5701660372745471 -0.1450636972422792 -0.3499068285360361
Ni 7.88802223776271 6.317441445509151 1.6946074274543823 -1.684988654698627 0.10987840759039785 -1.1589180650813977
Ni 2.877300441948971 8.749396035983425 9.813999430416763 1.0705829308794141 -0.6979889451585075 1.1251006023113204
Ni 6.4219968647825265 6.9826436960462495 4.77837972470582 0.9629205571037287 -0.16947503620710813 0.13380792182280182
Ni 8.958097873956914 6.43336522162564 9.958728001451844 2.1628623728956557 -1.6709064655739483 0.9417002142723717
Ni 5.436435619771958 8.097830236377517 13.650296530143065 -0.8191678653633893 2.3559941292897553 -0.8889555755804884
Ni 2.4058715084613738 5.390674032904707 2.171484434487155 -0.9840270000650406 -1.2129300005214787 0.6736511397440914
Ni 4.509091888177919 0.18371562113433398 3.17700583701957 0.16730296825645383 -1.7992716191146239 0.5485363748199134
Ni 0.5823796344519476 2.2496425849436266 3.0956760730268185 -0.3940251590114891 -2.5617949965110918 -0.7151608289521039
Ni 0.8152645608661931 1.6383633418038301 10.880279727200465 -0.7875160427860631 -0.10287523679968734 0.16000437771251155
Ni 5.396344268124903 6.298962055971858 2.154492319761717 -0.08771112746473926 0.13596919114017875 1.5522770512637976
Ni 1.1423200101800397 8.44884568291034 2.5579574420813485 0.10960895597909509 1.0727051194287398 0.6916059244502992
Ni 3.68294791206301 4.504611472807207 5.567868883535817 -0.2470986975288583 -0.18865212335619122 0.6081574289166558
Ni 3.3073831356670125 9.156491038390739 1.077929376747554 -0.973266419114427 0.11843118225641538 1.6380205134792047
P 2.1112330727654123 5.927041102864905 6.812346082355115 0.39988573155732426 0.5893153565094882 0.3263979467808185
P 3.5004964745187523 0.20083694285905215 12.70607873626178 1.312455604122643 0.6770781631477695 -2.810795796158669
P 7.873112307773868 2.857594050691899 11.578535730884273 0.4386232573368381 1.045380720582174 0.7072873397412981
P 8.280988129457405 5.33762479945937 5.2836088373863275 2.4602960712336404 -0.3696248757902537 -1.1803302122085866
P 5.969502798743352 4.51061634486007 1.0712654560436883 0.3930373411769231 -0.6128126683004802 -0.39753625748854116
P 2.247606877544901 2.890843938204422 4.436856809659659 0.27036203893217303 2.581328695668645 -0.876208046106833
P 7.041298096438764 7.976199043170537 11.85623782466024 -2.041495505049684 0.6413046050925859 1.996661122343813
P 0.7542444639760729 1.3721783323521612 0.9732549754892305 -0.9439051923434906 -0.9752664802635913 -0.35623765585007033
Ni 8.093414889279824 4.629180033767601 13.447325347929002 0.6956554119293246 -0.9529511045958425 0.299142196388659
Ni 8.16447873888375 2.756747522980586 1.2740721084816904 0.9154731622550427 0.10351389882495074 0.7308075343504252
Ni 6.436860317433498 1.3237396508235733 1.679981938773308 -1.2710698420870046 -1.3800499062328488 0.5162893418607496
Ni 4.025114073465299 3.0313356351192327 10.15195753364826 -0.35181664396423923 -1.0308899831651666 -0.6298889070564765
Ni 6.827836979067339 9.051015367827528 3.9196542051969643 0.5020999377342449 0.6748970963360507 -0.6854270493330971
Ni 0.33168831035277335 4.225858991195367 11.17466160799138 0.024144972677319708 2.080938541536655 -0.5290782660953017
Ni 2.3361462061881175 4.639209843280045 13.340310347935523 -2.015955966017683 2.7715203955978134 -0.3454390225726696
Ni 2.68016216563765 7.485277514180071 12.362229165681825 2.098105797344561 -0.10905334058594121 -2.0183339793315564
Ni 5.4825318434718735 1.5852676310206226 12.981604761078653 0.4189520041601558 -1.32683809809656 -0.040040046641021364
Ni 6.359828777647006 6.1604131117800325 13.305522060539486 -0.7245522974693328 -0.46337372480864064 0.05982185725363891
Ni 7.3386136267960635 5.315836223465701 11.399957714678138 0.032897779169285275 0.13983767295664948 -1.5023421141065674
Ni 6.295615687645186 2.770597769665981 9.184570786838552 -0.2385767761007762 0.1877910609074766 -0.5134253900493931
Ni 4.242432809879972 3.770092920570113 3.1363279413685903 -0.34756506777673685 0.44431259441213156 0.05802465614390007
Ni 4.8917305153978 7.037542727538831 11.05825818574807 -0.07938152455312135 1.4342328200331556 -0.1317402406604957
Ni 4.744192854061828 0.5489419784944275 10.734816814227031 0.5155887162492991 0.3211351557199824 0.9771408144681689
Ni 9.141144221425915 7.380387458074028 6.070894970401264 0.8801855426973421 -0.8335508735579386 -0.5724779732371754
Ni 2.981576997195124 5.157023159962356 10.327963493976641 -0.44248068340971536 1.1647863509367167 0.9045290045387132
Ni 7.898814275616229 1.3457699089741686 5.255093131509288 1.0676567583715546 -0.13726991222947327 4.077108840286979
Ni 3.7292672269847054 6.3181479010447825 8.287072012984648 0.8060575532336763 0.4520639562227763 0.1646087092537423
Ni 8.765244808197249 3.338997020886496 9.161836861792597 -2.220142180453731 -0.8929747240422106 0.056940164830469674
Ni 3.5619116287807713 6.7231328323127775 0.6833432850546941 1.6928248629135942 -0.5798966342987497 -0.19613351933490092
Ni 7.615181673527991 3.9911949122874404 6.949101930851899 0.08899025128747899 -3.5879181544152337 -0.5082880688228278
Ni 8.671732404401894 8.173448865092748 8.399543452444119 0.35053263504549304 0.5065253204954503 -0.5062612682007861
Ni 5.445879814827234 4.830491975019689 7.451080418521747 -0.4380954098578262 -0.7534543252156637 -0.6733791170296274
P 5.079712756148641 2.488972988573747 7.123149336162422 2.4131173566653086 1.78161276838228 0.3439248999209883
P 1.0476549684054972 6.40932714247904 11.682802990662852 -0.5722920824786144 -0.8588153045516821 -0.49423081939881336
P 4.135144523139814 1.878651178594082 2.033830643822714 0.10030439074871758 0.8428958051079484 -1.2471015041968652
P 7.215076862736394 8.12271420307336 6.684868969590789 -1.0714473357622387 3.6231890618023854 0.26710676521966903
P 3.6340444571557176 0.07069110135420444 5.25988215640346 -0.4309937658160384 -1.2877678715679757 -0.2974699508925587
P 2.370056071898401 3.053403075140125 11.474445084989602 -0.4491251853094265 0.9021509912248399 0.1499477648074579
P 0.9320472381865277 0.006413872626122771 9.48870733130172 -1.177585559583914 -0.9162450074240608 -1.1360761274862177
P 4.917004891731754 8.254486751403673 8.98349030272906 0.08110853454655709 0.17927325324445254 0.10748882431229875
