# total energy = -340864.98453713756 ev
CRYSTAL
PRIMVEC
9.34840214138203 0.00000000000000 0.00000000000000
0.00000000000000 9.34840214138203 0.00000000000000
0.00000000000000 0.00000000000000 13.68233148488447
PRIMCOORD
 96 1
Ni 8.436203835934954 7.836251426110286 11.003947238027925 -0.3174741619286274 0.6034623374338317 -0.6779780492542196
Ni 5.550595126425008 2.342204784766062 1.598780576258669 1.0762272736493852 0.9800633874316024 -1.2933913884023405
Ni 0.837480353009753 2.34321441220675 -0.15047001259105147 -0.07047753719527217 0.5369355573561914 -0.4664989007011837
Ni 3.429452009158578 9.160761099064594 4.87870863113173 0.6810255778312916 0.036381623952827666 -1.440169497232565
Ni 5.167058228192358 5.945667953007745 7.499190109557107 -0.1605661637532525 1.4693273497434436 -1.2232146702769386
Ni 0.8190060405255996 0.1670830581914912 5.210697504635672 -0.6866763483591657 0.1117296018665237 0.890000729015551
Ni 5.442004086137624 1.1899487712758827 10.15720168356941 -0.9561356729714113 -1.8612917695711622 -0.63646218939862
Ni 4.453877970574922 4.814137347258365 5.1944153924741245 1.345079046584619 0.04033340951172408 0.11914852003841417
Ni 2.6809815331281883 5.4682824448022105 10.558627684306702 -0.09854164242133998 0.4301998091598333 -0.7310124512723798
Ni 1.6624544135180888 5.355082642216129 12.598062026734302 -1.8808892320871156 1.365825535103351 1.4170426814071144
Ni 1.555022575107052 0.6971870110847521 1.550892451002458 0.07401177560077576 0.6773607273851947 -0.24734398077044498
Ni 0.060079376602524284 5.737581867801404 10.383275029503794 4.094240357760943 0.9544469724150789 0.5250868855477215
Ni 2.1787105781901293 7.281722902714369 5.64029491548884 -1.2495152558446805 -1.2532716375633188 -0.7211162752045903
Ni 0.6277807335787566 2.7606299201158344 2.646901932803838 1.286717061705958 0.9933996995291924 -0.7696178223494036
Ni 5.737217280114488 7.60827194096149 9.24017110179541 0.8084913594861495 0.3336137478029674 1.7956031691241012
Ni 1.8463561821590488 8.538699717969292 3.2156213307827644 0.4449468855620208 -1.7041228044249168 0.14162896052911736
Ni 0.5204676198760233 7.755920605759951 12.886512586538998 -0.8322583799987603 -1.497802317254685 -0.6037215046324892
Ni 3.850167503054357 8.938848726962158 8.744925471132142 0.22596371532245602 0.17359574324370103 -0.5681937440395247
Ni 9.07742944159888 7.426024839514993 4.145418090640136 1.4681289585599684 -2.0117375570609615 1.6604623874224886
Ni 0.6924941131659964 6.051220762570833 7.665950647871711 1.4896298087462216 -0.35598877306405785 1.423895699773206
Ni 7.7307266617538835 2.810840188485629 13.307791789089162 0.1188477009685437 -0.30185136778970595 2.007685755589091
Ni 2.8526836368608293 4.134405672814848 0.8951983232093337 -1.5280539170503749 0.6119834875309653 0.5140920770991146
Ni 5.328916464378286 1.0478624058034367 5.489364961508143 0.8109349359306357 -0.7325723395603319 -0.20955313517491653
Ni 1.229698177551877 5.734852134350653 2.706857910496945 -0.519619434675247 1.4809857599179785 0.7392857470247656
P 6.838169262174128 4.017765658208644 6.137579432678166 -1.6856049481263873 1.8790388091419383 0.4034153419771375
P 7.495483468073468 7.837803260880233 12.965199957777546 0.3571478263691656 0.05707514774643719 0.9002938834114431
P 2.0878721537348524 8.005410764436748 0.7075394317127005 -2.013789297383667 1.0457134213312442 0.2641847064768676
P 4.617063679877311 8.867847612035963 11.306038986364591 0.39528294267799025 -0.5779233126224628 -0.1100900093805717
P 2.752945533483928 3.585308571113747 12.553114908819206 1.568411752042131 -1.6030098017319747 -1.8421753604566855
P 0.035944606568955435 5.869254113191193 5.682997482028849 0.5563720688142483 0.4472410809128362 0.13833640582077467
P 3.0367817219485898 5.756418898292027 8.375981428778333 -0.07904522425962515 -0.49747323759551093 0.2812820282787865
P 3.2637609280589253 6.062896916954351 3.5474998931404094 1.4052037797906574 1.3733588673659187 0.245258558996326
Ni 7.116760996988547 9.15432004992909 1.3104721121678464 -0.4616063484955728 -0.6621151140800339 -1.8298528343355904
Ni 5.07556541558108 7.111666117773961 4.842491986057922 -1.3269491697531277 0.9693817393480401 -0.45244113705653694
Ni 4.754083211341857 5.0289449336670655 2.027885326314391 -0.1436164232727914 -0.6717063573128949 0.7342998637743999
Ni 4.849296688040118 9.287422600859854 0.21153845014936132 0.93361460905076 -1.591589732820491 -2.3609681854655786
Ni 7.21208665451355 2.1778318283806413 11.122818716246096 2.2489290227784364 2.232550324310097 -1.300201212235322
Ni 4.212277863379061 0.501099600138816 2.1608093227625886 -2.938304258126004 0.01954166957735344 1.9527734198219273
Ni 4.748184369535612 3.69649846722068 7.706477841213125 -0.06001417577010309 -0.8543958353277478 -0.23852304004470534
Ni 2.4437658265775393 4.757420590937466 6.588220096947906 0.38113364776080166 -0.522296467286778 -0.6558426508077608
Ni 5.240461882491301 1.1946229723901811 7.627749337004772 -0.4024990008104552 0.8715546064952215 2.2285982816408842
Ni 4.605022937806878 3.301201278984456 10.493143996375826 -0.579905118939182 0.748286407861479 0.3793210200320951
Ni 3.114504338077145 7.5255011876294935 12.379814228305476 0.9982254030526098 0.2195408425152477 0.10578418291636621
Ni 4.85400828276333 5.542546152106185 9.77172966607544 0.663217088894961 -0.2219196271600694 0.46293483749900916
Ni 2.528284731126285 0.3194134028260335 10.624960207159935 0.9789362158056948 -0.31668329059621586 0.1333592643211574
Ni 7.779562714996073 2.190115628909018 2.8694724324231666 -1.4159710456094905 1.5765024994700656 -1.1355837612308313
Ni 5.736749860003059 6.899756536056124 11.854795806224573 -0.3381250054097596 1.2714539648993004 -0.29174050460794915
Ni 2.262949030672017 1.4904064189029897 4.018048914796171 1.0112177015472197 2.023465644131167 -1.3357518556464223
Ni 4.103312887002535 5.495430204874056 13.070553646373165 0.018069970127833394 -0.4608632996819611 -0.33532044608142897
Ni 6.632513761547223 4.457598634661903 3.5172624861320125 0.3788939597970055 0.17356514711608173 0.47779401399902877
Ni 7.747058320447242 5.633982874304092 7.802048426876518 -1.5913102539068595 0.3801337457413776 -0.46074837137065167
Ni 6.090334477495283 0.6161587999281649 3.3242460253181703 1.2179421090240896 -1.2442604352036442 1.3251349993625243
Ni 1.9191989323242769 0.20004832897019276 12.86719317849338 -0.784598612028952 1.039772630366777 -0.37035866863248473
Ni 8.512290481673505 3.9856538965534134 9.213983422632442 -0.9740938001117289 -2.2898139339182566 0.7863572465912715
Ni 1.062932030195935 3.59475045736463 11.016561971995195 -0.6371175635944317 -1.3588123370103113 0.4504922408602822
Ni 6.3367209666321855 8.29897863962138 7.148238002132456 -0.13545728450076672 0.06912565115306805 -1.0596079199251494
P 8.725424704083288 1.154284616773785 1.2722717361411304 1.8451095033843448 0.9339059150389336 -0.5488310232421968
P 0.7364764759710997 4.842023631106269 0.9262312792473842 -0.748746378217033 -0.7991572265694172 -0.6837769153241836
P 1.6528629528315484 7.53078303488865 10.834846794635503 -1.3975359788327544 -0.2871508283547377 -0.5891261233168177
P 3.006605079554679 2.34414925242961 9.307460901036851 0.8082956985355757 0.005011080061346209 -0.16040109893029797
P 3.7264040059499615 2.730817865408839 5.727492137276079 0.18262237222234354 0.2663737437083864 0.33316251919816164
P 5.583978270783327 7.854854746545193 2.1792537203596107 0.5085557206619177 1.2079867975835905 1.3590380798678725
P 3.656010537168626 8.347992312505912 6.674761060898698 1.741813634107471 -0.3655957000262026 2.2934939538730053
P 0.7116387060899403 2.603043903748375 5.032895568448871 -0.7974950083756459 -0.05294981272415397 -0.32641800138547655
Ni 2.400716434314851 4.238976900143935 4.0977216076296115 -0.5537410589493045 -2.3275456441410753 0.05377539394924286
Ni 7.3096839737801025 5.716996686094033 10.330926781544319 -3.620205810804346 -0.015319661076205877 -0.29351687978208163
Ni 6.215892867827569 6.301842077917289 0.6466607667196311 -0.7514951446067638 1.7483288095181697 0.13155023613687666
Ni 6.250668924117949 4.701264738750284 12.615588411232475 0.2947204131718795 -0.7582964837993134 -0.621312221131059
Ni 7.1334385465643635 6.385426142243176 5.5424255577174355 0.5221756254381974 -0.7105801515599568 -0.0971355061024327
Ni 0.050129872110628505 7.988798653676531 1.607701756505419 0.14822049770370602 -1.397991064092302 -0.7015100709378886
Ni 7.252088467649717 6.8072073539930145 2.9490899696834587 -0.5665934894319404 -0.4374168957335628 -0.38860527354749846
Ni 8.198081334368132 0.5462617313051681 9.600016344260125 -0.027833991493132707 -0.7869889666379994 0.5764305301270203
Ni 7.524893541484634 2.3877595488260153 5.103523682126145 0.27716954877230976 -1.3040272708496317 0.5490621654163963
Ni 8.928079367594815 7.905962461528933 6.796027599767836 -0.3146145809926453 1.3423927580017074 -0.3975511698868766
Ni 1.4543683283117483 3.881082669224327 8.63617831252754 0.8826388893338413 0.33993634758688546 0.14693391768179856
Ni 7.636756522552026 1.1815071640634593 7.425155438107733 -0.18999218232385343 0.7741879582185892 -0.8047501472761625
Ni 1.0780951386107194 1.463539110898002 9.15988328409533 -1.1494440641526913 0.9381055549425779 1.5036482345125006
Ni 3.4395576319676913 1.686161961569811 -0.0354304444463826 -0.5822677056340876 2.1900145078304156 1.1476160098050172
Ni 2.38579638435801 1.5674372532666292 7.162550405944438 1.942128024292939 0.44847880997467926 -0.3811061369569759
Ni 8.936025509489122 4.3272538623885755 4.298537440422772 0.17591616384676156 0.3379429713059406 -0.4709870183795244
Ni 8.903633295767033 3.766013186192527 6.848362759964189 1.1431654302328313 -0.7976767853691488 -0.6664409951488974
Ni 5.44156471123288 2.476373053550886 12.699529584523493 -1.2320188988321297 -0.04164467212397989 0.214742649795656
Ni 3.848008022139551 7.235635279727386 1.296568233533254 0.2802564152277496 -1.7456492058034774 0.1682185380921877
Ni 1.4350451809052385 8.45083408542271 8.682561345024949 -0.7234937742978313 -0.696160376590201 -0.1782808074241962
Ni 6.504234986166415 0.47789219160632396 12.330968826661056 0.28742465084141466 -2.493518837842512 0.21634778949924674
Ni 5.045566392829512 2.722712800676645 3.9332046858498697 -0.5882884579068708 0.38196617096442603 -0.44847495331993736
Ni 8.632604418355548 9.30030469913086 3.2403590727600777 -0.7692732945257913 2.7841450263403598 1.0312345109887788
Ni 8.335484150324051 5.724774556748226 13.55685098642322 1.2659397199492908 -0.3220445549081292 -0.13451780340563285
P 8.204167144218948 4.217167077744618 11.742587869114944 0.8526210028155122 0.5053438985928393 -1.0967441626558145
P 9.569678909347884 1.420695383484342 11.333417651971484 0.3116526701508439 -0.3076304363653283 -0.05305677061566347
P 3.537706506965731 2.81370079956758 2.309002999410977 -0.07067705480058796 -1.832727070559592 1.106893078164358
P 7.414741318025076 8.804689806579562 5.2860185162317 -0.23312192363379208 0.2246977041258388 -1.0044585284465153
P 6.425783194664028 2.9722497013645848 9.10020121458752 -0.05715690882696608 -0.41900882554002034 -0.604826821881526
P 8.061379648579358 7.498325382350961 8.793265124215994 -0.3781956481784003 0.965052515845067 0.9084579072794741
P 7.084256602439715 4.412343019473266 1.366104453830227 -0.5959752850281671 -0.5775484457815472 0.13600544369475287
P 0.38775115795730036 0.9371773234168486 7.250965724542062 -1.29088764814388 -1.5226880247527712 -0.36085561423805596
