# total energy = -340857.09985947557 ev
CRYSTAL
PRIMVEC
9.45203656910548 0.00000000000000 0.00000000000000

0.00000000000000 9.45203656910548 0.00000000000000

0.00000000000000 0.00000000000000 13.83401094538362

PRIMCOORD
 96 1
Ni 9.02461521190783 0.6548446360136828 11.589152096186476 -0.41698639579335284 0.6762821496090353 0.41767750832310646
Ni 5.741885199175644 5.388416849959589 7.609439324442422 -0.5505120104890455 -0.74508924108042 -0.6108393466241931
Ni 7.759497962224118 8.344229283422985 6.931323775075175 -1.263361160588837 0.11661701186581207 -2.6275519883022427
Ni 6.456563115331788 2.454949030293036 11.20232562048488 0.13014718514176296 -0.7772871659692033 0.04618318342428175
Ni 3.3588472610003675 7.237925147535618 13.528860230903748 -0.36589677620638916 0.09202929522411893 -0.09427438250455376
Ni 8.532873023760294 8.001772556488369 8.96326298953307 2.0481402640597115 -0.14414889873749367 1.980703827683608
Ni 4.077466676290726 8.440781834156807 7.824281273773265 2.2009722923935 1.5718742566694348 -1.2440886855124704
Ni 8.516303604138523 4.753646448625151 5.011480985035073 0.11385718973248779 -1.8520028880700685 -2.395926189598003
Ni 0.548625487762927 2.5475789859652296 1.5791658815394742 1.420840714996966 1.707522317024769 -4.329842881724743
Ni 0.7063591790146033 2.9308023454319034 4.918281071574405 -0.2935202222161913 0.12202918402031887 -0.7068757061251761
Ni 4.237546362950345 6.402847193078209 9.221502073096337 -0.631245678194687 1.1571599447397103 -1.6333207940106904
Ni 5.7828692285424435 0.4843903943187781 6.371128994889517 0.7021335634545004 -0.8783428330616486 -2.0698966819001967
Ni 5.675106562765027 2.8499779830897687 8.604920225200674 -0.23968363601170975 -0.29356727340404276 -0.18541176204202262
Ni 5.538477378148542 1.1845291882489046 3.0674286944375004 0.5823479240527196 0.2626204473135413 0.03125792957301714
Ni 3.7306714646975863 1.3367920408941458 1.1938110878887103 -0.10150021082903164 0.5005850437516153 0.07081795125382642
Ni 3.162613535519714 7.319723069615939 11.061038472383165 -1.527916363031246 0.1568429492653944 0.255529859015347
Ni 0.8401518075395348 8.588252504401456 10.51357085906614 1.6715497555849022 1.5860392353159074 -0.27659490721576235
Ni 3.02494462691099 3.3462193405128113 2.5912351059920824 0.2721011331104669 -0.7202487849979725 -1.6319889625731443
Ni 1.6288883184592267 2.8400722490546197 8.387906197929683 1.0772153485942675 -0.45112653201017144 -0.5361138327858445
Ni 8.035724270853114 9.122736800666305 4.253584578132445 -0.8745090611378552 -0.1253407648920551 0.7310404762968377
Ni 6.370719721718026 7.507412154287648 8.913391210439888 -1.2008905528584415 0.03476208607153368 -0.4361498560956812
Ni 1.65871894500019 9.413320752424491 14.022568442600244 -0.33392279440295397 0.6048458480449196 -1.4766174556469538
Ni 1.8004333251423528 2.4103921312074523 11.0473008828348 0.8704228068836234 -0.7665479251748282 0.19123299670949
Ni 4.176391688134111 2.452992458780368 10.290110543043266 0.16143236840828973 -1.5491616455632675 0.5871265763882856
P 7.138243972788786 1.8262279321861705 4.598840053013442 -0.6157848635549267 -0.113111826926031 0.7768675619332814
P 8.570851305585894 6.884390634065511 5.006556474126377 0.485934383717976 1.5923476940324384 -0.5684901922340209
P 1.8768719426444982 7.762446997547559 1.4253046895570731 0.5033158124192171 -1.7785382432220145 -0.46625130346675187
P 2.144137720867655 2.0658559562883587 13.578427654428294 0.5598019204314036 -0.12389966157015436 -0.539340053032626
P 0.34287450693877014 8.893241359470299 7.327502095485146 0.68631279437216 0.6092280362730154 0.02560047417692365
P 8.553610791387314 5.159951680719529 0.9666124915119234 1.1576325135007546 1.3251995340518725 0.3825585531327863
P 5.48960089847702 7.218236555937129 6.667909701641448 0.877877977610088 1.5436988226764834 -0.28113110452321904
P 1.517080181148372 4.589492934323214 11.066392105739565 0.05240448174364523 -0.9576413109826604 -0.36874478717814557
Ni 5.432926488863707 4.642925295488001 10.070910259777685 1.1610785630678262 -1.6464138797492225 0.4714338761089558
Ni 0.3475891826417589 4.870917862913406 12.951470306293718 0.5518279010869915 0.6726316973406417 -0.5396789244292834
Ni 6.377298338978011 1.1531956879373415 0.5358312114366125 -3.2850002930342264 -0.3768321921719704 0.07884519243367712
Ni 3.3340734738762023 0.3898142643738394 3.9988039946488185 -0.8937090311050737 1.1543505003153733 -0.4589426856204806
Ni 2.897625698043189 3.9850163093081012 12.821734491745776 0.21746467671250935 0.06691398821372993 -0.06313420945632353
Ni 9.414209243836043 7.246167323183184 0.23835578001713958 0.2526178275748746 -0.2784088204960496 0.5755087896436992
Ni 4.19028618148494 5.428748688822165 1.0995081217926417 -0.3158345694426754 -0.33839471413137845 0.30097976381803004
Ni 2.7061652508905416 4.11502906851943 4.656777254675511 0.34028344651365916 0.25483926070622565 1.7574282007162765
Ni 7.437523797936608 1.37358881818311 7.650415792180188 -1.7950737789831925 -1.3723288834395075 2.1800584250589683
Ni 0.4687274249775137 6.451978877729644 10.800627310879749 -0.8251207405127143 -1.6010040841558557 -0.433262507245557
Ni 6.478217730479237 4.927601724563013 0.8502711575949073 -0.9722510904760352 -0.8604595250233245 -0.468458852641032
Ni 3.688638259302255 3.895269224705298 7.397418807945066 0.1437110398691267 -0.21994244882904057 -1.4840114341181796
Ni 6.325444467874169 6.236614230791794 4.716595411559903 -0.35043261913251905 0.027243409096985336 1.6325301797885947
Ni 7.959607022584934 2.5919846524701238 9.400459366640497 0.27280278716318174 -1.7448179681514338 -0.7275131798698696
Ni 4.7188440509940275 8.896549572172876 10.399523534357455 1.1895489025933772 0.6371291335586575 0.23600361605696127
Ni 4.822154807677403 8.555264897738603 1.2824277089508616 0.5366421944854888 0.6214916841317167 0.526355724957816
Ni 0.404238071757081 6.869645457448305 2.8307289111789093 -0.9665486407746194 -1.1677204938643762 -0.10262352580019746
Ni 6.930733968010487 3.6920598964403504 3.151982830300886 -0.7592344222325506 -0.4320962548515978 0.5900928581054612
Ni 7.546742077303159 6.006646187781135 2.861413056597138 1.191508083202277 0.058869777753014746 -1.5084114602290988
Ni 6.754519655398578 0.022892831901842065 12.014962550375255 -0.31447497009098746 0.21878416685488128 0.24082880535974655
Ni 3.340311817829636 7.74281511816683 2.8457255119615112 0.38107708349125335 -0.47253122293819266 0.8315608397111033
Ni 0.8726800452385436 9.321862849252641 5.039038396847549 0.6549741321598784 -0.10012467063774369 -0.575670512032544
Ni 7.797031998343942 7.244976366610256 12.12928681974733 0.6441469596373873 0.37359543040222754 0.13727633998737648
Ni 8.830857919935964 2.0441162728142728 3.230490498547587 -2.6842784944600098 -1.6278821394936223 1.9610567428766421
P 7.129226730165186 9.580583986666852 9.873139633195775 0.2165537348624658 0.2345943944142605 -0.3131014867822285
P 8.87416715023086 3.8805240480880916 7.142928401975637 -0.4183408529387182 -3.301039862995592 -0.0468185030154355
P 6.000748117134251 7.556524934866497 2.739009186601739 0.3789451247499151 0.2322158668797549 0.32660054970992786
P 2.689964460684201 5.807633563630315 7.905210553718254 -0.7950491179383146 -1.2393799671828913 -0.10772356603092414
P 4.84344079340942 5.11945915723997 12.85082785945588 0.5772836221559348 0.6112916036702634 -0.4013900840169926
P 5.056792156616844 8.743161927208758 13.070594319695415 -0.4377220856788075 0.2164452343090595 -1.504722698523602
P 7.687917691376615 6.12763225233257 10.333259088721181 -0.034597535469211384 0.3644109356894821 -0.8101620623203533
P 1.2475364621785823 4.897818358203515 3.293504388902669 0.3360215859135116 -0.9076811770144497 0.3636336912038254
Ni 3.583635588122419 6.227814385002936 4.569318508059262 1.7434614541235394 1.5154408562720545 0.584878146673741
Ni 2.823540637578021 0.4974739029556608 9.414763133162815 0.2844295727688328 0.5789959768613512 -0.3583145929837571
Ni 9.058028160203872 1.3671519814675217 6.381587673047812 1.589753965163333 0.5843742104541291 -1.213372487375536
Ni 9.951859972259072 1.0119444575735397 8.949968700486853 -1.233570816700282 -1.024659171764106 0.28782959958931714
Ni 7.061578506415606 4.642963103633173 11.86389538032109 -0.41757980640297754 1.0565429078465804 -0.09697275527232331
Ni 5.600208627178653 2.99536920534994 13.389080682590778 -0.19075631418338762 2.856283753288139 -0.4202588958970375
Ni 6.536669122915649 3.1892777299024955 6.477609019341961 0.5600438612388807 0.53267395386636 -1.607171389308832
Ni 3.3026265491291222 4.348513269031115 9.63133480513529 -3.3614936974062752 0.4910776184818123 0.6347385218392939
Ni 9.04670462072476 2.98911195732392 11.134580040761481 0.5295649759237331 1.5043666007357641 2.099609892693913
Ni 7.46293087149241 4.612253437716953 8.829419320012157 -0.06023426220070916 0.7305601942263096 0.3253839036940074
Ni 5.152465667975409 8.351507351368657 4.642832665532329 -0.3744539217477809 -0.11712326207826927 -0.19614354663722994
Ni 5.489610350513313 6.605905288762467 11.047135472199672 0.7783580304358789 1.243652112195684 3.2041020747262627
Ni 4.33162248017538 1.445263609393543 12.489497306451238 -1.0755297333617282 -1.466638490057371 -0.45170837265557046
Ni 7.596195131188558 9.1865380456446 1.8278187098942962 -0.3676960341986571 -0.9758940865452612 0.9323758515476523
Ni 0.4061965336770073 9.048755712600359 2.3074433875141027 -0.7183291993777565 1.2139931516786706 0.24684775786031682
Ni 8.275494075499699 5.786413742152349 6.932706607984852 -0.9936969190546371 3.8315147523281046 1.4664898802946484
Ni 1.2444645503833311 4.902468760059711 6.566576310950587 0.9136085982424781 -0.05682472229852794 -0.5830552345323895
Ni 1.7783061081802503 5.464732590989923 1.1850216393397741 -0.36251731821119504 0.09860154912499793 0.06456682813779203
Ni 1.557856265716723 6.858359726114366 4.760753434713919 -2.2235524916868608 0.1775660407453587 1.0459803018393856
Ni 2.1174262663034087 7.799442267598677 8.285839329222476 -2.878045827555579 0.030692286877534235 1.0812908042152216
Ni 0.46826049438463546 4.711688859520165 8.901923054805494 0.1576631311738446 0.9808208344229173 1.3170115989244415
Ni 4.240769507326286 2.3516666297185407 5.336289815006877 0.6152906975273275 0.014080132242149946 0.3989567919851516
Ni 8.078986240966547 3.499720409912446 13.528846052849309 0.08442474340398362 -3.05618085343053 0.728135643945217
Ni 7.024110634549833 7.243568013202586 0.5523108367135993 -0.919164752174017 0.0702088569149178 0.358500483742318
P 4.873365940313314 4.706149966252419 4.571379997174783 0.8547547613290633 -3.6442610519813368 0.4440449425730417
P 2.219300313470235 2.363009073270238 6.286907570703648 0.6725558497973836 0.464349972678981 0.28513714035881865
P 4.476238635459518 1.2731609325691249 7.67960557066048 -1.5186683620704167 0.875790241843124 1.5383427005708925
P 2.8092208025940035 8.402727936040863 5.575784565397332 1.0227802095738385 -0.21799612373594718 0.4080602969483166
P 5.291703614608784 3.1243800487142015 1.7122212512335453 -0.8658706687365668 -0.37550190339632106 0.7465825377964949
P 8.322725900856225 1.0884208832208577 14.142509111937667 3.0404495587382026 0.6709442823358897 -1.169635708609218
P 1.3934286423622868 1.2946170549544187 2.9773281036773356 2.4645131946387813 0.23254522519471563 2.1067966402503395
P 1.2817622855958286 7.613000851717656 12.406603893364549 0.8919773931259477 0.7386257448432634 0.1092546579634699
