# total energy = -340861.6634738608 ev
CRYSTAL
PRIMVEC
9.32670071807748 0.00000000000000 0.00000000000000
0.00000000000000 9.32670071807748 0.00000000000000
0.00000000000000 0.00000000000000 13.65056925826189
PRIMCOORD
 96 1
Ni 2.348174101308102 3.2712936269489497 4.6600720003552505 0.6700222847422526 1.5391207163874978 3.4924824046127276
Ni 3.3120140020797693 0.5383968536307171 8.91704306502761 0.08410901193577773 -1.0544297181583195 2.0688389300596435
Ni 2.711878120685431 5.889214565071882 5.899557876116335 3.2758229974103323 -0.9638163294451206 -0.1947222408096711
Ni 1.4129858249986142 8.41474520634509 5.0845917041297435 1.6214124726088786 -0.29056191091881567 -0.8257249497556166
Ni 1.5913496486362193 2.2229258379934502 1.3737521259547976 -0.04316136587882244 2.694917976451727 -0.5148114717636424
Ni 4.064995854075083 2.275668330289552 10.386349104699828 -1.622699309741102 2.900461733356934 0.20801741525668044
Ni 8.808816963108114 8.039420117931344 12.015640704336892 1.2056609776638911 -0.17522325154479498 1.2997396992178714
Ni 5.527375885828809 5.457145829774053 10.28513015299467 -0.057448214815139766 -0.7486949561538073 -2.4221061904274803
Ni 8.733121460459987 7.135177834449171 0.6841078982181622 0.4185768802089243 0.8879700717387674 1.0363592338098537
Ni 7.15851323952872 7.043552327054492 10.80566730750995 -0.5705501600868432 0.361051789409262 -0.23653840551450878
Ni 1.3163612060441283 4.193098087795147 2.958556296059911 -0.6969435346131287 1.079819361876018 -1.2635262254117918
Ni 8.46601407993513 5.181896239563167 13.058980468960502 -1.214203982137896 -0.3555763681169876 0.5294117381753205
Ni 4.710674014847294 7.995752505388399 9.510378848962516 -0.7084831598216121 -3.1219193332789206 -0.9602044437241464
Ni 2.874293286175143 7.086483130244405 11.358160536535243 -0.38574414994961953 -0.44553695373753593 -1.7607510944419222
Ni 7.621751808469974 8.346305876819219 2.590714019594734 -0.9418711926325972 -0.1995937099693595 -0.34299673167976413
Ni 2.0194731895500957 7.751560828412884 1.8292719174204992 -1.0123631280055727 0.01778997699356936 -0.37733304306778886
Ni 6.285813857716824 7.710803146479378 0.2522312929541616 -0.7389211645964952 -1.2419700965075706 -0.07384516811592444
Ni 8.946712232533025 0.3095578586301989 4.161499225920842 -0.793340105667008 -0.5743615634131334 -0.5155154398092024
Ni 6.095903578648171 3.192566946582655 9.503403409530463 0.8693282882678641 0.3785764285565867 -0.44920283262489735
Ni 2.944663242739969 7.855273739877543 7.61117532990874 0.520119000019485 0.22922284568970203 0.041062317257948636
Ni 2.4503947406653572 4.161713740036282 10.97796504503095 2.435831767543689 0.6687123076815773 0.24434067516774696
Ni 0.43089823436358315 0.40012851617895534 1.6315020276961572 -1.35956489890562 -1.592236879486187 -0.13185748296465033
Ni 7.930251086573983 4.7587438301070835 9.735080519545251 -1.978533816615483 -1.0819973433639432 -0.5379218325288606
Ni 5.433493316871681 5.384873226272286 5.137022684623425 -1.3098101960799957 0.3736432529210275 0.04471225530571009
P 8.766772196481973 1.1564082895316352 8.831891220568867 0.09088926808240477 -0.45504000813196477 0.6241620318750282
P 1.3384468332337252 4.379193746289245 6.5267197380458475 -0.6160759124327841 -0.567456608763184 0.4475897225015065
P 5.269585879274563 8.323203639256453 2.4024732199462413 -0.4356770302243207 -0.07243260403911396 -1.026948224908599
P 4.516986422006772 2.5113633829535305 1.7812897731470199 -0.7173398388812936 -0.4716246519635232 0.19555553534424386
P 8.327671128877999 4.270491049965449 4.16730043373838 -0.04792150627162715 0.347091470574428 -1.5372720932145332
P 4.221814999162026 4.05537069898232 8.946664666359602 -0.18657132956776254 0.7666991060407118 0.584194233232839
P 1.3532110003963653 1.5962088596859574 4.402895690705176 -0.7714900996714519 -3.230784726223771 -1.4305229752817363
P 5.608229053948157 1.357659836616567 8.539809733656517 0.3167601665807383 -0.8725771342224649 -0.2134594122078582
Ni 3.2903200963183665 5.405354660946421 12.878670162892803 0.43557392898755304 -1.3495951892874176 -0.540270021046063
Ni 6.691982345250502 1.985663899616697 2.6256052068060014 0.4730367018197014 -2.452020204378093 0.5566744305460155
Ni 3.2685982104549494 3.071954053501631 13.47838074673653 0.8170197086721349 -0.6583253080202985 -0.2704242596286762
Ni 7.645003273243482 0.2113262491500512 0.25016542875547254 0.01084568446525229 0.5727906193815878 0.07453602353536196
Ni 0.6468300083051135 3.48089257113468 10.082432967305689 -1.773568815031881 -3.7372861354598217 0.40357577881440176
Ni 3.4294278368305435 0.3331320272469324 4.601702709544164 0.3794542031758497 0.26175449976882015 1.7655464589480367
Ni 3.827342194270136 8.661305865291112 12.717648406483379 0.16400758533463367 -0.5193970342517958 -0.0581203011814999
Ni 1.3113434410829787 6.311061236433986 12.886887918854269 -1.482046854192641 -0.06914904819183575 1.2915450792222207
Ni 8.014750994655802 4.452277772749414 1.874455118822527 -0.3320911405108539 0.5827114780397255 0.004681207525753228
Ni 8.689239333801604 2.261193290847722 5.391346889208223 -0.8449693998075253 0.3194197156907725 -1.9653797957320283
Ni 5.909546772535277 6.2579736562130455 2.498368490908233 -0.08977649463420022 -0.566374945663231 -0.9260182847607407
Ni 7.414419252547366 6.392324779382869 4.459873437776107 1.4474752868653589 0.06866310969435271 -0.8479508510333525
Ni 8.909918398384816 2.532488359973985 2.8315919198217436 1.0409098292950136 -0.9491720971693847 0.3870952646608753
Ni 5.142649483138411 9.131716667048584 7.023804903723186 -1.2317309352780657 0.34168392640561157 -0.10286212417356479
Ni 5.6006277929010615 3.8205803362834563 3.1728288499520203 -0.4307374268308582 1.4350491452868641 0.2817630816802631
Ni 2.737722408245555 0.6865076583008832 2.4833795502594147 0.968893743968028 -0.2872701275414214 -0.14814413593981585
Ni 0.8943597114508818 3.5158863520533314 12.783607766300756 3.027192950838612 0.0878103720467649 -0.24495902547803616
Ni 6.901814456953014 8.771873901749165 8.927336011888436 0.8603083441574408 0.29898381643392374 0.12835641178992732
Ni 5.1371280763410105 0.4357621087636569 10.553337151528671 2.5635770281121784 -0.8328682456686172 2.019296343244825
Ni 7.44085112224978 0.5841182056614778 6.737484519815488 0.9671564495619474 -0.9298613126559147 0.49215645336828784
Ni 7.919749221618119 2.591479741719846 7.727614524439366 -0.6424119792241517 3.0936775648244073 -0.039147102513106775
Ni 3.5523164448753604 7.293685112357616 3.707563108229125 -0.604102799231308 -1.0819322944539624 -1.779139367141123
Ni 0.9655373602938406 6.893700227368998 7.004434279099 1.5173640414366965 -2.6144213644575554 -0.7469784876833329
Ni 6.8539311757066494 7.611259270214782 6.656959651559769 1.2203129232491112 -1.8212946603529343 -0.013131909396267709
P 1.146531313520747 7.0824539955544115 9.738916591531352 0.6036433430963862 -0.8164916040828067 -1.9850772741609553
P 6.349254075682887 4.958269937567828 0.5312852443688643 0.12899584514613913 0.7922759260685517 0.346039632271146
P 4.337578007893984 1.419150774142332 12.422550664573937 0.5615654400897296 0.40639859297517755 0.473979525348945
P 0.2548082603496369 7.5289231566887 3.1432753335349277 -0.1674063266035375 0.521374726803457 -0.14796055917410003
P 4.0792750328028164 7.527766645805461 5.698825826258793 -0.6460310640339778 -0.281942801791237 2.6543984190711254
P 8.995490877043833 8.203047754508322 6.151724814835863 -3.5903113372377584 0.41617701251818 -1.3587699138081502
P 1.5278627971667997 8.384545349571477 13.320321150460307 -0.7192254859397806 -2.61566629260825 1.0311897737937725
P 7.21117179151878 0.06184628482134081 11.743966971163376 -0.8309949399053044 -0.6615988365652476 -0.43868882046745095
Ni 0.753277508406594 4.943841531629355 8.539414281548055 1.7447081820464467 0.2586136401469933 -1.1785656641089959
Ni 8.59584175327938 6.563245895884791 8.312090875406621 -2.9210781240557044 1.3797210621385205 1.3659759446382862
Ni 0.11703610337358737 5.719543226459913 10.953257682282656 0.8664106004004368 0.6048669310908422 0.6701847784620457
Ni 5.6155225338731 8.112289630276074 4.572640710252448 2.71055259766519 1.6945459593697592 -1.0080079363606704
Ni 4.87639083237464 0.5287791598984907 0.8107971367865269 0.4730940374201981 0.11458815436124135 0.865420982793658
Ni 6.487345205821895 2.122374678056355 11.627855143826313 0.7483658549491627 0.7038973402231425 0.7251768184272092
Ni 2.9448591034540654 2.64466991564817 8.065930331919397 -1.330586766505715 0.9401866058413227 -0.400335160389917
Ni 3.2785871068738928 5.886164733952373 9.230118955151015 -1.7063126129873838 0.7913446725035338 0.1677624243913756
Ni 5.291503625852077 4.545824580482377 12.312431242418173 0.8057865589604767 -1.1602324130174468 0.9176390595581099
Ni 0.9339664785215497 5.964331812278391 4.662133201203605 -2.12989954481639 -0.2316725927817752 -1.6715986065449664
Ni 6.728123310351721 3.2301255701859097 5.458616650469914 -0.7620991453748552 1.8307180105493635 -0.13143607915651556
Ni 1.859706807051028 0.9612377512843794 12.975153015997083 0.15498352745915245 2.7114851367817887 -0.6708442664229157
Ni 4.917297741518884 6.247919472889404 7.590193984078623 -0.06980313683606688 0.14761448868859092 -0.7071541565975434
Ni 0.31698657571487543 8.779167381674108 8.004912258117665 0.5775620726283021 1.3939523752465541 2.4823756767414986
Ni 4.961329095388009 3.592355970857176 6.942870593307998 0.351124245882905 0.7155716912372774 0.8124691131869749
Ni 1.362248573346838 8.84404391154355 10.80262400508091 0.5452800726661448 1.8159405951298726 0.20966137861800666
Ni 6.258467971348624 2.598176312801827 0.39761683568817896 -1.8398989057176829 0.9143197653768899 -0.5011416875860337
Ni 8.444376134377755 5.00584543769204 6.148898824532465 0.3117650273589921 -0.10244663390270098 1.8737369373130504
Ni 3.7231536210712406 4.705376448866005 1.5380643423610485 -0.25165854898539886 -0.8918012725593997 1.2602179869741652
Ni 8.419576437292815 2.4309765498677476 13.637573537144315 0.7758473481988832 -0.7678843845980646 1.2810426370290002
Ni 1.0079925017495182 2.1742497871900275 6.661232213137284 2.2513587152658516 -0.47871189782760776 1.8326764198273149
Ni 4.517182282720869 2.490770027871339 4.902383414475437 0.7193733243715547 -0.5959241200752575 -0.3331442643657166
Ni 8.904947266927023 1.2787186421348327 10.973474238657728 0.44871792256867876 0.18432264274290192 0.5921512832963866
Ni 3.873807817014465 6.8097505946267844 0.7537541028108965 1.3335772165926065 2.412046235088317 1.2120941348837446
P 1.410402328912669 4.625148169691634 0.8914078106884209 0.22277117652708733 0.45928181412745417 -0.5513476190164633
P 3.0104164824725097 0.6706270850678906 6.904048201763786 -1.0503822875618232 0.878381656719384 -2.1058936688200958
P 6.584809227836796 1.1881470519160093 4.924101569658585 -0.8222215645880485 -0.5036359147627971 -1.6028241680837298
P 6.81836846604705 5.316088808821577 7.809750113901014 0.4809965800967264 -0.5742780025603915 -0.2516138117903925
P 3.610617650771547 4.707036601585494 3.794066391615135 1.1391527095290126 1.3140124070868016 -0.28835359041358727
P 1.9858970671334792 1.718789686608622 10.874139280488167 -0.3889431165028915 0.7495413633145027 -0.7163525352673599
P 5.017317279517717 7.002039182366614 11.556271783504151 0.10038795160145937 0.9823179877937339 1.4024110475368685
P 8.465650338608949 3.3858348378929697 11.71611930829906 -2.5906803120868735 0.6259713171696252 -1.8514025354819084
