# total energy = -340869.4306768494 ev
CRYSTAL
PRIMVEC
9.24272356811222 0.00000000000000 0.00000000000000

0.00000000000000 9.24272356811222 0.00000000000000

0.00000000000000 0.00000000000000 13.52766021074871

PRIMCOORD
 96 1
Ni 5.188088541117944 6.636146019858882 0.9966973988112586 -0.8565573617554411 -1.6350115514495518 -1.1158554295639684
Ni 3.4071913491776704 3.5949665182470576 12.33580543837577 -1.2177299930132834 -0.8344885548808597 -0.6785814871661733
Ni 1.1337956396225959 7.306372866181856 6.695758813122655 -0.3252085544584077 -0.33162937038308693 0.498649003071167
Ni 3.283172486282758 2.4568730122325904 6.162200420971831 0.6720578271150427 -2.4222810254424476 0.08107305332293133
Ni 6.935009481753872 0.07120963834308854 6.181166489436607 -1.9897091165060117 0.41571601372136147 0.3296236528069678
Ni 8.65715068089172 6.475599913994772 3.5168673538641815 -0.6737308439420913 -0.11523067304124672 0.37026328070520104
Ni 6.7834565457807114 3.251959809282004 3.6044181272198057 -0.9672412959662696 -0.41898208606714293 0.15769064197767035
Ni 4.111246563230215 6.2750513011542735 9.10853848899167 0.12441979573968251 0.1631200405233578 -0.618066974720884
Ni 2.653493467618152 5.778994335021471 12.119214230489312 -1.0169018964161904 0.6075475632467988 0.4038326320202142
Ni 6.124099142203632 5.413647963542108 3.251481036208673 0.14305438012173427 -0.19268258467182298 -0.7038623732201491
Ni 3.97731950082544 7.592629253327356 11.120020372081397 -0.8628478227498431 -0.37642030144553235 -0.08742984877889459
Ni 0.7721103108912338 6.743158271654774 0.5176424224157637 0.30030793456198607 0.4051194691524378 -0.8619862460804961
Ni 7.321734272511513 4.774883347752319 5.527780809463373 0.11705384229291453 -0.29421879094511266 -1.1622373592626178
Ni 1.1941875944709606 5.473494597708494 2.3676918224650816 1.2019040817246203 -1.5527221092210162 -0.07372484048797626
Ni 7.390786659207585 5.247010902941991 7.906930836156419 -0.7265438739780649 0.12421616436930863 0.33771491445553453
Ni 3.2241854253947473 4.503858968808549 0.9327784207045323 -0.3374133240547157 0.5233781303867309 1.2538740470340084
Ni 3.088243449283675 8.408946586080274 7.995834744221226 2.5216284515945344 -0.030709770379030984 -2.3691615199096487
Ni 5.8000769871502005 6.94769049829075 6.97800016121304 -0.06811032251467625 1.5089488207898076 1.3175777558405566
Ni 5.598668801031328 8.111561959933024 12.490575766372611 0.3595574642519227 -0.3066148506166203 1.3986654644515073
Ni -0.2730587023692564 6.5053337552477855 9.372747283683038 1.1099254372327787 -0.4308808943872579 -0.45305743048429714
Ni 4.811493775232328 2.9805472359544516 10.716355517833387 1.1718589415127816 -0.549721139156634 -1.1366052605168102
Ni 8.045864681839639 1.6054887868113685 4.665230449874366 -0.820245157587968 -0.6092470624364087 -0.4468829262424691
Ni 0.019968903956212397 0.76735308114522 6.570208430956489 0.04640172719299105 -0.7087580107495535 1.1304685514914532
Ni 8.097827272925882 8.202843096462324 7.8048375617664485 0.6453348092979014 -0.27014760892852185 0.49274652154380305
P 0.3196910148572353 4.501640715186938 4.326443044152086 -0.7094308684468621 0.8082710159452272 -0.25646702611763567
P 4.397364309524365 2.654667293492921 0.37607717337390706 -0.10520542759476076 -0.028709452119550557 1.7813803406565
P 2.4438962285461647 1.4686040529111115 4.323913310751107 0.03924043355786146 0.10947551572502437 -0.3007203395090563
P 0.7536655320275367 5.11419296734802 10.863563449525218 0.12542741106859043 0.3780619508140134 1.293257433927637
P 8.153228157125621 6.92983355663678 6.174916559857717 -0.039794249178802435 -2.0387835054351595 -0.005907366623370471
P 8.095756902879044 1.8531105900471412 2.493783828223858 -0.7032309102837373 0.050175078192494234 0.3012260755008812
P 0.9762349334242377 4.165316495256988 0.6463944839757889 -1.3796634694277077 1.4951394257105413 -0.26306293416759857
P 8.263835828333209 8.39687558928934 9.979449816189463 0.15301226266539453 0.8620253268485477 -0.5007835329156665
Ni 3.6744909105818184 5.5254202179010425 3.376233771343401 1.606231651103382 -0.07490189151521294 -0.7036086053381302
Ni 6.8351695833345225 8.792445666363156 3.088459729011782 -1.4251010329352167 -0.009805673236512144 -0.5960300495255025
Ni 4.178598288816385 8.750391274786777 1.4211888817491725 1.1993304074601732 0.7631031611593374 -0.23616508133549005
Ni 8.414067054856826 8.488286123946569 4.768378319006945 2.467489760768602 0.03206962684103509 -0.7690542365364497
Ni 6.252609968682307 3.6767461350971233 12.640462239312537 0.9921462867380655 0.36052111371677265 -1.1278084881607866
Ni 5.048939339978959 5.212165835635848 5.738853187193732 -0.5785321498510552 -0.2304034962613645 -0.9874378255188024
Ni 5.951223243292733 3.9759977913758964 1.4043606552122243 -0.7342127033772323 0.13408225853011102 -0.2367158116326375
Ni 7.635090324734365 6.813957533077865 1.299035200441098 -0.5127962411058266 0.38799077989195113 -0.8656433832171091
Ni 8.97045127677403 3.9481494657012526 9.396840290830765 0.22305194099229975 -0.9786461953691016 -1.1671052288778803
Ni 2.8943495973080102 0.23103666032485942 10.170500606440097 0.6821573774428896 1.8506651430952514 1.7313240474300569
Ni 0.11819040150412886 2.938862553315008 11.7582285759211 0.31591067409624946 -0.30843493454449467 -0.16410374459286578
Ni 1.2544593939148214 2.0860641912100095 9.544684121894122 0.9539803171913054 0.02047857956932602 -0.25165854898539886
Ni 4.470058329249248 4.1791343667749405 7.735156669877587 0.9492674850966684 0.3438698783133368 0.563865548977816
Ni 1.8257613714373597 6.486469356740666 4.280313535818339 0.16224457989693994 -0.24241543312057603 3.684566436468603
Ni 1.535096205218907 8.958962571558768 5.058844766671795 -0.3371814105495677 0.032492059090434365 0.28643888988937766
Ni 1.0467753985914736 1.9435598814683372 2.585406021247481 -1.131487993894903 -0.30911036334496444 0.7527043344235166
Ni 8.188553846049778 1.2279050495194506 8.669633903147338 0.997056065334857 0.6796240694980746 1.0430600428687973
Ni 7.296778919268387 5.132410375215503 10.594984695199273 1.1961653794686302 -0.8345708301820207 1.9334947740979735
Ni 5.01577644833587 5.262742018208584 11.729807201394205 -2.115075335319364 1.1879573897365412 -2.4438674933639715
Ni 2.3215502985908842 3.738857236502237 3.95585327567464 -0.41801535127849937 -0.5444051262603592 -0.8149378864424417
Ni 6.01271508222848 2.457723342787541 6.211617566027274 -0.11739631323399782 0.71523744782631 -0.06220912653889286
Ni 2.9929324853417807 8.743283620474198 3.2946889196682894 0.7752349114258649 0.020769628447183584 -0.15636061031233717
Ni 5.86532137179584 1.4010952010267443 1.7358832803237283 0.6112034148318313 0.2277501177989174 0.706565373973609
Ni 6.516767004122506 7.059046830095632 4.682870187527887 -0.1490226818900272 0.5965856649186565 0.7818981823786534
P 1.2388022204356157 7.73087266757085 2.7846144391915892 -2.0105147403974537 0.7043989624499094 -2.079672530340038
P 5.636813520599617 4.842854335807855 9.513219118543908 -1.9076613579746369 -0.6087683230277774 -0.830954316475356
P 5.064143620010419 7.277591025441451 2.9762068530348325 -0.6773306454782078 1.607695380133102 0.9213671591419745
P 1.3905677390475144 1.1148110857109734 12.106538759586488 1.0894458292221882 -0.4918726035792819 -1.1615192501496707
P 7.028786153607485 8.985313576038825 0.3847634848471995 -0.24398072072516694 -0.17682376326269547 1.712780480099915
P 3.096377045896249 7.550399250005934 13.569866141695194 -0.122369340968557 -0.891472428465071 -1.5652138139301237
P 4.327350679592262 3.5567293714445345 4.674469476208377 2.169676824714328 -0.2391200501987559 -1.2996214284724519
P 7.5001003491358995 2.660693549164965 10.523680781077267 0.3491969469532051 -0.4527527547596848 1.1970380118815707
Ni 4.421968439277403 8.471963474380878 5.156270465732958 0.42582533424122143 -0.03082264180781143 1.0953835348628618
Ni 6.188622594422248 -0.015428878210648162 8.783171517680136 -1.700954433999264 0.8015349827729745 0.6221234041784446
Ni 8.233251656525244 4.531587139078688 2.061466531363368 0.3993601980711574 -0.2938729775699197 0.4285532746953458
Ni 0.6893463439965779 2.548921294806031 5.3565066745217464 1.181862846803029 1.2866442994864937 0.04539025520934119
Ni 1.6854291017001817 9.185769761645089 0.5327246984980353 -0.10425180543223982 -0.9483825113885538 1.4155630115377942
Ni 6.46268782937231 2.845825299335265 8.652223385034716 -0.6916948846196798 0.6703673267864971 0.6042023009236497
Ni 8.852199873295307 0.7808844282370484 13.330386253523075 1.054754191377274 0.05700469951981795 -0.23314686333445653
Ni 5.51846968988666 1.1584274975459035 4.262998217756979 -0.8254184742587914 0.6385499251655841 -0.5201369977416138
Ni 4.337961326082302 1.8333866182616483 8.474496904871227 -0.9979374394985459 -0.7231567026733868 0.7274357896647149
Ni 1.294951765232649 7.839502395965835 11.815220132822002 1.4348234024293032 1.356136332840045 -0.3387790940539907
Ni 8.401598620958687 4.801992255553093 12.907349575252002 0.8131160027423546 1.0567236563988187 0.8390414643588646
Ni 3.421517570483909 1.7643342315655766 2.4045684403796828 1.0246853970163514 0.21417083645258597 -0.6156740490086752
Ni 8.476714234220497 6.94175666985294 11.683380077366227 -0.8911106742502781 -0.19910648592029578 0.9600481206519402
Ni 3.6437126415819634 0.5587180095816067 12.786736655938606 -0.8558870751612937 0.44143295887149137 -0.42339924129823214
Ni 6.493114874882076 6.993497435577021 9.409122945988093 -0.5326253600166118 0.12989650258353758 0.24351252283949673
Ni 8.00273813434615 2.732213743015079 0.509100297427876 0.01294164776233255 -0.008361484590817857 0.43177640961833386
Ni 5.925972122900059 1.5275633856288522 12.925435736446873 0.6401342389335685 -2.0787250788251037 -0.9730347627195952
Ni 1.0846890500741782 8.913654741337359 8.930406253269894 -3.6048681520060106 -0.49977488914549417 -0.24234344223206006
Ni 1.7030272470982972 5.597929383157458 8.413974627622594 0.7660609582360807 -0.6105567823867678 0.6282452008054664
Ni 2.3549442583195557 4.513887323722916 6.376803519049921 1.002942348912305 2.453977328104464 -1.7947901863045024
Ni 7.493233005632328 -0.015954789173438483 11.72712866014611 -0.7489410107263423 1.110547387087494 -1.5432735622136067
Ni 8.821560245146802 9.022885246754864 1.9696816664074936 1.0970542376970656 -0.41722499416672015 -0.03916227202175836
Ni 0.17928850042203973 4.936335240511921 6.520562066360146 -0.5210543673495606 0.17789488483968718 0.30303150414073615
Ni 1.8721136294056102 2.333445683636774 0.4489468048438346 0.8819973990951004 -0.5388618278446268 -1.2976774173722039
P 4.950920258074015 9.940641469079377 11.056995165329713 0.45522409911831274 -0.5576077409935623 -1.3998638556349827
P 4.953018356291121 0.43779545903352673 6.989336361491815 0.40507061819237333 -0.23520374586348525 -0.7800590722873856
P 7.951709058325668 3.1532105522266125 7.179926864115965 1.318776147024032 -0.045880050361566144 -1.1929702695701003
P 2.313130177552185 7.339101349824044 9.6940696392245 -0.6715078681488434 -0.996458026739542 0.9991671981405889
P 6.505176628949587 6.001438959651956 12.857175451148183 2.529521738299682 0.5289286278913149 1.133048139293171
P 2.567711751525762 3.354942233665304 8.074065155276715 -1.5676319364533131 -0.3279992298296674 2.331280428593159
P 2.0179730477499693 1.0457586990149017 7.542455129223538 -0.8807820386307604 0.3386718790521651 -0.08342407005361116
P 3.440991988736971 6.696316149345085 5.864700260781789 -1.0402171741033635 -0.3262292824134382 0.7608655300780703
