# total energy = -340887.22778830794 ev
CRYSTAL
PRIMVEC
9.08307279281784 0.00000000000000 0.00000000000000
0.00000000000000 9.08307279281784 0.00000000000000
0.00000000000000 0.00000000000000 13.29399516336191
PRIMCOORD
 96 1
Ni 7.087267361331412 1.9611444092826447 11.247943241525999 -1.3908631947982693 0.06923415170647432 0.35028863735548704
Ni 4.785989125793592 0.48844314685434415 5.645374973453141 -1.109508147189702 0.006449869390401795 0.8756238914685888
Ni 2.994689094355515 1.9308251123552602 4.5515713669675515 1.0290153918502731 -1.6107987016487744 1.2172049737477488
Ni 3.861250569508362 4.673440771022106 5.356961980200936 -0.3526581660289281 0.22809207451936847 -0.5210433116059672
Ni 3.7444240874592243 2.8179143319826094 2.353502270772598 -0.81926145351846 -1.4309896305055096 1.0482636985569236
Ni 5.040633071077963 4.707693038461641 2.7360240727530645 1.1268954894282142 0.038933958061036174 -0.054124292648229363
Ni 5.094341280404394 4.653694170806368 11.63255142532319 1.5451669225815776 -0.20085277918744118 -0.6260746755167088
Ni 5.76625250596052 7.849954816214166 12.546593755107015 -1.6467658637720026 2.2089488828410726 -1.4963043925529198
Ni 1.919126114619349 6.28558627501988 0.36940856981328113 1.2262562853167398 0.24069845042946936 0.2858246533441464
Ni 3.031820695865146 1.8278775655083526 0.012781700010849502 0.11124803424441486 -0.9368703969838962 1.0509397027271903
Ni 7.879801793357181 9.075633739724713 6.826213491588787 -0.14364599095914615 0.3630073704737361 -0.6159730683063327
Ni 8.520875986837671 2.6199669269680816 0.9545437512934754 0.7724187821333084 0.11953752794671671 1.4458871164426323
Ni 6.762565675723219 0.9316416915952406 4.4448343621583595 1.9705860225233163 0.8813163138676758 -0.4558221377136279
Ni 1.019547669924548 7.6624166126013105 2.3333351242873155 0.3738872506110335 -0.07316408288849979 -0.1709858164246797
Ni 7.602468332277542 4.0127743895630745 3.464986986724588 1.0241513788897523 0.05401604920513923 0.6329744879603357
Ni 7.576735987102204 4.094040641692886 12.593893856589746 1.5393282044126135 0.9472270576278721 -1.4614641449452832
Ni 8.053987879988833 7.571776629366328 8.763693771367263 0.8736919645531984 -1.4013520101447348 0.6272023613632488
Ni 7.285750667639743 0.6915969691842632 0.26831124489091174 -2.1607867213135497 -0.37155526004374717 -0.18698116341167154
Ni 1.996150571762615 6.273024385370218 8.982619441265998 -0.5108614859769589 -0.0007811011403986548 1.5580396647791876
Ni 8.912292841987998 4.978214194959033 1.3974116721853136 0.8596992498185323 -0.008662817881320565 -1.1198486098837617
Ni 6.544544679873006 2.08824384664181 6.811550687205959 -0.018762625319483816 0.02826208016948681 0.6987299370895902
Ni 3.7997763329581704 4.303568964497233 0.7682989772439694 -0.6263510691065471 1.5406785477929208 -2.7305953752486776
Ni 6.124071074911206 5.67672065760425 4.742699200941611 0.18041970814406993 0.9271799091690096 -0.15046712764603762
Ni 5.881698360947656 2.835417413222595 9.22839921582795 -0.526637517864293 -0.7663682050638544 -0.129987262525131
P 0.235112613893431 5.8634958831038935 12.617995790201734 -0.6872291355388422 -1.0519547742552655 -1.5572958446346277
P 3.8576445896161595 6.206536292647493 12.55233607371621 0.7497845896735603 0.6562293447232181 0.4486585300856531
P 2.6592239675073737 8.930985805761681 1.0776866021512717 -1.3394215911885254 0.11191266441160727 1.3516782970686914
P 6.534444302945729 8.131339327752046 5.407478397753764 -0.038874822688326593 -2.0319623687482684 1.5218819839117081
P 4.954725368759449 0.939198808145146 12.543163986826674 0.3294788996989874 -0.2190446196051195 -1.3782815014785168
P 4.048389117919059 6.000577617444244 8.042667646387695 0.37381860215662716 0.8292293633644493 0.14521539232879507
P 4.868735918785946 1.3358475132146364 3.4692278734038555 -0.8119003851676985 -0.4364858992788612 1.3612440863802557
P 0.45859253648221804 5.695695196634 3.284773372998564 -0.748156310041518 0.1813846431605005 1.3972397877485743
Ni 0.3691878511448164 0.4805508649189923 4.565662846072747 -0.2117768822991127 -0.5625013216404376 0.5151552282563063
Ni 1.9267922280425704 6.775599885157251 4.586534839005472 0.7804272542600817 0.5140195719899663 0.35733654534120396
Ni 6.027345432916083 5.588660267037745 9.29393812744555 0.14859150788987957 1.7905182984020258 1.3076463556594575
Ni 8.891556186839638 2.530062672627982 9.734528013685084 0.4963285824681065 -0.10030516207966597 0.9754837384807199
Ni 2.2126183621680764 5.708075424828136 6.824844672521394 0.23573699265913595 -0.021225485037679577 -1.0233414813939474
Ni 0.6769950213890374 0.24089853125195226 8.891063884295162 -0.481281715437313 -0.10357766218335064 -0.5615849804737554
Ni 1.50166808981929 1.2787604008154114 11.054169508452194 0.22256703093608118 0.1741197340679711 1.2575556096506535
Ni 4.078926408593075 7.22351345297634 1.2778457353868353 0.16372579242815674 -0.1314607617468639 0.24369481405363194
Ni 5.718066804882097 8.036094226619467 8.152316684328976 -1.1662477659735915 0.5583952698918642 0.016509824729565116
Ni 5.467809983748694 3.030739810204763 4.797868876677753 -0.428179693406011 0.27179260073111255 -0.3696552148075569
Ni 0.6583656391247876 7.8367389453246075 6.381183799376183 0.6690406375552735 -0.9245756387769433 0.7067468938567958
Ni 5.559576268007941 4.492069973824378 7.344905995710137 -1.5908178876514731 -1.0161174528416823 -1.3649765568394945
Ni 1.006440795908306 7.301464383542791 10.973262037697049 -0.16437988107238788 -0.14950759194624577 0.698839466084261
Ni 4.564325817760071 9.002732997621901 10.304295544335007 1.176314406180974 1.6843813601319313 0.37963469461777194
Ni 8.315871034275938 7.251089661925273 4.28143714937043 0.2123157855217182 0.5245132724324386 1.3265331652616315
Ni 6.967834037395468 6.309502005639954 7.0072382237137365 1.4512692066901522 0.27298482126700085 -1.0819279235785884
Ni 2.5609905354313804 5.4351563371177924 2.67001919950204 -0.5781205162349334 -0.347303329474918 -1.0806413435566808
Ni 2.767603191874526 4.644456685792842 11.521692522088099 -0.2040651154771518 0.998559646463577 0.40173332628902425
Ni 1.6270871587148341 3.3981682701528046 3.720882579437536 -2.1403518504979657 1.586406903067971 -0.3996129375119118
Ni 1.4739283855603826 1.1732332613000267 2.6757887673295637 0.0021103614747834624 0.37583717524855276 -1.9277884677418153
Ni 1.3332134221095011 3.586106128967818 8.058860040226056 -0.5258872699618298 0.4488799020678398 -0.7431249182651976
Ni 3.699217634251437 2.76219876357261 6.960216972565239 0.9425877590836476 -0.2273017174075892 0.46325545406322155
Ni 4.484730851021105 7.110919682840971 6.144019319342578 -0.10087337587831015 -0.3124222013270168 -0.7324751518608353
Ni 0.5338476110486552 0.09123674111638715 0.2985024704921502 1.5107241675226757 -0.8463667943756842 0.2204229880098849
P 0.10160143546145563 5.966352599223038 7.841769151028138 0.4156008282997359 -0.5648101722792724 -0.508112462476912
P 8.735835987162263 1.9508442047542882 7.67092745179273 -0.6192237140331465 -0.6286447502367302 0.5027781947481921
P 2.144894971547771 3.323687073386911 10.006403456333425 -1.139382051930999 -1.1537329213360323 0.9421897523142806
P 4.073476564927278 6.276230710060261 3.8576918215945963 0.41393963854722904 1.0011101807995726 0.4861974075713756
P 7.217118969741805 4.07567466853915 10.465976964675487 -0.01175688342561201 0.6237156883662291 0.2730187598287298
P 6.608961832002728 7.994920657724369 10.434390579095805 -2.1116876497940535 -0.38578477337956785 -1.3621236607717315
P 2.4839115798514566 8.951041230451814 5.384573613133697 0.06956865222775761 -1.2150604166009205 0.056041050054968
P 6.779460191087192 4.22957825366126 1.2365658945402551 -0.14404245506661645 0.5835691980543304 2.2957997191880457
Ni 5.675312781323919 2.8420753055676435 13.258832915482762 -1.242990310241969 -0.4726425517050763 -0.3141088450008203
Ni 1.6084577764505843 1.2503122168799505 6.732823153917132 -0.24331506211671 0.9071641281687151 0.323295653706411
Ni 7.260808549795945 0.6144044751946353 9.035077819778406 -1.2615487899704467 2.073572330979571 0.15011745761610276
Ni 2.930489935972425 1.4468154133230422 9.102238968193856 0.14366038913684934 0.6732914424118276 -0.7104801356469829
Ni 6.352619352109184 2.345494633812986 2.2258669321196294 0.1322835147584754 -0.48066696467144965 0.40497831558888314
Ni 3.9096270151150874 6.791059275022563 10.38332826886912 0.1513598146636361 -0.9355557919375308 0.10786471959447876
Ni 7.921066192980041 7.312118827909425 0.0813570828575746 1.5492166671709189 0.6574835288452935 0.7202870944350757
Ni 7.678393737614872 4.0980644429328 8.37051116686922 1.7793008324196518 0.4987919564069345 -1.612147502367185
Ni 2.973016882711195 8.322165603709934 12.324211067709609 0.3782732954938711 0.09683005904687195 -0.5251676181869859
Ni 0.5525169588331209 4.918184166980279 10.577327262147778 -1.2519002111370892 -0.6379472585845787 -0.22192014138070165
Ni 8.725117961286195 2.5681298306335747 5.607035323264258 0.2753818607442677 0.6316830228424218 -0.8209655806937602
Ni 4.044419815115803 2.5232140357546307 11.24533730794647 0.23671272630884393 -0.751521369859009 -0.5874209677002529
Ni 1.3460296377969005 3.3370301072953374 12.749060897135044 -1.6376106796352958 0.028305017592280282 -0.8560871069872417
Ni 2.869233693168866 8.266577198318803 7.763586602105891 0.5564407172686546 0.15191105918141581 -0.4011268030532769
Ni 5.41240323981309 8.039037142198996 3.5217525583475306 1.8854344282556368 -0.5050325380000076 -0.3050361932755908
Ni 3.233119754734139 8.486087818104334 3.273593018718181 -1.5390222431364204 0.7146196117366531 0.26221549856563875
Ni 3.9920104851963876 4.222002970965802 9.41706735369418 -0.45657675649146534 0.43920664064413395 -1.088469838462164
Ni 7.559023995188363 6.312136096745089 11.308138581429285 -0.2829632726359514 -1.1471462692574501 -0.9504057124661698
Ni 8.07611424527197 8.885461445006722 2.4868408708218226 -0.017845512821853135 0.6342541260037077 0.14171637803660111
Ni 4.823901871561988 0.5802830040030795 1.4841286762881998 -0.02183123694247853 -0.9191030456981463 -0.9748224507476373
Ni 5.863795624505512 5.859299503481229 0.25943344955932823 0.04091396460554244 -0.7512128374796546 1.0551830513845764
Ni 8.335463222254477 8.926589598537939 11.019671998047698 1.5402021223771345 0.4819162636975184 1.2968194402472826
Ni 0.2921216118667794 5.110690811401785 5.554350776239719 -1.2204635898943628 -0.29744835362600386 -0.28016771216868525
Ni 7.179188057827856 6.238208967418551 2.4885166977490556 -0.42806965019070786 -0.29872953433127264 -0.3851959907556334
P 8.361667887214185 1.9304254571531017 3.0669376718329877 1.110617835314113 -0.8782423029280423 1.4330066609355385
P 1.7286449954269636 3.5815918417979833 1.484978851900064 1.0352107220277074 -0.4498983160300252 0.6194342873820559
P 4.840305900996037 1.236051792621115 8.1113574759514 1.068526819681334 -1.3214863468663436 -0.33411382736783746
P 8.833597099453888 1.6489410318146807 12.40175507661568 0.8670104387679649 0.2230257157400546 -1.5328803919047407
P 6.449880895398111 7.936834407319749 1.456755928169456 -1.6501553490695258 0.2257670259306176 -0.192378680278159
P 2.0105199928947664 3.550418736029623 5.923857443238984 -0.6619027409589117 0.3301396732114379 -0.6261998882406634
P 7.125588845374742 4.109972351342566 5.815311998640026 0.37264283668097115 0.13685082241418367 0.14440420928140937
P 2.4111924992041702 8.55975153832036 9.934828842855957 0.34606997128844913 -0.6677813112268757 0.4269167675331874
