# total energy = -340886.8018289241 ev
CRYSTAL
PRIMVEC
9.13541291421632 0.00000000000000 0.00000000000000

0.00000000000000 9.13541291421632 0.00000000000000

0.00000000000000 0.00000000000000 13.37060022164683

PRIMCOORD
 96 1
Ni 6.4585174835029635 2.001322252330269 11.606054836102842 0.7411348844183623 0.9245470995318529 -0.5409323372204103
Ni 4.742475896958846 0.40111404384116955 5.744732066170164 -0.26132332576867257 1.3358169045564028 0.43539189488373403
Ni 2.9161516090771324 1.7400129093000694 4.015592124989049 -0.6496159531717586 0.9063969109853874 2.6265081204187606
Ni 3.387621119790515 4.278488289194062 4.517952119988626 -0.3852060180579624 -0.5596373698290813 0.997131912878115
Ni 3.9577713577942144 3.0987776430764584 2.368534779880533 -0.9348690502831514 -0.9931065937688058 -0.5491326136430156
Ni 5.46394510985949 4.601315500912745 3.0431886571885145 0.39134889773090664 0.05934748872038167 0.34316179650271866
Ni 5.11077005736517 4.79302213507191 11.643987809989863 1.2098323354327616 0.5424703711314915 -0.29026623405526786
Ni 5.813027497493039 7.933155791149966 12.086835159374482 0.043036667375500076 0.016528336672326373 1.6093784242624798
Ni 2.0771553126188196 6.7082431233111555 0.22161506158702704 0.13331247024362203 0.619024710648463 1.2479437975925023
Ni 2.9191662952468977 1.7181701376882246 0.29013431051947397 -0.15066510258945667 0.26379132769319086 -0.3871798539548816
Ni 8.38096458313701 9.021101217342443 6.633942985262868 -0.48642880685589124 0.7987034268614503 -0.17606194539600645
Ni 8.80809993632957 2.6146007733868837 1.053222636305624 -0.17324581610345002 0.03322328082950407 0.5831472800255635
Ni 6.799213562336981 0.9341598898839033 4.684790333871018 1.8123348800564851 -0.022493810227141905 0.007296276551097112
Ni 1.26109803728863 7.328638130810943 2.6671001627214506 -1.412606757122948 1.4630168341443837 -1.0439946388679247
Ni 7.833232647741202 3.9393452305081036 3.7964344894010122 -0.9872151679850354 1.3323410301926604 -0.5364897280680244
Ni 7.781480535160231 4.131590854012772 12.808994095929119 0.0007430488136116236 -0.6862014656052763 -0.7368748235904277
Ni 8.625455631504973 7.281124849692915 9.21997823687933 -0.369919267102221 -2.144734295836377 0.2674356093139975
Ni 7.487740477273465 0.6582914397362641 0.24265208980440728 -1.3650205227035523 0.12125811018224925 0.4164220386494506
Ni 2.0248916169302524 6.390385576066267 9.30280902324679 0.294771321014473 0.9699162716952716 -0.9713553181346432
Ni 0.005510480901825504 5.0630009846933435 1.4741349464107796 0.1842496234131214 0.001233615296784972 0.01437452355411718
Ni 6.6326567191637675 1.9860295715781875 7.074772321996272 0.6369293588430256 -0.02237836769520017 0.2557126644501145
Ni 3.663949081193728 4.7579421505510044 0.5023746116597946 -0.8716682492549505 -1.2254199054583736 1.098326933761902
Ni 6.142870706115903 5.869639649596175 5.0122364102182875 0.12295066739332372 0.8867467408546277 -0.6149587681092054
Ni 5.299087453436508 2.549392197993597 9.393822398712004 1.385549753005156 1.6074143585575738 0.14836293681884127
P 0.5053089061983661 5.737797374438441 12.388128376428405 -0.5937114286946549 -1.3894768559737036 0.08922447878547214
P 4.1410551415033074 6.41080322330695 12.80315199954862 1.1702522591472941 2.187896175935832 -1.5135076438050838
P 2.477533042201556 8.698812994969263 1.384499191171022 -1.2782457910101535 0.20732398873408167 -3.5669448945976767
P 6.553507504088476 7.974886356069626 5.921116786256813 -0.5017944906786842 0.09664699650178839 -0.4280161712449532
P 4.875478369521308 1.153300168187932 12.762785351735461 0.003602886859909924 -0.4624794951291455 -1.4185663171404923
P 3.973027496895754 6.498055549390067 8.163673312350436 -0.9190981606021396 -0.48010543574102477 -0.946773772140537
P 4.941180257196919 1.22504056361571 3.602146187631012 -0.109188837722541 0.1715159778965369 -0.4324760067885197
P 0.07259547005047504 6.041184428068456 4.001486134338338 -0.13032819080431748 -1.0456383451189348 -1.349761796772269
Ni 0.8231582315718822 0.1725012561752328 4.154178161754422 0.062027863766022207 0.23667081732731496 0.8341800225015052
Ni 2.1523214877849672 6.593292226116741 4.802131055010919 -0.07291417166122281 0.10483030364352913 -0.3423429001458491
Ni 5.7309275441364305 5.603990985564041 9.096780802698714 1.153910584564477 0.20418415755351932 0.7909844609506378
Ni 8.787536122486717 2.515856098208117 10.056121543971528 0.045399768291037944 -0.5190329660441577 0.4817082614517705
Ni 2.487938277193564 5.3480258589256975 6.854905778387709 -0.8089335892298907 0.29654203976165056 0.08114735820429252
Ni 0.7511446873062982 9.039792271594987 9.029754280190932 2.3338417615624323 1.6380163997141466 -0.9297268439605795
Ni 1.8736822669849347 1.584555592479173 11.327639432912383 -1.0159428749370312 -2.692347644621389 -0.4935911289322854
Ni 4.2814938399511915 7.253663799310145 1.6273760121262664 0.2563958065600681 -2.0024569030899837 -0.3734077398714537
Ni 5.446277221822139 8.1726680396315 8.109723219489327 0.5862822261101193 -0.008051666659882908 -0.7436764198932934
Ni 5.350172680895075 2.913063839606282 5.216739930397474 -0.844388587603391 -0.3719861769335787 -1.3064461647037693
Ni 0.8480988216084767 7.360831324938982 6.626108455386532 -0.20831386345117675 -0.5002178902201837 0.6905407164105785
Ni 4.735633472894742 4.71474991960964 6.701826409475873 1.4597312214145763 1.0436534534784219 0.5709368540023005
Ni 1.1043617626987423 7.578025760351617 11.356760387771052 -0.9958587025926462 -0.09388023238992865 -0.162436641303088
Ni 5.132220006233682 0.32190088087742796 10.360783901205481 -0.1518483242642804 0.9268070992106232 -0.14395143801470695
Ni 8.169297072368945 7.838293666341352 4.3239186962311615 -0.8472376270164117 -0.08325463435528242 1.7860564059759303
Ni 7.1465602215697555 6.2031827003364794 7.231421810166122 0.8081306337126211 0.04316239432008695 -0.18438126389497925
Ni 2.2503079237149746 5.437114402948579 2.6626082803285005 1.5244384317849746 -2.4408227930003767 -1.0884801228748093
Ni 2.593187366168914 5.4273577822537025 11.5597931065159 -0.008016956767205548 -0.6886810374940203 -0.8687323065550782
Ni 1.005544004218891 3.3628550161352613 3.557702405158563 0.43468664128659334 0.3909444632036364 0.13613322752186877
Ni 1.4045970989694572 1.379063620652809 2.153696367386633 -0.22105985026293543 -1.0527528446765289 0.06827307334478565
Ni 1.2807117682173756 3.568209956772091 8.041840708817587 -1.0160328635476759 -0.3913532686062809 0.18501452660360396
Ni 3.4495135403970596 2.8137984459072833 6.9803624001131235 0.8071302174725649 -0.2568282661117964 0.22872533722799315
Ni 4.19858083487001 7.365389895844173 5.848407123548392 0.32930483601496835 -2.121833479978804 0.34359245628223406
Ni 0.8709044657121192 0.21304056328720372 13.270587312042098 -0.032824502729188625 0.15250626956325347 0.2285931825255031
P 0.12721518865777695 5.5887348464625015 8.031144054162501 0.9202633845548345 0.5103822323476952 -0.6531890152349976
P 8.801129616488568 1.7274425815134118 7.936520363623678 0.33409711519728913 0.6506490224219633 -0.9760568373753707
P 1.9514794409901501 3.31186114280305 10.154087881993737 1.1126240671108643 0.9641842543075008 0.08034851645208098
P 4.167438213195072 6.123960401960102 3.766083908001584 -0.26677329313965026 1.9767409863811183 -0.06822293683314057
P 6.9847903346176246 4.275729394578095 10.496709705811352 -0.48230450027487254 -1.8018409225036967 -0.4347594035060577
P 6.7145191517918486 7.807553002822383 9.960575176756503 -1.4718048647496587 -0.9735728946112523 1.4684832565755934
P 2.5014769587196004 8.862053683355734 5.389301480296102 0.1194159147671879 -0.5114263573414934 0.8959281502435795
P 6.84630661447377 4.142160526432222 1.5135122290354954 1.773595040284126 0.5227345832654611 -0.305434457155274
Ni 5.31171259369898 3.124859246151246 0.3198983984276929 0.47626857849343784 -0.4281822645091723 -0.5719568106263827
Ni 1.6475899396651745 1.2557172792462308 6.862888301948742 -1.7676588773053492 0.5526241717360418 -0.6229253312544498
Ni 7.700403748018815 0.3003075060305364 9.032281135325952 -2.6210396411050216 1.1749566066014991 0.37233944650793943
Ni 3.218698204744667 1.4871903646083902 9.19998904049126 -1.9374720135781662 0.1990578920705475 0.2432214739616392
Ni 6.418020199289116 2.1323697465887026 2.353626700000412 1.21993445686377 -0.11577857512491672 0.010444849482407818
Ni 4.360999336119274 7.255390392298283 10.304413837537188 -1.2079482310361713 -0.9870416185216485 -0.0789439227950705
Ni 8.768982099423708 7.275387810557726 0.27386231353285 -0.4523616899688532 0.2063503119669027 -0.05019950367252645
Ni 7.675710727664648 3.9587123052956867 8.409692715252346 -0.04495342478223871 -0.06911433829915839 -0.9237783396866284
Ni 3.0913322817784024 8.640857937208684 12.19988315011689 1.623956322076655 0.22317381128214467 1.1637666514229505
Ni 0.33833457466770295 4.860907386367442 10.15404768617814 -0.3127453889943904 0.2636987679793845 0.5889312336971921
Ni 8.594029812038329 2.5328753719483372 5.539466652577165 0.8254732387561267 -0.8431022646917996 1.0881973015270678
Ni 3.7339263419828246 2.9998411242323435 11.677708445110582 0.010529952997046382 -0.46584249806410744 -0.7118685313540772
Ni 1.1758280957474507 3.4350430467821864 12.451945628477281 -0.5718359687778023 1.4044126513479298 0.8766381916657161
Ni 2.8176992671027072 8.58631952377384 7.6347064280495225 1.2654075015949047 -1.0889730033508278 0.8229329888327763
Ni 5.783730229170501 8.174001809876305 3.5249711352262842 -0.8563748134309896 -0.21098883918017858 -0.01878036593129669
Ni 3.277301876802377 8.79625130614113 3.1726429354832892 0.6335190476098961 -1.1865965048332727 3.703361714798235
Ni 3.6476880467022665 4.457907793358274 9.012291938937881 -0.909851188082575 -1.014439550918627 0.7448447291697817
Ni 7.576180406999215 6.056805983675422 11.39225877419067 0.2113606206973005 1.9762673891788092 -0.013432985576454283
Ni 8.515218607230556 8.80148589758136 2.248453434949937 -0.5692746358085292 1.0839860916591977 -0.6203426581289381
Ni 4.626995145831564 0.42486246252881144 1.3962646891044788 1.528354221899613 0.5669853255537203 -0.00642338702784055
Ni 6.402499133221142 5.996165114599961 0.3210184000168239 -0.9799769983653834 -0.9819863154859282 -0.5361572844292701
Ni 8.138492460961524 8.835515309649164 11.53743692471393 -0.03678168760472375 -0.10089703002739397 -0.9148262726996632
Ni 0.027359647302515253 4.946104244607537 5.833579435299465 0.102232718119682 -0.36774951314441184 0.7170382484804747
Ni 7.167809191360283 6.36487036857489 2.709939766735079 0.9725472815602154 -0.7526128031509748 -0.7765711137387852
P 8.518507355779391 1.7557166836207556 3.326231146878931 -0.2723212195410729 -0.2861882073311523 -0.22831190383965838
P 1.9367988328846568 3.3542585928451127 1.440093658306548 -0.5394297845329549 1.3591566077236077 -0.39622036689059503
P 4.761596315605265 1.1303702824724446 7.847231754064075 0.4405654686648735 0.051458058669975895 -0.13889819186151564
P 8.631567222558225 1.8286264118658972 12.15241828668583 0.7479105125792991 -0.027896469299951956 0.9218530976394574
P 6.793476523201792 7.884555395928295 1.0597608511289605 -0.6879421024454668 1.1571874555435362 1.0108816583640394
P 1.763408701059975 3.239828414170931 5.700194188947569 -0.45027164020904387 0.3462185810511715 -0.3162469743897457
P 6.87902052712204 4.111456404563794 6.090735819745498 0.9426124416739959 -0.05264487988922546 0.5303255082388415
P 2.5051585300117685 8.746481578102097 10.14955580378519 1.0506483967390163 -0.2506563329731296 -0.3012283894937264
