# total energy = -340893.6997252067 ev
CRYSTAL
PRIMVEC
9.00031834220894 0.00000000000000 0.00000000000000

0.00000000000000 9.00031834220894 0.00000000000000

0.00000000000000 0.00000000000000 13.17287565994592

PRIMCOORD
 96 1
Ni 6.395635295830378 1.9915904681549086 11.419355649394554 -0.8597979801799258 0.4052002017917022 -0.1659060879089272
Ni 4.674000379473365 0.32543351476656357 6.0489718298875506 -0.8106724262978683 -0.07537780271036695 -0.10625418057424926
Ni 2.7968129592248068 1.81553523881842 4.684156338820193 -0.5178127204838116 -0.7654438934773721 1.2232092709603
Ni 3.4915115396433025 4.3419426303224835 5.17779680522878 0.4058062108068173 -0.1072240006866863 -0.34973559306549445
Ni 5.103513576876152 4.34298666726349 2.9068193515649337 0.21718751179172271 -0.3328673565552461 -1.2949150241357184
Ni 7.176655930569526 5.794099011759819 2.570528752643746 -0.1529400146665624 1.164721559137052 -0.9238642145322153
Ni 5.148569171071666 4.440325111375454 11.615604893252911 0.25988993575625563 -0.058115158975177335 -1.4310230548466065
Ni 5.700018682929273 7.823787827943017 12.073862407711673 -0.5489798901152352 -0.4993771394864432 1.1307799120842847
Ni 1.861310858490491 6.436766751178661 0.5211634402499546 0.3696585572416666 0.41936620887943904 0.16971054925668194
Ni 2.7195452252718515 1.6418380929176537 0.2707772808730155 0.49038187796636834 -0.2471372640762776 1.6595761281627937
Ni 0.494747505578793 9.150893784739425 4.806136754835452 0.3084591029142107 0.49662580199355116 0.4766298184875985
Ni 8.411409619679123 2.4117973362732035 1.4403353631759719 0.9314847071919508 -0.23788952022576454 -0.36557667386280907
Ni 6.7775908105066165 0.5881519104932219 4.67584364469335 0.021481052691911393 0.13973380038893354 0.14691026353271475
Ni 0.7514725892449653 7.4644501135491055 2.574480792478195 1.1831975064540525 -0.44993199748143803 -0.897916384318202
Ni 7.576747086936527 3.7336471070907513 3.6649440761814343 -0.1481708754126932 -0.4987333352548572 0.2047228036658087
Ni 7.565460687591506 3.942364492107528 12.629837279689436 0.7134353616205649 -0.6859392130828251 -0.7476819415082607
Ni 7.746097079022585 9.09464179438346 6.834509724460243 0.6153935416537789 0.20480662162886665 0.12190294285509973
Ni 6.848270311349081 0.5614281649308324 0.12163300372282122 -1.2099207813815098 0.20444538163470594 1.2618107853825817
Ni 1.78051499970241 6.3995864356329815 9.28762842280117 0.6482730659906191 1.1207919476336374 -0.4732056232973979
Ni 0.04010091888496111 4.806071052510717 1.4779962957272526 0.8754362009378148 -0.1317595239342053 -0.6161766996767065
Ni 5.979505571973084 2.1439568593126923 6.9718104825529315 0.5596880205613587 -0.5918638339629549 0.708019075701
Ni 3.1551066366777114 4.176057760842354 0.2715882095659871 -0.5848848315419604 -0.0759843259461143 0.17728681894204307
Ni 6.391054133735788 5.535906876185164 4.768884436742117 -0.8838915307940196 0.11155476685155628 1.0935107433201812
Ni 5.246501636201789 2.980797469121872 9.40701404700529 -0.3370294583527357 -0.19095120380301306 -0.7015679207590175
P 0.2218308490085594 5.551576430618722 12.449724706792553 -0.7400632486207384 0.2581279587598264 0.7135346062025905
P 4.069277982669044 5.987587857947428 12.710665539623964 -0.7695720567131328 0.591366325501246 0.1169682245576437
P 2.443496457878598 8.463422460041865 1.3284056027815931 -0.00963906575166082 -0.14208276023708433 0.30676423171029105
P 6.531549104848849 7.577908128017475 5.859901240030459 -0.09361155210957425 -0.006094542933512084 -1.2170044277011685
P 4.540039639560053 0.8267512528189334 12.387825016604848 1.8885266940277154 2.049684982839012 0.7499010606467665
P 3.8701369364904674 6.076943019588074 8.196492815309197 0.7382045981454447 1.0518737845056851 -0.3328187627054978
P 4.652579621545814 0.8676216989319642 3.8874346485328886 0.7515357680367121 0.05974703815164548 -0.8450637592935446
P 0.27876776359909977 5.5504513908116015 3.558415406893074 -0.7334557706065497 1.6101777802353237 -0.4333337268031247
Ni 1.37016348029448 0.956805854521927 2.7007291595057423 0.37573998754905613 1.3045846860149983 -0.21708158234147776
Ni 1.9588383092900508 6.487051530397666 4.724254557609617 -0.11387647300619742 -0.4450163053473755 0.17607325824991613
Ni 5.875110878190867 5.728738699125415 9.154437210115928 0.1916222617281087 -0.29697244243084986 0.9124068646248933
Ni 8.50983710232438 2.2707263447788977 10.175690744980724 0.7637639346717878 0.2540267921072593 0.3822101686544321
Ni 2.182910237594392 5.412836521604766 6.997365986779608 -0.46761758768665923 -0.524560066509974 -0.2240832104702915
Ni 0.6140125255155895 0.08297303582281854 8.921356863068022 -0.3484716387514063 -0.9002167503166045 1.1167638003108509
Ni 1.6980900832736199 0.9103192096917566 11.539491900157982 -1.7029077010708933 0.6730811261732343 -1.3448846711856255
Ni 4.3705726433340555 6.696227931655747 1.598594262827524 -0.5926426211105082 0.7100178512985836 0.18866060799662346
Ni 5.776026372298255 7.978674308268748 7.92102186836088 -1.1322770654551015 -0.6403615244530262 -0.3676515541139668
Ni 5.34322805865868 2.8861681208654515 4.692138721259666 -0.22618431597369432 -0.953699809836409 0.08828911145539634
Ni 0.3960509134116748 7.339759701646456 6.692453198094901 0.5669979239592106 0.06158794801512619 -0.20078773027746066
Ni 5.138461813444506 4.537690556442788 7.157231443275727 -0.2519462554291467 -0.127268063821755 -0.48905904538988676
Ni 8.380637530874797 7.062513891898427 9.147007447229713 -1.100563022181272 0.9381032409497326 0.41265640095943124
Ni 4.598559710167172 0.0814942835003409 10.332527594316078 -0.4677140040552074 0.3299098165888189 -1.1006517252403367
Ni 8.162055796829197 7.425739743865743 4.228677222669092 -1.0797982788300953 -1.1444715506387644 1.2503968871186852
Ni 7.085554707148231 5.880529069901954 7.087968592558386 1.268147526233887 0.47544505415087795 -0.07699991169482223
Ni 2.6817078864788146 5.042257409458119 2.524015106858205 -1.1774161238855851 -0.03842230853194028 0.334742719201088
Ni 2.1058585112844037 5.3542984503607345 11.484139941647713 0.5256093337100948 -0.6883347098981952 0.19112629592829666
Ni 0.9934461509601892 3.582594762427683 3.7894283807914184 1.0838755342232624 -1.2361213510362774 -0.7205061524244173
Ni 3.7128293704998154 2.4306440031220666 2.6004575116086572 -0.4788975314758527 0.49717678940101473 -1.0147069456474007
Ni 0.9516216710907213 3.307716036433833 8.351327093787877 1.256316852147546 0.41862264584519515 -0.9234101577139322
Ni 3.4323524464257402 2.9684220312435596 7.440817077344834 -0.460325167790304 -0.9701214457275422 -0.9769297268986271
Ni 4.374325776130606 6.884361588361468 5.892674999659614 -0.6439297014202587 -0.6332542239842835 0.20283895637953456
Ni 0.6595460366211684 7.520009079383886 11.411794481858866 1.0861810424279874 -0.32748475208709404 -0.5048065380321306
P 0.1857935739069133 5.548831333489351 7.953071102354249 -0.14203622326986506 -0.9243187855711307 -0.5928506233562565
P 8.529970814712586 1.7115635600036807 7.970986236242817 -0.24454070699369498 0.13772422615807248 0.06044869220436042
P 1.715262690889489 3.341260223322903 10.468260496933565 -0.11438683698371269 -1.1510890559552822 0.135557814634373
P 4.124647941816229 5.925242651996104 3.849641411300291 0.01939948757253433 1.9724202475185773 0.23383849008484245
P 6.934088347836142 4.024114384652046 10.346846200949248 -0.3628795866466202 0.2694264144917812 0.804751432827743
P 6.4348766843027 7.726674391792476 9.990572194958084 -0.6229808670827336 -0.5564468879162416 0.07954324694196624
P 2.413678402830707 8.507758028760822 5.570598603677495 0.07603163424428196 0.20218203952182598 1.4755589324754523
P 6.743794614700752 3.7776946656190873 1.5343634901594678 -0.5273165462091887 0.4195616127196968 -0.23814817320378986
Ni 5.0541738310951265 2.929936669521622 0.31566276904969365 1.1572676739621683 -1.4935486841846537 0.7502358182783659
Ni 1.6187162748017374 1.1002169288150412 7.101023554480199 0.167613300408021 0.7427611071678756 -1.950903456492724
Ni 6.75987818378333 0.7633935110412017 9.057669386194137 0.23247451985778028 1.0285482224058673 0.47544376859929727
Ni 2.652654858499765 1.497337980091248 9.328635673754748 0.22699061392507355 0.06831549654694687 -0.16654680681671963
Ni 6.270926883290815 1.6642758868308414 2.471692655540545 0.005456909349513182 1.4471420718956562 0.3920510660042538
Ni 3.9972034324657524 6.480265290281122 10.634660184629432 0.34906067848565686 0.9063879121243229 -1.2417332979064162
Ni 8.232771298945488 7.44649447822748 0.13307150844976479 -0.3200061843218618 -0.8506014012823223 1.0953159148497202
Ni 7.599085877346688 3.815171991673846 8.303271693450661 -0.34250847918943594 -0.3951037367876486 -0.8544529138179284
Ni 3.1790384834547534 8.198030069701645 12.349136247685783 -0.22565672560499847 -1.2090759168827114 0.7990024461591078
Ni 0.08649036027579639 4.8615040138870995 10.192907454157034 -0.8783541459155583 -0.6827029655337146 0.2032480188924951
Ni 8.778046592341624 2.3773711181753527 5.628651557756698 -0.7362233060493578 -0.6476508590255878 1.1855490374053648
Ni 3.627956367450734 2.6289300190472327 11.316869923157057 0.06529702143559722 -0.19571700062277259 0.1114041002063049
Ni 0.9836988060713073 3.228873246750911 12.549548138830483 -0.2293264611471018 0.20097824902171196 0.15026323916534767
Ni 3.1676710812436197 8.280959003964023 7.918966195625312 -0.3092497171363061 -0.5357435939306192 0.048480464098890695
Ni 5.707101933554896 7.550979175194267 3.528762957704792 -0.7297456687448142 1.0403357019590986 0.639217383546254
Ni 3.1091330099995873 8.168833036627284 3.4641109701329498 0.864197137688886 0.43010853499760765 -0.2028980917522441
Ni 3.1603628226565723 4.38332609458756 9.317267371511768 1.0991453158981392 -0.41361773643143607 0.4963982593637773
Ni 7.36604963185922 6.253232257204443 11.383788190916361 -0.13438282048966535 -1.337577081780619 -0.5957153464985611
Ni 0.5681694034550913 0.35431823679046787 0.5306731767315729 0.36562038261655094 -0.569723807530806 -0.6043282849785527
Ni 4.580865084080799 0.3785929957007201 1.485584464218311 -0.5098150469903155 -1.2974647871407654 -0.40761472477046573
Ni 6.060535439041046 5.535195851027064 0.3143460224594412 0.513071092033768 1.1825609013113183 0.7327751995997573
Ni 7.799468967472325 8.894006695341028 11.16995322482496 0.8148751515253063 0.04681387502974518 -0.42615083590144026
Ni -0.03261895415169477 4.8462574744210185 5.611856063484174 -0.13906659911857985 0.5895763234803587 1.1558805638066545
Ni 7.940485957055889 8.948152611178067 2.2072335982243114 0.7112481241612589 0.42253149398129813 1.3411501438438578
P 8.376722392346021 1.740400580339763 3.549089276907978 0.12538267387358407 -1.8141534213224626 0.04097721374331007
P 1.6874427065390425 3.1536665857245985 1.7213001045104142 0.8016388553406903 -0.7802778731664111 -0.9373619919083341
P 4.595697608897861 1.0421378738123135 8.293010430377887 -0.09313306981125898 0.5701156436525859 -0.6005269089545916
P 8.461145379472255 1.6051887961609348 12.33803165477359 0.18357856548802576 0.8914477458747229 -0.06141157033826198
P 6.4578184960494776 7.697432357125831 1.468880773194049 -1.2600050996324106 -0.9128110420418473 -1.0836881008028045
P 1.7124455912124623 3.3482444704454997 5.895705406884071 0.7556438766678146 -0.06537878251612611 1.3703391067029884
P 6.919021814739201 3.7090222357925238 5.938213910956267 0.3448996051294318 1.6951445121857065 -0.0024924274045505465
P 2.415478466522098 8.325870593064227 10.19559494924828 -0.4085626905060319 0.04121992588173546 -0.26440633556937043
