# total energy = -340893.39002183446 ev
CRYSTAL
PRIMVEC
9.08161443774722 0.00000000000000 0.00000000000000
0.00000000000000 9.08161443774722 0.00000000000000
0.00000000000000 0.00000000000000 13.29186071330176
PRIMCOORD
 96 1
Ni 6.422090842304893 2.1939908877273657 11.707297974136797 0.3602295506182828 -0.9274028238130931 0.3787659188595735
Ni 4.46918048948274 0.43254639421733526 6.0931883720160505 0.14943611527836198 0.27632596982509183 -0.30461324680555923
Ni 2.3943313005959332 1.6166363361540979 4.870403487597401 0.8881055688753672 -0.7068052578985569 -0.4066600741666803
Ni 3.2350617503378922 4.062224268220121 4.525785283651756 -0.09201926792178991 0.6843081052373053 0.2664025400637928
Ni 5.078157222271256 4.245727368057939 2.721149540388252 -0.6097368575886337 0.5730613565444711 -0.1109562140356089
Ni 7.5175696565697985 6.259566271647782 2.522661776849929 -1.8885336360062508 -0.7573765430882052 -0.5260703325069134
Ni 5.298577084498499 4.488787694894492 11.368927012712106 0.038204278983863235 1.0445667093213107 0.47191467240011625
Ni 5.733068760512591 7.907343463455837 12.500131081561888 -0.525823763713746 0.48983860386838857 -0.14210872837901334
Ni 1.8595241123177346 6.204695157660843 0.1843431491664829 1.538297963375886 1.913698822417969 1.1122625700063877
Ni 2.8871451040552625 1.5800555934961382 0.38591321261992795 -0.9163041427967703 -0.11370163799122998 0.2356925125744457
Ni 0.47565046047291465 -0.04942032904570124 4.5760420293803765 0.09063832841386325 -0.07142781692368343 0.9167617991594791
Ni 8.66376928705732 2.4660942172998053 1.5437963399866619 0.07249996694193965 0.5970294373242944 -0.059374485303575156
Ni 6.786472455429351 0.8507501948696965 5.0276997728651915 -0.2262038563577201 -0.47524142278050413 -0.8368128321386621
Ni 0.5587799257146969 7.422866581982608 2.38776347708793 1.3656427296685834 0.6264644547559598 -0.2562603094234684
Ni 7.455415087862977 3.781420752087025 3.767631228836815 1.2318700319590914 0.5462534923230077 0.42178356007168
Ni 7.772508734994386 4.004737649296366 12.861669241228993 -0.2004077212302226 -1.0180619781625628 -0.2851867626498314
Ni 7.793460019332001 8.846382388687472 6.924807238066665 0.9562336320018564 0.008273038642069623 0.6277687753896801
Ni 6.8600698582347395 0.8400565939561544 0.6238951007041633 0.7858430259590143 -0.8478721752766173 -0.9194038647680165
Ni 1.9553896335435097 6.385555507718753 9.176647101130907 0.7434187953565325 0.46073731562705816 -0.409024974854431
Ni 0.2745517328049582 5.062700314623826 1.3505059843488232 -2.459607015586416 -1.5900064474937712 -0.5281881501808645
Ni 6.545064982407036 2.0413380318838596 7.186071660895739 -0.044485998227516935 0.03481325102444327 -0.21293362161137525
Ni 3.4676418941984544 4.205550306111859 0.21573465737688588 0.5228327994062222 0.5071099893543266 0.6000137167635989
Ni 6.098040678570705 5.746981793718151 4.418480560973159 -0.9246795113446591 -0.6727021455672608 1.837184334999997
Ni 5.448687088320101 2.834471740744397 9.479090287970404 0.25719207720911835 0.06062506988122463 -0.3155306650490114
P 0.11248215102748021 5.578844785384122 12.431637546029034 0.6389528170309577 -0.13488315716485158 -0.32006454836362297
P 4.006917236743712 6.169485738771838 12.36500574144079 0.4026450394700163 -0.41593070083532885 0.8347055559876722
P 2.3408769184497684 8.367581516191706 1.376810880353982 0.15625828040651796 0.28935272110206295 0.166957411991577
P 6.239296108387463 7.826998421178041 5.7441574116509635 -0.29837189388153773 -0.026132435420993704 -0.7308335024923542
P 4.70237818312005 1.0407166796503324 12.713505427365584 0.9338190117520822 0.10703219639085437 -0.9561960938957015
P 4.132525045011398 6.1829356096448365 7.948665716973212 -0.08844003521096382 -0.5867347402665057 1.206172112972355
P 4.662264692474517 1.1531470654759381 3.9937252837186503 0.003961298640593178 -0.926594726089501 -0.9653389367372344
P 0.11036341039637249 5.678760706616216 3.6064271249082207 1.0429371441376878 -1.216257779343131 1.0046313065789536
Ni 1.359681139340714 1.0707223335087979 2.5933221855700186 0.024417509612416014 -0.009485313782615924 -0.7798549266963795
Ni 1.7837562036793642 6.764049949564777 4.814338141321604 -0.2277758288305303 -1.0894039202406591 -0.5842466837373292
Ni 6.296255993678109 5.632716921791029 9.265158331044761 -1.4612970232397995 -0.15267724792347898 0.175815119492523
Ni 8.618333970394517 2.0402573197745504 10.3379303849155 0.5931213605191398 1.9391059496371637 0.7523289533619688
Ni 2.37400664764943 5.220774894242605 6.811533170266649 0.486666119677678 0.8843389027440834 -0.04735046425950555
Ni 0.45759257847165175 9.13446935954045 9.55079962314953 1.2036719722583205 -0.8868290161557888 -0.9360972662632975
Ni 1.6539436079611727 1.1691851964426603 11.710647273514219 -0.8661748302405469 -0.09033519535114765 -1.3252576409833177
Ni 3.9248103612793104 6.69344947949949 1.6023473241138708 0.3067950849482265 0.23670604144062457 -0.16363348982466655
Ni 5.539058232855691 8.030771684276177 7.843991937975849 -0.022355227766748597 -0.5972253553851844 1.0920732395427064
Ni 5.173668560536837 2.9472653911445605 5.035395532877196 0.968417575662558 -0.023988135384481267 0.07498468103700634
Ni 0.8732626087164731 7.554586316717227 7.0141149255602375 -1.1880643476280506 -0.3684408827844816 0.6098769827109238
Ni 5.297850555349384 4.2191908908865 7.34241074400957 0.051371412493440564 1.8235222641318727 0.39366289057606396
Ni 8.058388873556925 7.166274649743782 9.016799790388285 0.8991998790163159 1.278151174413818 0.04005213082587941
Ni 4.913580206767892 0.5241989545396775 10.435533218969098 -1.0501285196798045 -1.0345409496541926 1.2948810855739894
Ni 8.196910737450139 7.1045015088402454 4.876411883660586 -0.16964061525069493 0.6099965390079236 0.49568169291272696
Ni 7.038187560754739 6.193143344189908 6.950500033263695 0.6163186245712095 -0.9935485664022308 -0.3586616919105307
Ni 2.0520815816764033 5.261978178611812 2.6609239065723322 2.433035178635158 0.8366061154444947 0.054231764760371115
Ni 2.230934894959883 5.239728223420153 11.400641826393866 1.2176263775558835 -1.2951515656265566 -1.1512492356822301
Ni 0.9773451746187432 3.4950138798913764 3.7540469500712303 -1.0856287694689433 -1.091490627566359 -0.08657907074282509
Ni 3.4923075588109223 2.338933452975885 2.53726955355433 0.4770931312772623 0.4172823297672168 0.8128576068746453
Ni 1.5137416454106314 3.5141306781274753 8.196040718794073 -1.2019619315457493 0.1396391837925982 0.83298960173783
Ni 3.793263177217606 2.603462716168796 7.051983441135005 -1.3476149256325953 -0.28304117706173837 0.0901801578305221
Ni 3.8950135845512155 7.18797062645924 6.018793603469507 0.7281646974109394 -1.013489785410848 -0.9370061512308122
Ni 1.1240949811256868 7.2567456920373745 11.377500056671668 -1.482354358130731 1.6723002605976813 -0.2563778088379391
P 0.289794314353399 5.669960622297555 7.970676825707098 -0.2907997379612347 -0.5277060683381234 -0.9394361008285435
P 8.600642985613558 1.6033771791827418 8.136785001392223 -0.036287007356492346 0.14138213462563393 -0.5792240337117572
P 1.9330306989794839 3.2280507440489288 10.349601167534603 -0.5160923953585951 -0.107793242926595 0.3958619551099118
P 3.871410468819329 6.049699245311439 3.762966003538058 0.4408590886458923 0.5259644030566684 0.33986898468405985
P 7.236566344920695 3.818718942279736 10.485948892949088 -0.5105192721461917 1.2173047325504067 -0.6673789335821345
P 6.4217003328872435 7.795031138616963 10.355196350144228 0.08889717735304045 0.004290399845237772 -0.3763835346703259
P 2.2606499371587025 8.661526128309427 5.855888513170546 0.48563922107506036 0.9383865765181064 -0.235769131448652
P 6.9236229955536075 4.032972388353863 1.6226837831590468 -0.010638453550452646 0.38453470302255066 -0.26209491382737443
Ni 5.360758898048412 2.644466205021996 0.8035303409843785 -0.8051550960240649 0.9641081496539268 -0.49551997052388214
Ni 1.4768975359361174 1.2254548790416468 7.249526716779477 -0.4814910032346418 -0.2959152048109291 -0.7019918956703135
Ni 6.9577335391045745 0.691169883589375 9.305511576309502 0.14572832740947161 -0.8894276301209005 -0.41834470959346015
Ni 2.8829948062909407 1.5325678319870837 9.2142368111447 0.05499718217148592 0.4338996266089237 0.8653546483320969
Ni 6.461486885415675 1.8915095581075394 2.817781549866344 -0.8928130016533656 -0.4400458487159777 -0.1789292396414725
Ni 4.260003665838057 6.997320296116999 10.174546693539561 -0.059233074629704445 0.22562870058054044 0.21129711444921676
Ni 8.125066086216991 7.180351152007892 0.2647444974533369 -0.3927982285829235 -0.06009825084347714 -0.03519917360895228
Ni 7.758459477573367 4.000696330904412 8.177006563248685 1.0436951053496348 -0.46857892315866395 0.03972354384186707
Ni 3.162118223766708 8.382066691102194 12.45140277153072 0.5713623715754934 -0.6813785902953361 0.6910721634340162
Ni 0.08905703493712744 5.146196677085911 10.099261926785353 -0.42168071594522855 -1.351953662217265 0.4084446768709288
Ni 8.625481200898939 2.4079718853705745 5.829570902905278 0.4765521711721277 -0.12428712681656014 0.1506404199991083
Ni 3.752777340383151 2.7962381442721997 11.445089063413873 -0.22204483988402404 -0.9936082159955727 0.30822076165115947
Ni 1.2848758818249213 3.3729297379969 12.603435353113168 -1.237799767179965 0.028959877567459803 0.3552477811329753
Ni 2.9072517982570307 8.479666800671483 8.140028045881586 1.0390010423080753 -0.7253051164749573 -0.14538071426206575
Ni 5.592567104688039 7.830594740466161 3.5242303414616156 -1.0422349758643406 0.9490553690858623 0.28125528880590916
Ni 3.0335134827589205 8.484334750454547 3.5905306671255763 0.6492549702879141 0.23676106304827613 -0.14863084576824726
Ni 3.624517700721194 4.415889576395126 9.382099554724938 0.10973879668874004 0.40843490667891597 -0.4900126675524077
Ni 7.308583546826758 6.0788421458053294 11.497578978114586 -0.23831015270295092 0.08753809222198473 -0.4289733929518999
Ni 0.4672617732849412 8.974151621173776 0.36760921886940223 0.6022168950625049 0.8446701233995516 -0.07032429944685953
Ni 4.602580322874688 0.09901956589437214 1.444240050683381 -0.5779472238818627 0.019982613769513973 0.5421050173722728
Ni 5.944488742905167 5.665310835743217 0.3036247048682467 -0.28839035718879363 0.008852822404939592 0.6155735188750688
Ni 8.099156240436663 8.954598905448208 11.517317866934615 -0.32050112168040934 -0.44633528126911515 0.40930599642995963
Ni 0.05746663937215412 4.836123117857829 5.696572476868216 -0.3551333670422981 0.5088665670341171 0.8585101146064376
Ni 7.762255592377495 8.78436404419611 2.8116805213366476 0.3410555487929932 0.5937011442820097 -0.11278452549359931
P 8.538143315560907 1.6457338285761687 3.6813141169532893 -0.34229842006115885 0.3111230228996191 0.04876251411568376
P 1.7899952727473925 3.3409442922070953 1.482148525361349 0.16694172826229314 -0.4934641164361179 0.5911794063014206
P 4.926040181675221 1.0267309935298614 8.281360669420437 -0.9229874683542169 0.4055958945682241 -0.3979460913324502
P 8.620767843044053 1.7289304977642443 12.716522339657285 0.036488581844337155 -0.35749826773004884 -0.5345781128676084
P 6.337295808988764 7.861190699258283 1.4309218632186596 -0.09200718373693187 -0.8016463115398581 -0.36809969739497894
P 1.7710419435698448 3.274930037395599 6.007349861209503 -0.3402430801940269 0.07374386665136978 0.021059391773460508
P 6.921734019765907 4.012702225093544 5.958674224541645 0.47389596449620314 0.5390885991434522 -0.21154651145586148
P 2.524561650574866 8.632101697770253 10.37549375824764 -0.13622553012535896 0.27280895781076886 -1.2236962378990475
