# total energy = -340867.3699598377 ev
CRYSTAL
PRIMVEC
9.26433879065995 0.00000000000000 0.00000000000000

0.00000000000000 9.26433879065995 0.00000000000000

0.00000000000000 0.00000000000000 13.55929627384699

PRIMCOORD
 96 1
Ni 2.2533095220030837 8.977394361486045 7.244094951408141 1.8830618142584021 -0.38295681701246953 -0.12065107272586964
Ni 1.6716202221497403 7.842021857744458 5.17382096959112 0.5188231640261969 -0.09592143118967351 0.004434381622269783
Ni 6.631219108105472 9.196736845134637 9.407304147143089 -0.40373158766597567 -0.42192111409080885 0.5780711510542366
Ni 9.776564012904295 2.5667498940795657 8.33900823507074 -1.716166365853012 -0.5622483250893672 -0.4942575588716907
Ni 1.343292057742489 2.7064190646947948 5.681656813998027 -0.014565299408684592 1.1246622292223212 1.6134029720408407
Ni 6.398183931821611 1.9572768423905185 7.530534408271166 -1.151280860251114 -0.018434809666419864 1.2136365396702002
Ni 0.2975529575973063 1.4338602331162271 4.067951678952562 2.264994046661099 0.046849870474003186 -0.24943068809614458
Ni 6.994557208553777 3.1370255286239437 12.924626148251104 1.283005417182326 -1.6051988389634935 -1.5705048871257339
Ni 1.5462088688319928 5.160570185913025 13.138252534906487 -1.244829677443553 0.21297604481353644 -2.0372164180583563
Ni 7.307858615549388 4.234923782223676 8.378017586139295 0.030336960420644526 -1.1193565007386914 -0.23960573158592283
Ni 5.38460042495637 2.4983883386291956 0.8430659411641409 -0.6126943975550609 -0.1361082878212043 1.6270439598630428
Ni 4.5433984687436615 1.6383612461276738 3.14110554339835 -0.25159401429605055 -1.2972195038991787 -0.945659713140752
Ni 2.4302861846631205 9.443696322521886 2.71834041576588 -0.3520452150352776 -0.22386081004684028 0.8907039257301628
Ni 8.16445790272273 5.311708607869569 12.670144954253184 -0.848287408437165 0.4214426317924936 1.465555027185205
Ni 3.558525147586605 2.7209918695089206 10.273593932622582 -1.7812034487590036 -1.2105152204323992 -2.1401186514412367
Ni 1.6601324421309762 6.453371597605302 7.436758918830899 -0.7096836078876165 0.5035430979386748 -1.0110904319407361
Ni 8.878988555551118 7.781683219629773 6.616339653679555 -0.4938994042013236 -1.2697922609261616 -0.4210047729241266
Ni 8.768817039435683 0.022536430381971766 2.4037651621956084 0.5047777416767243 0.24919260394340956 -1.0245452718940613
Ni 1.782199369169067 2.3452117621531943 12.558010324761959 -0.6811438485767107 0.282724674262584 -1.089495708623517
Ni 8.173407253930897 7.228315003258173 11.503029120304907 2.6255401000785366 0.8432722146107605 -0.6416514469090433
Ni 3.4079425859535504 9.162838629740559 12.801955186328156 -0.8003684732686991 0.06745546253949673 -0.4992357288125724
Ni 2.849923671542095 2.3715410128091032 0.9683550052107207 0.3940051044068311 -0.7800881257531082 2.007954178759129
Ni 6.492383727975475 8.549937772723332 6.975214195730248 0.02300494553560554 1.4538994452241476 -0.5435255518688833
Ni 0.22970742581390838 2.7833686621430633 1.7198207236671792 1.330870873405037 0.9182057306948572 0.9677814847404559
P 0.5958322393506378 0.4032859290296855 6.1056698480567295 -0.1361442832654623 1.2233900195125382 -0.8345502613567306
P 1.9035251491091734 4.07884746772681 10.847531760264877 -0.12749097846583848 -3.3854520079940857 1.5017957546847942
P 7.1895993317271945 6.812188700755901 5.162688013745517 0.45374185814583146 0.3575383769393649 0.9954815217588857
P 7.450992648847696 4.383709062144119 10.761267796662686 -0.9221068655214765 -0.02640445813545775 -0.5685446996210402
P 4.048738366871179 0.3642033896852038 1.2348761338154048 0.5680438487252217 0.9505777192676597 0.1367322945584484
P 0.2221227116999068 4.45369187687133 6.8602715451715355 0.22771695056813684 -0.16276882783152613 0.6000494550975408
P 8.771744570472723 4.590387194755895 2.7700965704859013 0.9773742706352135 -0.29578202166717443 1.0291650300542599
P 2.3981296649493067 2.485510907801711 3.763125289022407 -0.2029505422567343 0.5552125012885083 -1.4655439714416114
Ni 7.740188246481351 7.172904993345087 2.744116585399918 0.04889749703165128 -0.10179871590605695 -0.3720273145841593
Ni 9.147256012005428 3.499529838587018 11.659855846238484 0.8399963720729662 -0.636808002773813 -0.3648567649776491
Ni 6.871776927433876 6.344321066475568 9.946503483868966 -0.30008913368296064 -0.5371936961135845 -1.9177519094414197
Ni 2.2896072011268873 4.915899000190805 1.7189934182190538 -0.8104952772900558 0.3279321240371578 2.5108385600678824
Ni 3.124722486797397 2.232168301033068 7.091972656679022 0.8883590796470701 -0.039235805572171135 2.1887726650035146
Ni 4.142437888733903 2.2333170790349444 12.380261016252273 0.5942284775403895 -0.6670374910823157 1.888286295882135
Ni 6.090746851238806 0.5510141479016265 13.088232517263494 -1.1465515730962448 0.962527178320052 -1.9529860500533658
Ni 4.494538346309016 7.511488780720702 0.7346592815757816 -0.1529014481191431 -0.705791729032378 0.29880126810947244
Ni 0.14468766290245846 5.995370484066891 1.3704791861643149 -0.8014192831307165 0.17602466440016779 0.09036553436845082
Ni 0.15595680452731683 0.036609887338829986 8.30753634998869 -0.5378431567721254 3.149971097209814 -0.4886001034755972
Ni 7.121089546857227 4.137333238096533 1.4698549683637299 0.4594800461811893 0.103370431268551 0.12317126804456208
Ni 6.083946826614795 1.416554448378283 5.1386072180981195 -1.2438308038653934 -0.18285094329338186 1.0264753990372386
Ni 5.754840457754661 2.227054386056973 10.74331536108175 2.2001443971755656 0.3368947325470843 -0.7994894130978554
Ni 6.5132562831224705 -0.20870424349089262 1.4712650007176458 -0.2897831237712622 -0.7661771720989708 1.6339689691176504
Ni 0.6025516642277421 1.441308761450974 10.572400355249355 0.9931934970556573 -0.6690213542815638 -0.8298495134469515
Ni 6.02460873708239 7.648267477653791 11.794051645535095 -1.7947194809675673 0.5808780243754126 1.1030904165888165
Ni 5.06669464161453 7.494405340112154 8.645081604993253 -0.2002488270548551 1.2162721775208345 -0.08085528088517042
Ni 4.210864294555346 0.6218529875270103 8.755766365474043 3.1670267671405194 0.3102164519249496 0.14365858936463646
Ni 0.826544845916188 8.084729003657019 10.025757122358094 -0.07823121299876204 -0.7944546788874253 0.7696769577221132
Ni 2.259257227464411 4.7441844819264585 4.2557481628093035 0.27444495075229514 -0.07019265896500168 -0.661601407668409
Ni 7.417159283824692 1.7556848317386622 3.364277904675778 -0.8398151093000957 1.751892358499712 -2.036286964265551
Ni 8.273508433852465 2.0459087709707715 6.270876168366895 0.6239781979989963 -0.9083018413175841 0.608111920390701
Ni 7.940909409293076 9.227559300072079 4.879719904602678 -0.311396845386296 -1.6997920382600469 0.048697722316019355
Ni 9.197116683022355 5.646003006415597 8.823535929679899 -1.8525582463529062 0.34361276799720825 -0.6383470651261587
P 0.46441944740695895 8.823828682783603 11.979326376390944 0.5710960052879841 0.6637984153197278 0.4858135418693956
P 0.6281499585582635 7.737881426138874 3.3543937816902782 0.054741871627570236 -0.5431260024376194 -1.1459288519105812
P 4.6694212684172465 6.468296447290969 10.439722054635867 -0.6882120682774019 -1.2743050611948505 0.987990355588163
P 4.6658267049920195 0.6000224997558692 6.64271244672747 0.16105030247852262 0.06804193117058605 -0.6192494250647593
P 8.058890762953526 7.747006799782811 8.62594981909265 -0.7633492157318724 -2.1790994035798086 0.6706336930740063
P 7.80376940314972 1.6731303093618841 9.45758171340263 1.0576885914152494 1.4617145703931922 -0.6816323581773551
P 3.8069205974761995 7.1389882492735595 6.896773039747285 -0.9499511414272543 -0.2963006131748058 -0.3611104105613394
P 3.3468628007408805 4.266876486485545 0.14381681506232635 2.5080566264473707 -0.9186890980891791 -0.945769756356055
Ni 1.5576688558345824 7.60939431236449 0.6634155903481236 1.371116351188645 -0.6651775550554415 -0.5325937354477279
Ni 4.721107014162959 5.687562829935093 5.599134716806786 -0.3079140290440181 -0.258606955278774 -1.18800726913787
Ni 3.2011810742932503 6.655880777790914 12.165576642114516 0.4217629912463898 0.4243654618662433 0.7149314865501171
Ni 6.499730348584249 3.9209460785011556 5.720870906952401 -0.37044351503680717 -0.7456849656828899 1.5489191905351583
Ni 2.9220836058696373 0.9642786961718044 5.214701717082088 -0.05999052162101927 -1.5086546865881567 -1.2200594124774085
Ni 4.269998568635806 3.1436958525058065 4.9385401176003665 -1.5217755402408308 0.5719275000503441 1.3656807819953707
Ni 4.014969852219248 4.474314294872756 11.643299546503377 -1.4745112079372282 0.8102798188451401 0.2619043950831231
Ni 1.6352669569935874 5.878537908408318 10.177485682691408 1.1991612288721605 2.5824481539850686 -0.02303271344974743
Ni 4.944136704624023 5.0541692556585875 2.2365920227741647 -0.30325519011576807 -0.6942870708268882 -1.3610921341834237
Ni 2.9261599149085535 4.571358243015136 6.5658453018938525 -0.930817763031913 -0.3164066398960615 -1.1893663542689257
Ni 8.305702010921177 8.414613576970039 13.487445842989754 -0.26448861087053155 0.2331355504805469 1.3771473878740734
Ni 7.75705860729923 1.0179284817271765 11.570730128404197 0.8172655061343538 -0.28372689027485326 0.28055286342224584
Ni 2.254801080537778 3.875069073135898 8.635549526879297 -0.686622869413411 0.25877022032951563 1.24879071897383
Ni 5.5098820775319695 4.834317233380131 -0.24365766706572664 -0.02168674094481426 1.5706992625247271 0.8779273427907848
Ni 3.1745461004594224 8.170683538345802 10.41368833638528 0.9459965276548804 0.18523281326199711 -0.0063064018340020424
Ni 5.515375830395782 6.865347476358859 3.6545694735805787 -0.506264867745212 1.3793508232832954 -1.1827442209667178
Ni 1.245006688210984 0.5518155132013225 0.7235837646302719 -1.1521763754821899 1.1201139477300064 -1.449657382118342
Ni 3.5046437535631125 5.69356612142877 8.487725885318492 2.3312886561232755 0.37697128885299597 1.9721837060277387
Ni 6.885738285892165 5.126356983002304 3.7278846709471036 1.7265518228523944 -0.13749436953545352 0.48057080541321745
Ni 4.285470014306238 8.170794710410501 4.99200368994737 -0.8077601377470799 1.2722697759323767 1.1572532757844651
Ni 8.697666918029146 3.6924782212086265 4.785888829130061 -0.22253437792593286 0.54569813404017 -1.488051151405192
Ni 5.317035602636334 4.386997902391426 9.835384225901983 0.6957163470742469 0.33697700784824547 -1.750515018536211
Ni 6.30050074430722 6.253058065697469 7.140379752950026 1.467882389766801 -1.223097427972784 0.16356689825278928
Ni 0.09527445944594165 5.892934690786672 5.081346193307817 0.12621725395973746 0.7213641295493383 -0.34285789210905465
P 8.306878581939229 1.5214267627431273 0.6926158595748508 -1.909652934483369 -1.5699757540951413 -1.3234439848133464
P 6.582321928315927 6.808760895427722 0.4726313572526301 0.7855167529678472 -0.1417886260354332 -0.26606598265998044
P 4.935650570352098 0.33777315773719463 11.120521250167224 -0.3792459438197856 -0.7382426504722318 0.07034563960309821
P 3.4414239061050123 6.506002305900945 2.723953678599242 -0.3425683858930939 0.6956839511744148 0.7440710842285508
P 6.15081682353047 9.036065418630265 3.5520206553679166 -0.35564141702696817 0.004366761609127963 0.9847042286377233
P 5.711251744054431 3.4488909631172087 3.4910446307489647 0.8114638118509122 -1.3921569739090283 -0.8817654855899524
P 4.855782706205515 3.713248868629649 7.348039905466632 0.6371964964614832 0.7216574924200411 0.13741158001366013
P 2.32206944401862 0.5257817949507351 9.232755667662824 -4.03588248664734 1.184104334539038 1.4024123330884495
