# total energy = -340891.64927178476 ev
CRYSTAL
PRIMVEC
9.11061046395094 0.00000000000000 0.00000000000000

0.00000000000000 9.11061046395094 0.00000000000000

0.00000000000000 0.00000000000000 13.33429932861470

PRIMCOORD
 96 1
Ni 6.580147637459352 2.0352375296501073 11.65319073282539 0.7227507254842198 0.41901165375349775 -0.11365921478906878
Ni 4.594198511312535 0.1411288250107343 6.157872656923896 0.8661663456001146 1.1691893651004186 -0.6314945609806996
Ni 2.925617506429513 1.7211765600446671 4.568517522071301 1.1580251209534829 -0.9847615642382203 1.8657755163741285
Ni 3.754063552152473 4.274470741895811 5.097782958529288 -0.6994519028572793 0.15051572149578593 0.023484970495817617
Ni 5.168212533997345 4.288537524707102 2.9575210427304044 -0.1947628642396194 0.14930293213460738 -0.669591624962737
Ni 7.633407111065344 6.367187114004747 2.4922877109567385 -0.5636351781345649 -0.7471322396523777 0.7307278301524255
Ni 5.224379448525587 4.548572573282133 11.514273964075395 -0.09777185413485097 -0.7615664127998367 0.05800820108366784
Ni 5.691498676699471 8.051748129931164 12.629661424744231 -0.6521963123044252 -0.8540029707647033 -1.1599102537913377
Ni 1.8080280111716298 6.677458069588492 0.33567133801760385 0.651986253176148 -0.5727921620434845 -0.5865645332372285
Ni 2.4215820839866207 1.7004590314741528 0.28333907950313963 0.5704755980951659 -0.7077426821111618 0.11533840226370458
Ni 0.7566125251569631 0.06053909656913406 4.829283241618785 0.4343590827438455 1.0215998161124922 -0.5666832209322692
Ni 8.90839151555111 2.308027433105842 1.4556924552523867 -0.5646862451068985 0.40614508220347467 0.1872750405030065
Ni 6.923143906422731 0.372261372426091 4.518620529777989 -0.5809420448441285 1.0032909905009753 0.8508492556270701
Ni 0.7262085953656172 7.508719293995837 2.4408300710626656 0.47744485818972615 -0.29284093676097955 0.4902584650146267
Ni 7.817778538365914 3.9284679714248374 3.856746511369578 0.3716372782345922 0.014039765922517756 -0.7068124569874086
Ni 7.770093602333342 3.996906878470442 13.035371493033905 -1.701905999279256 -0.795203898348624 -0.15824857136366938
Ni 7.753302746943957 8.849846731648679 7.184947324520866 0.5457436425661246 -0.04712009341625433 -0.9315685251550087
Ni 6.918889251258954 0.6324403686490614 0.27075003773588513 -0.19458237279769713 0.6304833461073658 1.2273878278180217
Ni 1.6380604592756247 6.705454976051636 9.296833332454435 0.7945017300752768 -0.1322979129361786 -0.4497144821539933
Ni 0.21323475283454074 5.091956723031995 1.3885536323435514 0.05475832668780247 -1.1235150029917553 0.716032947144412
Ni 6.352500809670679 1.840680439666231 6.851869777349359 0.46581010216427515 -0.667929663879282 0.9779018610039093
Ni 3.5814994762271817 4.450214420930649 0.8899754656674747 -0.5286522343014767 0.4078342969804396 -1.4472171481079656
Ni 6.062929161436189 5.485143345950943 4.827163202525399 -0.2747933352306493 0.8256516733155199 0.22455269390754232
Ni 5.431664061558279 2.518974511611422 9.66269996727998 -0.688330339022821 1.2404857986525604 -0.5093545624141292
P 9.096871828245394 5.70921881437302 12.663370684071806 1.3538750476096941 0.6058722324269049 -0.8249235369002439
P 3.957713031544165 6.129172411320187 12.607487109534128 -0.49994123952002933 -0.21384302079952205 1.2311069285408218
P 2.4102393737534236 8.55575622054217 1.349151152433869 0.5413082325025903 0.5954821474418325 0.39583110187197634
P 6.263581249930916 7.8559337756804775 5.913002219740958 0.7791154774271937 -1.5038624074058358 -0.6193831224291463
P 4.6484704188299295 1.38907658139366 12.437034873152657 -0.8096815231395088 -0.5802100517741104 -0.14110496970484732
P 4.070921479221039 6.0263318385392 8.381793665885315 -0.14961480694807136 0.4557941126891699 -0.2732475880100843
P 4.773094461625033 1.0722550967676105 3.409273403956229 0.7045830534362575 -1.7449791763196465 1.1037607031829637
P 0.3415066841255257 5.591272849169027 3.7671800982751513 -0.4458004918115678 1.050915277247158 -1.859312020136972
Ni 1.6693371855652357 1.1609377806310175 2.6380173943351553 -1.2934384395901917 -0.9548768608636458 -0.7332228286601372
Ni 1.7551773589123711 6.7931901564096195 4.934357736126021 1.1143189383147842 -0.9082954135596809 -0.8588176185445273
Ni 6.2044716081694835 5.639950841760169 9.280926206296073 0.09416022552419268 0.5471418084652319 0.8151111787955123
Ni 8.592900180076905 2.324645186893273 10.08015725691478 0.12688574078167178 0.5391323078971941 -0.8234387248246012
Ni 2.402677566931292 5.3702494353076915 7.123249358279713 -1.0890059134712922 -0.9204958122806147 0.2823796322183395
Ni 0.6607597907284752 9.068164294153181 8.967783586242042 -0.0780355520481882 1.1610579942425359 0.4558231661548924
Ni 1.2527271827189383 1.391381565882816 11.389265453511744 0.27722071372521934 -0.6877808942772542 0.17371915619544276
Ni 3.891223795173183 6.865674174574533 1.7798224717250795 0.679986595043816 0.5472791053740446 -0.5938003888640354
Ni 5.566437324594171 7.759871497207521 8.108387885151055 -0.10324547565491252 0.3063906504209562 0.33627535379553053
Ni 5.440382915930303 2.565201749943344 4.853564841067393 -0.2744616629228434 0.38914211988757497 -0.49287173426775766
Ni 0.7833794991851827 7.526357436173723 7.002561099276369 0.12579919258571237 0.5082428174071891 0.07825666692005877
Ni 5.271335535707834 4.568843681931822 7.154011335068782 -1.5819172427277335 -0.2896273149196883 -0.3038136337223994
Ni 8.128231706162241 7.527049842581532 9.122207525343786 -0.0842373099835259 -1.8119551281195632 0.25207249659436587
Ni 4.809126926663021 0.14465098707993432 10.551471010222292 -0.612886458961209 -0.06963524379963491 -0.4703681538486028
Ni 8.378281525487807 7.491017377543545 4.894208186144755 -1.2167840841602464 -1.5714027163496551 -0.10091708463205201
Ni 7.247007893065056 5.862286183552092 6.931608574758204 0.3742405201853942 1.4930300926770221 0.17612905118851604
Ni 2.331159273493061 5.126185287165426 2.770893828238074 -0.6300457443493149 0.5889967968278049 0.6434388778267692
Ni 2.167997347736974 5.235321291891105 11.575412538823922 -0.504159391366435 1.2068249160650053 -0.5609355198152146
Ni 1.2715679254998633 3.159760199596716 3.8965890337726448 -1.475362243083614 1.2195547049268478 0.2437225819677738
Ni 3.705422002003847 2.4704513994009742 2.3126875104426134 0.20044680199827414 1.2497651670719572 -0.37505838810099923
Ni 1.0628073935452609 3.4407040995654716 8.129602853061916 -0.34661838759275143 0.20474491515299575 0.15375582569963842
Ni 3.712209406922507 2.7112995019911748 7.1801870304671755 0.2552012720313347 -0.11958457913456826 0.13841379602592935
Ni 4.001298192793655 6.728550373996339 6.17946115987055 1.5258029162326692 0.5653771005263359 -0.7347017271985089
Ni 0.6574016196505985 7.516909732951374 11.346342633654988 -0.1327663679321649 -0.9232332658164357 0.46672284378653167
P 0.07211048312912101 5.644761244172321 7.81260644471179 0.9770839930883043 0.2179344172600763 2.0629102232800345
P 8.746623513221271 1.6325029867918894 7.805031883034777 -1.6284084443107374 -0.3435027247819052 2.3205113630021135
P 1.6419598006248681 3.3508461469309143 10.378378518880513 -0.07440772548761378 0.30699563099480676 -0.13942141135483732
P 3.9486570845788656 6.120553773665083 3.8668665776563533 0.5720776524749631 0.01467379996209086 0.522014674380301
P 7.0564048080941975 3.901345683582084 10.44187674178197 -0.19353927624516343 0.596248850404528 0.3704609985383039
P 6.492804213358419 7.777792068314908 10.448530220724384 -0.8108110087582616 -0.47175963487949074 -0.12258711340631792
P 2.6742739803946183 8.52761354430896 5.882906228588876 -2.2777716580417415 0.4215547318903256 0.05959122930007156
P 6.989050063713453 4.089889770550771 1.757807592200985 -0.0003177883507349366 0.6073413607732638 -0.4335733536177565
Ni 5.409589052004033 2.91816502693493 0.43908132396290867 0.07282315460931328 0.2996546172487033 -0.04348532487714446
Ni 1.53253225635906 1.1331868606548579 6.980279278860843 1.2416361102069198 0.3340305236254118 -0.6130216989874926
Ni 6.91853393744442 0.711266282872873 9.309620985533405 -0.06910302544524873 -0.4109849267942793 -0.7425461629435921
Ni 3.0932436313938463 1.7889139500718325 9.60304277781974 -0.8514264682867788 -0.603491133789238 -0.09819171528108896
Ni 6.593913770119883 2.0248332123117048 2.4768998896042325 -0.1419269513855104 -0.0008551489114436884 0.48093307384864276
Ni 4.180385465929364 6.639147951893236 10.518148951846452 -0.01075081075860084 1.0779866795426531 -0.5347318648366532
Ni 7.97977430596148 7.532880633384141 0.2413856286173166 0.9571183485996549 -0.5495046522704536 0.023567502907294896
Ni 7.143547798761291 3.7018961956903955 8.153017122378637 1.9305076664451912 -0.7695615151901715 0.9962209710280714
Ni 3.31606183554911 8.481431859030184 12.455129456923059 -0.9171464361924075 -0.07488055135897427 -0.08284865716611538
Ni 9.065494885238863 5.008612856997226 10.070636668807397 -0.2572339861906473 -0.30133766137808105 0.022046181166762033
Ni 8.747060822531466 2.2042302462088013 5.759244266276202 -0.004673494216269371 0.8513099973135726 -0.42785650573863737
Ni 3.267338289904822 3.1718773117333843 11.929957417820715 0.8574083969018266 -0.8852112780467077 -0.25059282672504585
Ni 0.8718052638288495 3.513598095208693 12.642195802847711 0.5279125279219746 -0.36771994545805703 0.524004194006504
Ni 3.0974891759469942 8.666823674721211 8.142816882718327 -0.2173276369140128 -0.7590901833452023 0.6337113661263603
Ni 5.717946779355673 7.589621516382014 3.5764995731139457 -0.8673292555599642 0.37745157092352416 -0.033082641486581736
Ni 3.035309258403564 8.484520356033439 3.5724325965291275 1.1381695196801367 -0.16096365630198728 0.09936850919800952
Ni 3.564699510227169 4.222348938486879 9.501328276512506 -0.09500329025077832 0.3425640150177197 0.005966759106396175
Ni 7.123650225147393 6.076303537839671 11.868926348277611 0.3049292353840813 0.058730423961673044 -2.010197466267351
Ni 0.7652821822315901 8.952313769393875 0.060150073495272606 -0.6789326998580049 0.5543154433955356 0.13524465426932836
Ni 4.589470104396046 0.4299187828532489 1.1466004126840434 -0.21772307258021859 -0.5862328609294227 0.6842160597441314
Ni 5.786968765481538 5.575074183470534 0.483275074002421 0.1022031504333272 0.32003395223600367 0.6103171555721361
Ni 8.02868006381835 9.093318690100055 11.401412630663488 0.356362868574025 -0.08067864609799008 -0.2811028223884449
Ni 0.21520537791360947 4.935235998990664 5.751789964659493 -0.12982116926091192 -1.2949993563194087 0.6931583565390836
Ni 8.024279638884508 9.003943599828837 2.411428308440518 -0.0012984070964493768 -0.05600119795596807 -0.07258147091215242
P 8.565477242083393 1.715281994967656 3.64657110158428 0.23124758942921464 -1.192739898726849 -0.5689856438132007
P 1.752207299847293 3.278708331969906 1.6595205026124085 0.4977079793141364 0.4408485471229311 -0.688272232091376
P 4.718959213267075 1.0027138058358884 8.246250556251267 1.1222734172751705 0.02720484254956605 0.1874856138519158
P 8.577712792158238 1.6146097475163879 12.75135093985571 0.6253241705039295 0.9960991007382265 -0.8806755949598832
P 6.149006210659681 7.696634748831117 1.3802602434879054 -0.07424214644402698 0.27326147196715517 1.0092690624612812
P 1.9346654989157588 3.2513036151976515 6.053438638343884 0.12620696954709235 0.1459666686725228 -0.3816635521223427
P 7.068503699009608 3.792902085264216 5.907667957217636 -0.632383391343556 0.43018232565833653 0.1919086826202759
P 2.231543856874765 8.763633023265752 10.395393495291373 1.3136948758463824 -0.47048025394643483 0.055135250411246985
