# total energy = -340874.74252850725 ev
CRYSTAL
PRIMVEC
9.21512406385584 0.00000000000000 0.00000000000000
0.00000000000000 9.21512406385584 0.00000000000000
0.00000000000000 0.00000000000000 13.48726554646710
PRIMCOORD
 96 1
Ni 5.330875620652795 0.13697544892670474 4.40167686696136 -1.6325373788774464 0.08443528492694491 0.9351693551323895
Ni 0.7551877206608822 5.870052536780235 0.6438791571296615 -0.12146174155262307 -0.07139079303816091 0.7552677242753186
Ni 4.682674570279863 7.562916925383744 9.263134983087745 1.1988087306287483 -0.7444307815608148 -0.058350672024751124
Ni 4.9620402751050126 4.377248494256484 4.958027088521975 0.6044964351253009 0.35444971071171216 -0.8231013960898406
Ni 2.6244581530709077 7.323710731761525 10.202415082638751 -0.5590552720733661 -0.4808844799988944 0.9152268505721916
Ni 8.734979355486855 5.458237852028582 7.649761177225765 0.022800799944599444 0.5747803961181068 -0.07987183392597857
Ni 7.2439906924277615 6.692935481224467 9.78329833348205 0.46600473467358455 1.1119818055411752 0.07409276535035628
Ni 8.170663580579793 4.447734979155797 9.733665674615832 0.38027798462872575 -1.703792931889324 0.22551531493112775
Ni 3.436798995446266 6.604212265560904 12.62000752041848 -0.6851619685971685 -0.7525220432093814 -0.29019758560086156
Ni 3.743303240999415 7.690620116354418 1.6611864777014473 0.008076349250231252 0.6773262746028336 -0.3129981284351448
Ni 3.8167109202657152 5.258840994890221 1.095634033128614 -0.22838312339722602 0.07579792096692108 0.6749850280641666
Ni 2.924613178059849 5.237701500007358 4.049538404926332 -0.23992172016444485 -0.4138010560868357 -0.2974447540815781
Ni 1.229242275677726 2.212486811208092 5.433034487379659 -0.1929638633576677 -0.4391901855839017 1.4694592473356176
Ni 5.897209507756608 8.511254570497247 2.1785032762346725 -0.18058991517334705 0.41480712875384695 0.8846731461550504
Ni 4.354735945869895 8.37923870140749 6.938429154078848 1.310832466696923 -0.09985573324707318 0.33286607100366544
Ni 2.29682362775908 8.837165867586277 8.494172494793514 0.0741513865024336 0.5418509923799377 0.3552025297173367
Ni 2.9911924503042644 1.5329819839750518 7.397562580013593 0.6309859967753971 1.4334710021664667 -1.375634550773973
Ni 8.681457914214112 0.6205455411780926 13.064008790927266 -0.2551657908077089 0.5004472326221704 0.07497928172036764
Ni 1.9291217424861848 2.655273528349153 3.3288456586311956 0.03766537576125771 -0.18061871152875347 -0.6808404584036791
Ni 3.861450348189125 3.2399086520865175 8.867121471777962 0.17911050241434312 0.48497870467292614 2.7669829127387766
Ni 4.566103249325973 5.871987712859311 7.035457039658904 -0.6265153625985532 0.16869959149366429 -0.024431136459170825
Ni 2.2253603396960435 0.7364708819265388 12.713271949280943 0.20681979540415352 0.36056996467683705 -0.4280128288108435
Ni 2.268072440298516 4.393771211922123 12.914826066991264 -1.2165567986407886 0.0014711852288877888 0.8539772597330907
Ni 7.250929680939879 7.683487610234392 5.925184781760704 0.3129207382299901 0.7630324558224021 -1.7446994402956983
P 1.9262281934917562 7.997870786966639 0.2888324019015073 0.015102145748761089 -1.4669881600873058 -0.8245029044230575
P 6.663299641842039 6.650370822608971 7.546408030404386 -0.44529527004037506 -0.6307252869148428 1.8982022694442662
P 5.746652808804461 3.2856986041671403 10.579128437853212 0.5154928141013833 0.2695212881984326 -0.297860501462758
P 5.259089803243246 6.7683612726875175 11.340174212959184 -1.782008204048486 -0.554541957584045 0.3574584156310489
P 0.745998398822525 2.880214709731324 9.581030043647306 -0.7260535646052076 -0.20854192030158278 0.1727403372219412
P 5.9223944421571595 2.2475042831151892 3.589770978447584 -0.42690185513485196 0.07817156340542021 -1.5818429378463725
P 2.884960498687154 6.80148964413647 5.555593796029663 -0.25766875973522074 0.11987048580610322 1.3202267634276297
P 9.110283718213266 1.0018590863862442 2.2393175667882774 -0.3495810697655012 0.2861092744641008 -0.19149807744541858
Ni 8.695704496205789 2.5499538740264645 3.7901510893366 -1.015279016100787 -0.38941517104330353 -0.9049840897982607
Ni 6.8715522333232215 1.3865997362791984 10.103000479894503 -0.7128563491886432 0.9571000937672097 1.4975932865676722
Ni 6.944489941256031 2.59862815997733 8.186096149054219 -1.4768676239845469 0.1594140524266803 0.11803523236957736
Ni 8.670464271060121 0.9406338012939401 8.701822417152927 2.1601701707754732 0.6959418328214918 0.3451672569685217
Ni 5.892767817898918 4.154804611528741 0.37881993260339886 0.9078549835881526 0.19768106632767887 -0.2549552174587996
Ni 4.768052695863878 1.0697929818860132 1.1648386942536433 -1.2953433699223884 0.6034841918107026 0.7025662801165449
Ni 8.409381372620151 0.5591092297419273 6.2212307828750735 -0.8149101185282999 0.14275021861775414 -0.6468257920211312
Ni 6.628549408536338 2.3875004497500907 5.60591482467258 0.500706142710512 -1.7248829197904036 -0.590234525889648
Ni 8.983373027922594 2.936150513540819 7.371128074773409 1.1367034766575714 0.7918210979193202 -0.5513404199276118
Ni 5.906129747968731 7.139647841268798 0.290193475743791 0.14739671625083 -0.9814648957648193 -1.2052470300549243
Ni 2.0341925884558494 6.5878277747580585 7.801817176882987 1.3417420117915861 -0.31419343429482666 -0.0024926845148666747
Ni 7.363953179082129 6.7811057894368645 2.20798706606803 0.5861338734577132 -1.9490509766650175 0.38866955112653057
Ni 6.645615818528955 5.252989391032061 11.613547322526125 0.5323278833808509 -1.1200548123572969 0.25631841635491337
Ni 0.008799522085286147 8.055898423966374 1.4948203116956644 0.0894543354080911 1.1020753450607406 0.1804742155310892
Ni 8.323173885859388 7.352959535928138 12.792563485340052 -1.3380424514528118 0.15244687708022778 -0.0488995539141803
Ni 2.4083634909073717 4.997463212476297 10.767842201522653 0.1517789044789257 0.06408088964030899 -2.0398633687628998
Ni 0.6777134070912664 7.18048005653731 5.987927797806456 -0.5674558374322356 1.7689251456122825 -1.1852289350617844
Ni 4.072237098821479 3.4206264524996985 2.6550763246915707 0.8669675013451714 -0.5703262170014951 -0.28396317465537546
Ni -0.02712103199204698 7.704147918659581 8.375700093720036 -0.31342827399402795 0.7903213734453421 0.4000376837541562
Ni 4.954179774174287 6.693810918022145 4.609704609412402 -0.2843169584503684 1.811948957471976 1.628549340763976
Ni 5.347601071050527 1.7622911342214236 12.142437395524647 -0.9046673298887904 -0.7987013699789213 0.18339678849452284
Ni 7.106897289911475 5.584660140737391 4.581853739584817 0.5353378738517683 0.29798468574544806 -0.9306069325726877
Ni 7.21645590135976 2.0001427045882902 1.2812644162453934 -0.37114208376572855 -0.3619606743767766 1.1176145783469205
Ni 6.7949837664610975 8.791403560878212 8.415298403860032 -0.9389920713125893 -0.6849238844444334 -1.260821681996435
P 6.497749935839143 0.23713463370518953 0.2555335506551134 0.4063847090181066 -1.5060213627303678 -1.6455836705384432
P 4.151358155083147 2.8168883763245938 0.20203422568041737 -1.3472909666342734 1.52671668629619 0.22970081376738502
P 8.182182485812392 3.80457460171265 5.389619272801788 1.9224161476863086 1.6054510641836157 0.6461663040602613
P 0.7826690640086049 2.424867778324638 12.584630658668125 -0.9345957420171065 0.4263909769367044 -0.5243577206911808
P 5.570671582222924 1.0201142473988654 7.075662626482763 -0.09266924280096299 -0.1476268299837651 -0.07337208513424784
P 3.220639827413428 0.019262374086159422 3.58847625349944 -0.15612226904928597 0.24784508877657963 -2.2298025863616306
P 3.7716489629957923 5.533239747779073 9.134075325836882 -1.1900068160664021 0.0005851830795086696 -0.5408017251798171
P 1.0187043333983954 0.7119964336007334 7.131931096275376 0.5085945443196531 -0.31272636283099686 0.2133426841243358
Ni 4.624729869397802 0.8170589859586305 9.111348986569176 -0.09800711007410863 0.28214874715445604 0.4785566031966661
Ni 2.6769567155589953 9.003323771785455 5.556685788245713 -0.5857800896627202 0.27143573161232604 0.9396880689383493
Ni 6.185569173787369 8.563301591900217 11.244320334200436 -0.3377275128610248 1.4358610996651981 1.1467947994553025
Ni 5.871775765003032 4.931998970258396 8.98953241692857 -0.36778576569898597 -0.9154466798924814 0.02255140293795471
Ni 1.8712231172250549 7.288462881749775 2.959901574618017 -0.7389980405810176 -0.5246289720746965 0.8287148856218759
Ni 0.9599671318363324 9.024675214524597 10.884492772544544 -1.217497565287503 -0.3147066264858193 -0.2227236111186035
Ni 4.070891690690312 2.2832313195846146 4.971217617281927 -1.4831457436837747 -1.7349824701182506 -0.8543559832287481
Ni 4.394121386641194 4.418218936387788 12.137352489998769 0.5080576979795767 -0.8115306605331055 -1.466710738056203
Ni 1.0432442091059217 6.503979359788932 11.873176995881952 0.3869178585427466 1.3598821730357227 -0.001737808626713136
Ni 1.8292758719300266 4.286516381520357 8.356669019250946 -0.23813403213640277 0.012384746817598024 -0.7075120541575944
Ni 2.6440955827114405 2.7047956057251374 11.051074572456281 -0.7935735618340526 -1.6038456673697086 -0.12493170237909451
Ni 1.9359501495080689 0.4867705048812129 1.5790354886073965 0.7918298396700685 -0.5695191477191676 2.376057989919166
Ni 8.953534455808073 3.5337697472563674 1.2969365779486568 -0.4177613262861643 1.0250034424774024 -0.025987425202697177
Ni 6.661751500978778 4.606142963914483 6.680094205671167 0.648624792903083 0.44621778185464445 0.45514825157505484
Ni 4.921558234555571 3.1633033247276483 6.986605823323665 -1.3209039920003123 -0.22057776842019428 0.03034878749518644
Ni 4.29222054339154 8.649407712294932 12.828858173459338 0.18569484050008017 1.4456233212582845 -0.3831362800131273
Ni 6.525293942031332 4.220471586478735 2.5308453925142125 0.4936129833091563 -0.12474992538559161 1.4249007439989525
Ni 9.200942109955903 4.383726726559297 11.869414460676776 0.7348282254740442 0.0002193150996576868 0.496149633688081
Ni 1.8859581007985944 2.7116793034921387 0.9089890648389475 1.890903678900324 -0.3727071142600033 0.5794430917010989
Ni 0.8424549467030436 9.198592253288453 4.126833945086737 -1.2317869853269818 0.4475082185312938 -0.50537706582362
Ni 7.389691020933845 2.946922993714345 12.312146808585139 0.688424184288208 -0.4738082898784034 -0.04394220990890497
Ni 9.294466405320412 5.251312238430195 3.2486915869482687 -0.2723495016758471 -0.7547637880557065 0.3263424109525347
Ni 7.446981447998694 0.08779986022011661 3.795734533080945 2.554606192072136 0.06976277051643469 -0.21440506395057915
Ni 1.0696639701474082 4.9202681171695195 5.937310042164746 -0.6173267541207497 -0.8934948582117386 -0.7367562957346924
P 5.164542629094082 6.164024213440318 2.670047215444274 0.650500412659241 -0.8271372567221109 -1.8820667973349843
P 2.695801644519525 3.652128802302357 6.148467240789381 2.0180362455854794 -1.075431260110651 0.5334727956185715
P 8.006818672551322 8.753308237492964 10.336425104602377 2.4526274989447887 -0.11346483939007554 -0.1702977892187196
P 1.8224382497839566 4.630286589282007 2.2247650426736225 0.8214083246581337 -0.40902985995043745 -0.9167985659346856
P 0.4777820727501121 6.062722353262759 9.786009423017594 0.13431365781462673 -0.10980307426777218 -0.3209124981862151
P 7.834486635147472 5.255800003908815 0.004626913853829903 0.3760189522420556 -0.0025433352471440065 0.6690537501813961
P 8.689355275641581 7.103690426694721 4.032098782404178 -0.17722716934870122 2.0471377909371262 0.3729737376578286
P 3.0971110876990484 0.3110003046435372 10.670167414224734 0.48389112803570217 -0.027118453483346842 -0.14653462536085088
