# total energy = -340896.744343817 ev
CRYSTAL
PRIMVEC
9.03447325455082 0.00000000000000 0.00000000000000
0.00000000000000 9.03447325455082 0.00000000000000
0.00000000000000 0.00000000000000 13.22286482659076
PRIMCOORD
 96 1
Ni 6.540172555292344 1.8933906741595161 11.392515803814025 -1.260810112032209 0.2955855893856522 0.40006210923418845
Ni 4.554910323756779 0.35687162701023245 6.146304760767614 0.13259384691004258 -0.17170726797173655 -0.4403734072587254
Ni 2.700476297783468 1.6487281070141933 4.910826103508639 0.46385786353391084 -0.3284175483140086 -0.3487161506620446
Ni 3.2883675340480245 4.398613938408598 4.760151870796422 0.7816950652289119 0.13077144898932316 -0.1554571246614613
Ni 5.18354703388956 4.6229670099317985 2.7040358802012245 -0.5157897765165117 -0.21118064347601048 -0.29172070711360726
Ni 7.243894771704242 6.156595929123112 2.523014852206664 0.4591044080093254 -0.6076074699504568 0.10045582872491732
Ni 5.189835027196053 4.47999647246735 11.566727549401827 -0.49235417120139086 -0.48075515350988174 -0.18097480931659155
Ni 5.846135294088148 7.826112358835927 12.237840738456747 -0.8540371664367485 0.48379419744652163 0.9200918919739767
Ni 1.8521483042685076 6.3150244501326895 0.38857811050037355 0.8346070827365949 1.4675869700135693 -0.7396246184214229
Ni 2.805185841493608 1.5308372669905859 0.412311671443129 -0.4478298635367706 -0.35470373570404723 0.8202798674806453
Ni 0.5668201345566042 0.06671054967693447 4.906356749645532 0.5929290420026756 0.10754153192710511 -0.013331427001583492
Ni 8.567436052462805 2.2595217326924852 1.3534002144912638 0.626938566178901 0.9394322441738013 0.7886516990524031
Ni 6.914488846491525 0.6605049106921551 5.005145099658724 -0.9354236372350406 1.0124731712208757 -1.305017916897675
Ni 0.5794159970105021 7.383920070924557 2.3427084510375975 0.6656619508910278 -0.4538940674529796 0.32796297727509327
Ni 7.692682225008918 3.8304539914851077 3.7930711485201534 -0.09741395657479998 -0.026578778929792934 -0.04483592536776794
Ni 7.580501172010746 3.8238768950380857 12.581092897206148 0.7855815447675115 0.42481771891231357 0.17337051460677239
Ni 8.036461996989782 9.000395108823549 6.908695942313186 -0.9496626636525579 0.002645408042647057 0.34459132986039365
Ni 6.7910960123247355 0.8021925529705087 0.4938333363882605 -0.923109852864694 -0.7312101691054826 -0.528267083047916
Ni 1.7330287758976541 6.596638012426802 9.059949452325089 0.964184511417817 -0.3960768993341953 0.1902294951456401
Ni 0.12619803807722904 4.972077121066157 1.3033935022056735 -0.7336853701188526 -1.257426797382273 0.5610427348170403
Ni 6.352354893153423 2.018319368760362 6.963729435454714 0.28993661862999104 0.004311997111792573 0.5576007990150268
Ni 3.353515119871477 4.268490421751382 0.44435152699219194 -0.047432739560666695 0.23636639871301873 -0.08346237949071433
Ni 6.070714227439887 5.788802527532105 4.705991107760363 -0.32707054736781094 -0.5813400516134956 0.04909264376159287
Ni 5.415633614421896 2.8064868056259855 9.346383809487515 -0.31140944379178626 0.06789332140786372 0.12038933442405074
P 0.2016919025423428 5.609712166447886 12.402624107874065 -0.2810678553854515 -0.6412616676697924 -0.7068312260404859
P 4.022319097591426 6.09336365160566 12.47985891531355 -0.31295544812266746 0.13868376185786438 0.3300093182811607
P 2.3527574955129027 8.424890135236007 1.4291931200173618 0.2792727111582416 0.1810347160202495 -0.36154338433369987
P 6.335297807862245 7.777425583076312 5.862211235596156 -0.8864063267960735 0.0022461157216993577 0.38695539664890133
P 4.734596960068338 1.1814832250814067 12.65871076630683 1.181634532842307 -0.40044571782585225 0.10352264057569914
P 3.8773519415627034 5.960141310660905 8.15495091913536 0.21222862512455062 1.0182021032848527 0.536460674602302
P 4.686280597707524 1.1591138695830194 3.9458350548700025 -0.143805656465462 -0.28450027810576806 0.6234200115026812
P 0.14130187027521102 5.640203513300493 3.602873806155758 0.30622944225274357 -0.17390324718179082 -0.1905321139877235
Ni 1.1881325973135604 0.9207031578516242 2.740332779494569 0.9828208955720815 0.8915858141144838 -0.7620649497028101
Ni 1.8209974408765695 6.5136021697831525 4.7766280394646 0.29274786282654097 0.4307119729095615 -0.2262683910470684
Ni 5.7662886204634525 5.306370696248433 9.12455677665468 0.14581857313043273 1.566968077617069 0.35115689889305324
Ni 8.66842339323864 2.1130729230685543 10.279428961097759 0.9062989519549423 1.4214863190007647 -0.5862649997189386
Ni 2.323747802255504 5.312893585856606 6.9080743705610494 -0.8465966509983032 0.014426202727659026 0.2511031907025611
Ni 0.81076084729792 9.03609934667881 9.068187988382835 -0.5028203608400373 -0.637951629459953 0.7952393795722499
Ni 1.3510331825281874 0.7431052917303832 11.691736650813631 0.5227528380979061 0.9287415972291747 -1.2503590919022143
Ni 4.090529369809851 6.9657233436770465 1.2856750934805374 0.05389340758434589 0.0932305146210717 0.9698681920661555
Ni 5.428489669702269 7.672083626246266 7.991793754883512 0.7619842170635458 0.12831810235282418 0.5770553081952127
Ni 5.351253958815472 3.104326281682256 4.7979168719752625 -0.16474780593476787 -0.37318919610274437 -0.06752488232485143
Ni 0.6991796833163455 7.577330071938075 6.958214793049135 1.2247665881450907 -1.2400636235134772 -0.6224123961737732
Ni 5.0970058156670035 4.561207351536413 6.942295147926473 -0.28449667856134225 0.17664121493824417 -0.6444696330841287
Ni 8.038576063704896 7.315601385028433 8.78271941639924 0.1433695973693079 0.000403920306638014 0.9476780291223613
Ni 4.792625381056278 0.2391578626601986 10.455887580155855 -0.8391530502360645 0.20993751509752878 -0.10415153240894966
Ni 8.101925789373189 7.407987907373548 4.669257843414285 0.23567220085947152 -0.9998775939440523 -0.33925371969756407
Ni 7.217487006711599 6.08303724880491 6.83142138319188 0.49408040986387813 -0.5807438127903933 0.7036494858783946
Ni 2.3067358893300343 5.318594338408901 2.5817380241791867 -0.06920818356454532 -0.35061799567044777 0.10922097651205705
Ni 2.2789368154735974 5.101956706948553 11.383246434370832 -0.25837581310457436 0.4416227062847943 0.11169052109847218
Ni 1.1116377132243669 3.396483074132514 3.904765243415997 0.11595932367715514 -0.14020405515713275 -0.7333819799458208
Ni 3.559428831712849 2.746118456094394 2.70447224525396 0.42734228510638017 -0.15919216622386131 0.16006505574711788
Ni 1.2506872893453986 3.2522748138476785 8.162738634983343 -0.9718795660692295 0.2346987812026087 0.19128930386872217
Ni 3.835287434615817 2.660561995444262 7.233263907158623 -0.9503707454631762 -0.3713899381104765 -0.33882305991804873
Ni 4.166138875531177 6.832004106709507 5.968642749887069 0.0031974238913751386 0.020241009637223202 -0.19416919651967848
Ni 0.5768194894296312 7.314887661650254 11.062711458335768 1.0106898540682077 -0.9424833722952993 0.3863771555479281
P 0.141176291098544 5.634719588103594 7.893045156552143 0.0703834348195691 -0.6086086575214614 -0.14195677618218133
P 8.64299135134528 1.588937963763658 8.123426932002676 -0.48894283152699664 1.0034118323495558 -0.3593846861194843
P 1.6502458985019675 3.2084937570039047 10.379473102877622 1.0163629931935851 -0.728799502781461 0.34942500380361113
P 4.044083143389332 6.257800097254345 3.699889592538585 -0.2317165586458332 0.1853963354230549 -0.03351330126609712
P 6.940354543095677 4.009634697300742 10.381270963032781 1.08678190923678 -0.54940926434317 0.5605362274942669
P 6.352101927905461 7.7002892513940715 10.104979608866337 -0.16897135709781222 -0.5228520826799318 -0.08274452748808331
P 2.5180702850563144 8.350952007045862 5.8611930504731085 -0.7396153624500423 0.9115398886389076 0.06443184522182452
P 7.0231283860182225 3.9067681861114707 1.6615326657976601 -0.03850561227436595 0.7645784601532831 -0.36069414895952717
Ni 5.3378106627809 3.0565339187636504 0.6472712144344664 -0.24157699637968072 -1.0270904069134181 -0.7312685331472437
Ni 1.4257031030427951 1.0515584668333033 6.9705522695711855 0.980328468167531 0.3790654523778633 0.18515053796083597
Ni 6.934409859768561 0.5696967108048622 9.185091360492075 -0.6694106193001825 0.811041636711829 -1.0928132030325244
Ni 2.7587034771805214 1.4659697498345199 9.344545294203217 0.3316491678774288 0.2053889764948979 0.2625885656343413
Ni 6.276664077173824 1.8779688285069527 2.6542920710840523 1.1834268488560393 0.7939731112653164 0.7549982726640159
Ni 3.9885934093541566 6.708150514412502 10.28838031708637 0.5113759637195321 0.5946568233270598 0.26020849543793895
Ni 8.033200552185695 7.264999300962818 0.09613402180421511 -0.12614809128469887 -0.1859018143045637 0.6562254880684764
Ni 7.474671353631059 3.8564461707132414 8.198334459160906 1.580322387436788 -0.38458355398261507 -0.00019823205373514248
Ni 3.3683587592429833 8.417021109129749 12.44102332906744 -0.12923727173298388 -0.7099497170648095 0.7198538635523989
Ni 0.16880461341260594 4.836108300286381 9.985008129678238 -0.9631036196488123 -0.18177750772354498 0.5592537612374175
Ni 8.7047148718481 2.3893742151554567 5.831481378652613 -0.07947434137724378 0.42719547511587075 0.6843456433434602
Ni 3.5576761439233953 2.6140163898191857 11.526066999581131 -0.09610603639665384 0.5144615446233914 -0.5895241300861847
Ni 1.182440879234407 3.2332662823579343 12.657799187966853 -0.744853213810214 -0.0037671803519160924 -0.2695122893373681
Ni 3.118447163202441 8.393802513156059 8.017683844565147 0.07254933212263633 -0.1062454388235009 0.41206581856328384
Ni 5.77487136994789 8.02993910738161 3.6093524268455375 -1.2912182920104214 -0.24795950286725685 0.08285277093117344
Ni 2.962186915746827 8.42227917249811 3.6361821017338896 0.7965964078207766 -0.3392588619038867 -0.002018315981609427
Ni 3.404487617335895 4.126558848698207 9.329325820749022 -0.020906668245680122 0.36245535462500805 -0.09559798641198373
Ni 7.2426480144107135 6.1395840161976425 11.307439977135022 0.5283246757587289 -1.5279248476716782 -0.5865719894363963
Ni 0.4520299257151641 9.024842393144484 0.4664895999781562 0.06876132583511384 0.39355644690518676 0.4757803260031096
Ni 4.533462484518826 0.39142758332920685 1.9061952329429828 -0.3449584833918253 -0.30185779554760916 -1.2754859688768292
Ni 5.981119357295499 5.589348463986915 0.40577432667793 0.07878837105381269 0.3759009386069526 0.03570079583571916
Ni 8.062101831765398 8.895721703005975 11.144005454557732 -0.8349621520831685 0.0616239434593842 0.9561423578396308
Ni 0.15834359696204764 4.927094479294563 5.686201629853194 -0.5938302136607063 -0.4592365627118155 0.7848328395269452
Ni 7.8457713723918605 8.856159745119287 2.5535206542162983 -0.02321114800914067 0.593375899732107 0.09030639899574125
P 8.467090159280016 1.6458641790283337 3.7724698394155607 -0.3948574251047974 0.17461929941220894 -0.6973600533252571
P 1.7743705249932191 3.1552174688884005 1.6185448356957115 -0.7512588602262417 0.34553492472058556 0.20305312927286964
P 4.840715881588553 1.0359288282984853 8.327932169481286 -0.41801509416818333 -1.1513610786697461 -0.623445722534294
P 8.437195087654748 1.6500652090391372 12.466397550332694 0.34648726133152585 -0.4533973303222191 0.2925475738902768
P 6.22517661474034 7.740375208722965 1.4084463558951905 0.17471031646411847 0.39346465852232887 -0.6005523628758883
P 1.9845123702648193 3.3235297035147937 6.116143172184672 -0.7159028493244509 -0.9126462343292089 -0.6892703343385872
P 6.9715776822727475 3.9588248203528704 6.015835223789078 0.42337970091420635 0.5611795175052207 -0.8292036523328364
P 2.5237077962966183 8.392600928228239 10.418890509194043 -0.633382779142348 0.3745295121807227 -0.9579354451843116
