# total energy = -381167.33337549213 ev
CRYSTAL
PRIMVEC
9.26110953852228 0.00000000000000 0.00000000000000

0.00000000000000 9.26110953852228 0.00000000000000

0.00000000000000 0.00000000000000 13.55456993692427

PRIMCOORD
 96 1
Ni 5.090359677516706 8.330460773189893 10.873137334000258 -1.1665449854990362 0.598970105990433 0.5945107846674987
Ni 7.386179507438554 5.142749775007489 12.199126348770454 -0.6870946668435071 1.2889629203173414 -0.8807534993856703
Ni 6.731363486016707 7.531856762791219 7.355468741610519 -1.4124918288116384 0.11550243864539463 0.24371461154797383
Ni 7.142436361626295 5.2525772747676465 9.418217002410692 -0.2760261791964859 1.8162023334316917 1.0001565586370516
Ni 1.6911249341178423 2.316768460030413 5.447202273141002 -0.18308388523979435 1.6464740435631966 0.15396305661443807
Ni 0.19080849507196807 2.1279436946530756 7.34107419882637 -0.5530134367546605 0.3758307474906495 -1.0468007408581521
Ni 4.609263551575172 7.719848028296863 1.3732679058255595 0.49635300794813864 -0.03570259560793206 1.7356553278155593
Ni 8.922810609783147 6.913853652369173 9.18976857924401 -0.16988152761690742 0.5342582676343444 0.8599139369324997
Ni 9.021598866798207 1.3717555666139198 13.107797721670138 -0.902647471245284 -0.003781321419303166 0.5248793975226057
Ni 4.649530856487657 2.895041409901732 0.8737671766060633 0.32204121247401957 -0.6944505929879459 -0.15164752110738397
Ni 6.159582574034912 2.1481236526577456 12.03687818985755 -1.30477649031083 1.271944531382474 1.3332260039007748
Ni 2.1497073024139635 1.4450294664454708 0.4441415199635456 0.21194786065933818 -1.2150012812282107 0.36886691457830667
Ni 8.695765244733817 6.667628529161205 3.3966129232469022 0.5159232167705824 2.1216596734051008 1.351539457497982
Ni 1.2130016243853496 5.347549954592288 2.2034717485820736 -0.16031239587123358 0.5248881392733541 0.44795867580515103
Ni 4.171805774471641 5.273479599327784 5.028541770366098 0.9286559794939039 -0.6765102064594414 1.7933981910529824
Ni 5.517111611823816 0.6108294548596701 2.174722485785425 -0.004995653442378493 1.0549557658651187 -1.2942141414139519
Ni 6.317697499695184 5.207160792870032 6.630597055972827 -1.1569100335124334 0.2400991262825736 0.5357443652615677
Ni 3.890314345581348 7.1689231353267795 12.827516719815739 -1.1660752449514693 -0.14577177905289734 -0.7259895441364916
Ni 1.276069781343497 0.2570013504379979 5.840623473690057 0.118904265238092 -1.7233029768977932 1.1238212213782646
Ni 3.529992351048214 1.4112541994225098 9.704760366634414 0.46634823405593234 -0.6315143584750414 0.31074507073491
Ni 1.2654380274245611 6.37020799161188 5.048060485139225 0.2498595481034471 -0.5448406711358811 -0.31595181174683007
Ni 0.10467461833115371 9.13910382648763 1.5235747899099994 0.4394413823627593 0.5595751491325782 -0.3797442236124428
Ni 4.88005839877873 4.508289672674338 12.6899244132185 0.37910196204275354 0.06742383797061291 0.776846735997675
Ni 6.5283970061496355 7.425465134724377 12.889813426337085 -0.9360209044994073 -0.5071953499792814 -1.3137527256675114
P 9.238540361180675 8.543308857091377 4.558537675494869 -0.7359708237189196 -0.6950794848211965 -0.7338851448344845
Ni 6.969374004933652 3.613296032669145 0.42874862955530235 0.2761331370879954 -0.25687120353458986 -0.00232402014748632
P 4.4099181655951245 3.3142455398151744 3.6286805880786708 0.7288200716067513 0.0795653584291533 0.19954100235455313
Ni 5.195028739182048 6.356390415961137 8.719614454395876 0.6400463072054525 0.17048188020506766 -0.5583099092669095
P 5.754899864108309 6.971855982329361 5.435247106648011 -0.4215668160751836 0.7969561051530404 0.6354162646326089
P 0.20340453035519515 3.824208544646362 3.655179401221747 -1.4400995632265778 0.20226148660950974 -1.1241590643336574
P 3.0782446816999807 5.819977681868207 7.104356530821521 1.0794372959462506 0.11011160664712649 -0.7199669920914956
Ni 6.0606554003745705 6.326801170516016 3.5018635826004934 -1.06832318831096 1.1539316676104 -2.3514638455195693
Ni 2.285993792545549 3.657758620269154 13.477430835881057 -0.06380398182983851 -0.3255152870655491 -0.43389165618912373
Ni 8.406827883656396 6.325930626205579 6.225261437813398 0.6871190923235393 -0.7502090788054886 -0.4929786921592671
Ni 7.297874826587461 4.7805107307694605 4.3608713287008 1.8727578612292326 -1.5929974118012953 1.0857071881153624
Ni 1.0584059204055618 2.6379993105811184 11.37239264381309 1.395321744790255 0.7764204470935339 -0.44780980893211264
Ni 6.245433060819351 1.5818901453775562 4.245494572017101 -2.1472352078813604 -1.269600970850962 1.7469067323596623
Ni 3.663602380480695 2.4157512003488684 12.097873710468084 0.15896873735914557 -1.26395868496352 -0.7598373459238721
Ni 4.574932617971082 8.681892102424962 3.815679062626031 1.3668498626028074 -3.6175264641999703 -1.012562131390256
Ni 4.497176341051756 4.314510213615266 8.099262726557592 0.7687310488690761 -0.6087667803658806 -2.6955599809110997
Ni 1.5368533689770467 9.025321832891771 8.754463084031384 -0.3394252122784219 0.5929712080945206 -0.0326344982055696
Ni 0.5341928461013198 5.17414493684128 13.174771288582653 -0.360771796274998 0.48091713300904276 1.4574102865908836
Ni 5.19172252302433 3.8336826598546123 10.279108458221026 1.9683594471856425 -1.4274494785627352 0.8232955143785176
Ni 1.1628341932190818 1.2168264626854546 3.341093496793393 0.1945425206986972 -0.057908185170693814 -0.36726434597787716
Ni 6.978079448038006 8.690903162148938 3.919981384347828 1.3840292025955712 -1.227014503639003 0.5044998054249893
Ni 6.48363806303969 3.100036072789925 2.7701609024587888 -0.9219194321010187 2.239792864805123 -1.2279850950823883
Ni 4.521838676144201 2.514437585157388 5.744115301879563 -1.8491430500237704 1.6107467653649161 -0.4663767733010226
Ni 1.9491579721748031 5.396078169344224 8.884708552315129 -0.5350360263406333 1.7230332681761744 1.161728023726367
Ni 9.217554686633369 7.051186647895219 0.83203754247424 -0.019873084774843192 -0.856961024951763 -0.16897521375255414
Ni 0.3465757294269696 3.38570426214837 1.1989265898853507 -1.133939540759189 -1.4768866501479403 0.9329340380439676
Ni 6.660469691374326 2.911757712884031 6.08917406154005 0.6172365083997886 2.8191763069128806 0.14588902135705195
Ni 2.2686384729949514 8.107518079731232 3.834493006952092 -1.6768811951001443 1.6681469005509402 -0.899507897175038
Ni 2.2624983572734756 3.9205796520335103 4.011841405207177 0.2748668687810621 2.543587215253813 2.9496279106689394
Ni 5.11475344042827 9.024738382981587 6.063881044878024 1.7911371629329473 0.13768283139717577 0.21488123225604927
Ni 2.680535587366547 2.637980788361747 7.503782634890643 -0.11315373590755996 1.7003389119024521 1.3117611491587795
Ni 5.428918064288951 1.678187163887221 7.6437337461247745 -0.2759775853467376 -0.14835188107524774 1.2625497204311353
P 5.705482582826566 5.9480588288184535 0.9460177238173684 0.519687311798705 -1.419065368264098 -0.6657725083269631
Ni 0.5820598176217134 5.187203101497813 10.995724790685076 0.79513576411485 1.2918209585914266 -0.3547279040737633
P 2.6669680616773124 5.101639709113625 12.058837207032802 0.7314863055850048 1.3595201617106134 -1.3836119125524944
Ni 7.954728292140113 5.197964510952346 2.0169474428506105 -1.0834937254038113 -1.3136617086156022 -1.555299125919573
P 3.172476472749782 0.06700320246350965 12.069395798185221 0.18472090662258508 0.5463848756945493 -0.6989029723323448
P 6.010200874808052 1.7952105458729992 9.74455628106391 -1.980847552350324 -1.013184081244971 1.4470328000113015
P 3.1692999121276615 0.4571496746277767 2.2081884317448908 -0.22319155189395756 -0.3196637133807785 0.323295653706411
Ni 9.275649627690411 4.17246331325931 9.140998649529282 0.023062538246418345 -1.767652706657762 -1.6965871581695038
Ni 1.2426649587079555 7.004029077376733 7.4749528004397305 0.24283992225250436 0.9597704415105213 -1.0213925851976926
Ni 3.174171255822226 7.774025519956946 5.987663964388426 0.06527490994841016 -0.8648496836712203 0.49245213023183576
Ni 7.541034522489534 0.7584376515817601 8.66015072132732 0.9100787307123488 -1.0378306761490579 1.0901526254812257
Ni 3.337037130751151 0.6224428864052673 7.315211623918687 -0.37806529324812305 -1.7787344183932203 -0.38543253224647167
Ni 3.0999342005833848 3.8315155601882087 9.671876944474167 -1.804911076788588 -2.0222155737741496 2.7390298791692764
Ni 1.290702334646562 4.559355431480098 6.794445534639382 -0.9018766545175305 -0.8449118070967127 -0.8012760726846329
Ni 8.384036292720419 2.1913822959986424 4.664520888624582 2.203316110035328 0.7997992310287904 0.2757587844677122
Ni 7.918517353269871 1.306140604492264 2.5946563911420832 0.13428820389333002 -0.2501804217779756 -1.3872718779025848
Ni 7.004594005067548 7.7238766110100485 1.4482106576224345 1.168094332264027 0.7169865693069329 2.3992783938996873
Ni 8.680762247043333 8.4566526537643 7.172237686483214 2.0972969282900205 0.8079218601359246 -0.22875259092150282
Ni 7.080683282243486 0.20061786245083293 11.405533524822594 1.3725996206023912 -0.47127189660979485 -0.15025963962092184
Ni 1.4554111704028985 8.499985385982681 13.076025632672147 -0.5620418655055159 0.5095489378131224 -0.49236574116561654
Ni 3.234877829810575 6.1825038205064855 3.2830522701725267 0.08557094119328489 0.07367624663822796 -1.3825533893809931
Ni 5.07256908581089 0.1698422688550004 13.301736471815799 -0.26610789164150944 0.5244399959923419 -0.647931109270168
Ni 3.3571059554395952 5.370017406689271 0.963989833273019 0.97017672444551 0.8734299691410634 0.24847835148520436
Ni 7.9179616866887415 2.4929888551258066 10.554049504230775 1.6545102836041121 -0.19297980419726765 -0.40001917181139496
Ni 2.708393005300483 3.18066329371175 2.1296532955010163 0.5503343472606005 -1.442648554900677 -1.4068721686320158
Ni 4.738076326190572 5.98358444557197 10.952119781841942 -0.3174286534026727 0.265823013411239 -0.1728166989858314
Ni 5.080339156837011 8.734976783142159 8.628297134564097 0.14414735607559692 0.8690431529272776 -0.6595722930535222
Ni 7.4452098205738295 0.9761765275081477 6.42158584981404 -0.032457606308073136 -2.313669400379615 -1.0680187696966639
Ni 0.43715956937165906 0.44703746896219654 10.980109633644382 -0.18288873850985277 -1.4614574600770638 -0.253788193733892
Ni 2.3928762594257225 7.712550273864702 1.3924476639841972 -1.221911892305115 -0.27901585795242917 0.8823398700361836
Ni 3.3131990344207147 7.322213022840914 9.414109700265179 0.3751656031028248 0.35515702119138187 -2.1962525183203274
Ni 1.869086417834107 7.6899253829030645 10.849010291047636 -1.5039266849848678 -0.030890776041585508 1.704272956849536
P 7.055252275047146 0.6113452986691517 0.541216471686791 1.04490480938702 0.07957281462832101 -0.08251261398293532
Ni 8.811677293557338 7.546841238262332 11.921989493654275 0.4098724104563909 -0.5577738342577814 -0.08578202876282645
P 8.58852159457591 3.4494484801135585 12.303158246089435 -0.027464523968855927 0.09019069935348338 1.8818991614088687
Ni 7.134462546187093 3.215966643832816 8.506698764393688 -1.0561675267850326 -0.559936646237055 -0.8172295106900958
P 7.016957586497669 7.342643030807092 10.70857111933308 0.320648445891551 -1.5187989741110102 -0.8827563887483119
P 8.19986986551488 4.291940889311741 7.079687712952296 1.813296729749122 0.492054637683101 -0.8322290694227215
P 0.5966368042666657 1.7781886262710795 9.318577649415536 0.25243630769168784 0.08966182343320687 0.962849080435845
Ni 3.467118677393462 0.888681267643567 4.711012585356681 -2.676104443289649 1.4858903963084475 0.2804057963214203
