# total energy = -381168.359505621 ev
CRYSTAL
PRIMVEC
9.21077553213008 0.00000000000000 0.00000000000000
0.00000000000000 9.21077553213008 0.00000000000000
0.00000000000000 0.00000000000000 13.48090103072685
PRIMCOORD
 96 1
Ni 8.682122953250493 1.7041868767228685 2.189716322948259 0.07446711797063948 0.6424724001484419 0.35578617013494857
Ni 5.084274338891314 6.296154480843747 7.81185849716459 2.340627417025698 1.1669062254931968 0.1416703552900141
Ni 6.906082817571533 4.3955846616516006 3.4198080100369554 0.013535572592589593 0.22907500725792806 -0.9953403681953311
Ni 5.811391371132284 2.2361920535008353 3.545018369852776 -0.3223523159565352 0.012241279261198274 0.5488405363238935
Ni 8.033923844703382 6.380663345210129 3.897854622321065 1.0343751135002897 1.1077993920287115 0.7378227893259938
Ni 4.67801466798036 2.3454779037141456 11.16803662852952 -0.674573908668677 -0.047335037640537835 -0.7256069639860923
Ni 4.240631786966517 6.999452447880199 12.34215535454268 -0.377075418531028 0.3126011501070423 1.114578362623758
Ni 6.36903934664551 2.4984136185849253 12.602957539136428 1.0454838218189413 0.322857794838044 1.2141430469929735
Ni 6.820837091172528 4.8332346551522685 9.145739964780775 0.6383066988065265 1.3704110975915045 -0.5358567224697158
Ni 2.4429923829563127 5.227750587418303 12.572085783202173 -0.07161576456477343 1.2266884877581519 -3.5415043430373845
Ni 4.703583780512357 4.679967352366809 4.118105447104523 0.945399774611146 0.8730119077670385 -0.9812615215047616
Ni 2.942059826876058 0.7061118589235286 11.999012522113537 0.6151269182559536 -0.3996916132686471 -2.2012836529863318
Ni 1.9636544199600319 6.602504870906511 9.91049775180318 -0.21796424205674717 -0.9173552097691039 0.20089314550707335
Ni 5.03474799952368 8.099154556141281 1.1328756369697415 1.497838569809259 0.35793124150240935 1.172075171288646
Ni 0.2917881541430635 6.620023765732109 0.4119546933455841 1.3942575651917986 1.6179782501163489 -1.2774554338983741
Ni 1.5823835827303856 7.215122754053368 2.221504551035589 -3.0171358237129264 1.3763323481719458 1.8237955723979171
Ni 3.9988028786352525 7.752663606851411 10.289985382913882 0.09281065347483371 1.927829862502712 -1.6255213525709293
Ni 7.725233917687042 6.207952095538846 1.5227217061040312 -1.9250628412805362 -0.6956345859937181 1.2317430194629237
Ni 6.329092213701968 1.5142514770390365 1.2763491222641088 0.24084628886124326 -0.8662794741392114 0.5729310016141939
Ni 4.11672843618106 5.350797336090836 10.584933754099355 0.370163264792227 1.9840305780639957 -0.07334251744789304
Ni 2.82421716630892 3.6979328999401178 10.098165458581617 -2.2260410624366695 -1.6045717469024559 -0.5711723670518745
Ni 7.735080236597959 1.3052405614856923 4.634315986213229 1.487275192471116 -0.19526680045923145 -0.5524488225004421
Ni 1.6680530047981477 0.9894030727529151 7.631605464589417 0.21320847253931666 -0.849717198905156 -0.8456116613772146
Ni 7.321608528542714 2.8816924048534673 7.774085107217284 1.590108263178958 1.664365579131637 -1.842880099833194
P 1.2138328263388833 3.0917257164770757 3.100984387916976 0.9711640280594435 -1.6960379705342532 -1.299855655970445
Ni 5.567232136622851 5.930044579935307 0.4515739226846091 -0.06047080369154747 -0.7199574790097989 -0.36913585196897714
P 6.95459597164431 7.546379080818769 13.433839482811287 -0.8323375699761277 -1.1094636671050118 -0.9011130368786286
Ni 7.254121177129909 0.6393005784256554 11.168495325144828 1.1490810243863179 0.38119998222236284 0.783038980851316
P 6.903761702168772 3.076500304728015 5.428556544238396 -0.17261049651229626 0.729543322926021 0.11553714853807198
P 3.4601659435636845 1.0076772511619507 6.247292238383015 -0.5711587402051197 0.33971317583248595 4.281218950069452
P 4.508573243578838 4.292046335292746 12.716344947638824 -0.558708944477541 -0.32208157879365173 0.4306194131957552
Ni 2.792550520456972 2.890792650956354 7.317985930574833 0.4646765027804642 1.5873253011171824 1.041184423112639
Ni 0.48701422322112436 4.4705143195938915 -0.10792173437541781 -0.654475338146589 -1.7475708483062224 0.5062787517022829
Ni 1.9127464642812317 0.32542222162211304 2.8886336452007706 -1.1699162159641143 0.8632627988000745 -0.6053353860868285
Ni 7.096524809902793 8.395483622560379 6.3947466208086245 0.0787965985839288 -0.7012467899741729 0.3488259367670315
Ni 0.47314924299979305 5.090832410981653 2.4399758540102643 -0.034990657142572 -0.7849202570344288 0.14561802708385244
Ni 5.698283049124746 6.648098209175022 3.0489619284138345 0.6081404596357913 -0.3250144361697305 0.2452477603630486
Ni 6.227801316542612 8.93282183829945 4.145888830044551 -1.1168031381892185 -0.7960400210966743 -0.5465990485878844
Ni 4.923960792918902 3.8040594541885597 9.01272347280686 -1.4192402032790654 -0.4997705182701199 -0.7019566715570039
Ni 5.826303616517481 1.7207294293552418 8.682427829916492 -0.8259108405141777 -1.4856656818921512 0.36120348449577794
Ni 5.800789768637929 1.165899951116796 6.215881652087403 -0.5951615308776202 0.8053062768899485 -0.2014724150493111
Ni 7.13196787367193 2.918019703061752 10.369967151167337 1.0892504253819306 -1.1477507356106684 -0.4337037085480337
Ni 8.979520469616896 0.5281937579142273 6.429985205363709 -0.513820825715599 -0.313474296740615 0.067707944869935
Ni 1.3930008295710206 5.092011390233848 7.213657319685991 1.2574818189899246 0.30785695055383755 0.6550324962016396
Ni -0.03844025008682917 8.070536676949308 8.02423687220702 0.6245019317129503 1.0934611210291685 3.5695473652175296
Ni 1.761072625641318 9.109346348989554 9.594990929907542 -0.35888126412050453 -1.1778113024414747 1.6150289376800377
Ni 2.3393895811696024 2.811957624241165 12.49992304219238 -0.657242616479081 0.8186145639630805 -2.0725462037079017
Ni 1.5531209492598683 6.458770720668104 4.425375072552984 -0.21981183678844723 -0.959903881764592 -0.6315971479968348
Ni 3.0248923301182233 8.918075386871594 0.4331228973877442 -0.19980608309048167 0.3765709680907837 1.5094661267458582
Ni 3.818151940562463 0.789020811601579 4.362244417908059 1.885894398611191 1.1046605892894137 -2.921541951066001
Ni 3.591281331493433 2.7872451138220913 2.768222099372403 -1.5406096422281985 -0.24198554467200906 0.3515615905306397
Ni 0.6300391437531326 3.504267136216135 8.847434265959166 -0.1286142934370043 0.8931133065026039 1.21693192259202
Ni 8.691656105797547 2.571685336953815 12.497428764211952 0.07594061719237245 -0.1274477839327289 0.10216818343033372
Ni 2.5869844349061375 8.358354986891618 5.18468744915431 -1.7964169232746483 0.010788605975071742 1.888198107043703
Ni 7.985705435443653 0.08422333032874058 13.554641565516945 0.022046181166762033 1.4433954603690302 0.27677616998863297
Ni 0.39478396583040054 3.0332741357393034 6.723033393582558 -0.6466640696322863 -1.322097240977465 -0.9266196657901654
P 0.49756792968335867 8.275135631082325 4.351055167942688 -1.3634446935760003 1.3633639609367358 -0.17604960410083229
Ni 7.271769022811216 8.64363112282138 9.030059994279384 -1.6576382877101323 -0.187543977893677 -0.17726573589612052
P 0.5938398753230163 5.396390674359347 11.120138754253981 0.4245600943755527 0.13829501105987796 1.273290760997723
Ni 6.091122620266564 4.6128668535211315 11.371651871848986 0.6459945543690875 0.018241205598375037 0.8812764617686758
P 7.700954313712134 3.3873271316389597 1.0666731887263226 -0.12852301927477866 0.007610722467722376 -0.37906750926039234
P 7.214045093330658 6.562364311679406 7.906454081680033 1.8633694780357974 1.0455864088350768 -0.4697523746414748
P 3.308777638961412 5.655388468050714 8.041963930556834 -3.4497943788258976 -2.985557277575697 1.741665024344749
Ni 1.7544777104493476 7.591990840638096 12.131772954531115 0.4682338811144194 0.06043429402665721 -0.05956937492320063
Ni 3.5346995381634403 1.3533484414405275 9.211176076510268 0.26961204814002604 0.12282288356620782 0.2210778479850644
Ni 7.671903528075996 8.77540968658049 2.3910537415093818 0.4644584732323872 -1.1558013738292867 0.2521959095461076
Ni 0.5781447140281591 0.4990720493074492 12.192221431377295 1.0633013096163364 1.0485274937412716 -0.2745969029491271
Ni 8.835123143549128 3.602610585245002 4.39899356963002 -1.6938041961077281 -0.4926159095032097 0.47092788300681476
Ni 8.997831491127561 5.719348092482338 9.168360708104743 0.09444304687193411 0.7661555748324159 -0.6093483639009635
Ni 3.0379439988710475 4.1819867799451815 0.9058272599353414 -0.6753601520153981 -0.1508985587565014 2.3494421871038504
Ni 9.000686831503973 8.30125739013879 10.629029420286559 -0.29039376077206763 -1.789354874221544 -0.420173792382399
Ni 3.330459804271326 5.714899287960381 5.7843853776366725 1.1485056114988221 0.4807309851401656 0.7663049559260867
Ni 5.03661778693146 8.658598632859023 7.80854261801779 -0.7710540405752979 1.1110122425390543 1.0298345453174589
Ni 9.588417199499009 7.033182307423489 6.346633214388545 0.1420472790134586 -0.36817451649697236 -3.045759143876574
Ni 2.5716577046275915 7.596890973155036 7.906494609091827 0.09394656685148982 1.3056709771006416 -1.3527149658633217
Ni 5.590102491960369 4.248580686143431 6.663487572726341 -0.7442657167378601 -1.5001242805196422 -0.2577399792927884
Ni 3.654034344346638 3.219368642078091 5.272124419022823 0.24070924906274674 -2.104924105817975 0.310763068457039
Ni 5.24829982735306 9.26806643081642 12.63572947803731 0.7999077315821966 0.6905916242531719 -1.3089738162216296
Ni 5.307736961059465 3.80538580584728 1.4289753550811868 2.4617988810314118 0.9707063716967346 1.2755947265405516
Ni 8.40133246494432 5.02433061253748 6.531429001394836 -1.2929812974481152 -0.3475244443467886 0.20809377702057064
Ni 3.0148802172499662 6.537891281420935 0.909463674066333 2.495782179955392 -0.7587615963611901 -1.1959342372944306
Ni 3.6280968007983296 7.874006362073505 3.0739553674828453 1.20084350167059 0.06323242559708465 0.3716961564969857
Ni 1.6615778296864783 4.277797265736909 4.867791642327178 0.8529922701120021 -0.5997308954158574 0.44313631471584325
Ni 1.4924127285471902 2.2059899209387246 0.992419601698963 -0.14117181838704077 -0.47935595916950996 1.0018915390502874
Ni 8.749444510705958 1.4430153400352659 8.867466781393547 -0.09550568380849357 -1.5888877605082958 0.4499343114742832
Ni 6.359856203563954 6.909564490675674 10.934884270632384 -0.1571918479643809 1.1684974812397166 -0.19820582848289733
Ni 4.787641316883757 7.883475039192703 5.59956195830416 0.0809396130688606 -0.5041743037647705 -0.0697512005522089
Ni 6.445958532075882 6.124603788873844 5.8092028908953965 -0.06683968333236874 1.229533927626747 -1.3685437053654623
P 5.479665294821086 0.2696979514825847 10.174709765452892 -1.9207269329093437 -1.2411288315531979 0.1938994877980596
Ni 4.256575639197385 2.2216574499073585 0.28290436126225965 -1.3326598469846598 -2.427704510450864 -0.8055140220253805
P 1.2945100081356284 1.91005691786216 10.139591842055648 0.7987121686121986 0.17671551981960532 1.2905292363631968
Ni 1.2559537022786613 1.548828727919843 5.08847353139972 1.4279912099988181 0.3268178079270565 -1.413954529400094
P 3.137042731483353 5.70270422132048 3.1070109982662864 0.382621802270554 -0.1876589062049865 -0.6240177929876801
P 4.399453187322869 0.8080217201902885 2.2726105383856567 0.2675034864374555 -0.5166809208722134 -1.251665983639096
P 0.914496441749144 8.725800450234187 0.8023009075845163 -0.7166132451279142 1.1034945940057705 -0.4046206751391483
Ni 7.975803851880291 5.781198449345581 12.249299685501766 -0.10563737292585679 0.29530662469265273 0.0869577942384825
