# total energy = -381166.86844165134 ev
CRYSTAL
PRIMVEC
9.27651855845744 0.00000000000000 0.00000000000000
0.00000000000000 9.27651855845744 0.00000000000000
0.00000000000000 0.00000000000000 13.57712259517231
PRIMCOORD
 96 1
Ni 4.767045036825348 4.867639600917435 3.5537710679309114 0.7643046376666064 0.5449504572408679 -0.035253423885655416
Ni 2.7466379112140955 5.523192593840676 7.588551871672274 0.5695996232481159 0.5685788952930854 0.2489138963607262
Ni 2.495392690458831 0.7183531662901359 12.204624356650566 -0.35325131952823674 -0.7515684210468605 0.8340614946457702
Ni 3.891592178372512 7.232771421864915 3.3680227044028856 -0.10215584213515955 -0.22302314463689332 -1.7588441072271968
Ni 2.5958944893682436 3.9887637072239155 10.486222632102168 1.6173521864965756 -0.5205638008663874 1.2144374383049408
Ni 4.5149092703164095 5.527051625439929 9.342499358917838 0.22282799790695174 -1.0231741025781476 -0.12976331943978298
Ni 8.583024314799982 3.082791103671212 6.312588119978325 0.4110301782099179 -1.715286277240904 -0.5449417154901196
Ni 4.418878753211901 7.10944011149934 11.329565750224095 -0.09045372320688293 -2.4631489673014033 1.2093821352692204
Ni 4.881127658478289 1.408463045063233 13.477506448976072 -1.0810408929879447 -0.32666971238496645 -0.10634211230236523
Ni 2.0151195101988133 3.6290574348857763 0.18169081443784857 0.3431895644168606 1.3896699458211164 0.060204180293722126
Ni 6.455399191053691 3.0734125437028332 13.553932900026005 0.9038605177167788 0.9912615701402671 -0.5540339075993749
Ni 4.374555548930087 4.528898259863705 11.863336611332421 0.9189063563063077 0.07526364573000587 -0.6102608484129037
Ni 0.5807554984810691 0.19604251584940044 11.156945515348147 -1.0090260932125397 0.203471704867527 -0.1530307746081558
Ni 5.488850923214624 1.323471584696975 8.726803854382467 -0.21951564570426713 -0.703294673642137 -0.28573903560887565
Ni 5.350871990504765 2.2103623901735605 11.171582005870508 0.7428624086324302 0.2895296129995595 0.4549898716203196
Ni 2.8081041212541336 2.963931075110541 7.89859908642117 0.42770661042433433 0.9573255795144546 -1.0899225117482905
Ni 6.629417397232542 1.99533269673437 6.7689009812053795 -2.1425311175374713 0.5936962591860034 1.1172991039890305
Ni 0.9912609125035197 4.018114611022086 5.137012993670925 1.340016801570363 0.2017711772366525 -0.6273648550830422
Ni 0.5275324025734758 5.764280027093098 3.215320081898951 -0.7661949127107837 0.665804390006163 1.5072045844051913
Ni 8.048418567047586 8.319172305719269 4.1423531648742165 -0.10717772082978315 0.05250706875978054 -0.4066515895262481
Ni 7.422364902214793 2.150603059494731 9.503700199806572 0.988030464797479 -1.2999659562960644 0.05512676577081474
Ni 8.567180021599198 0.8366556761029338 13.435404043167482 -0.021238083443169874 0.20570959305911024 0.5101256362521989
Ni 7.417253540649435 7.57099327789567 0.23746124226168006 1.5755884722962283 -0.0221510821757425 0.3606872069809917
Ni 6.913687023019883 0.10546195322701148 1.7954933019581074 -0.34243828807313287 0.17777430010142287 0.3492776795924694
P 3.236048461967539 2.602731283331345 12.192296791524967 1.6524703703559476 1.548148888028037 0.2991985035478912
Ni 1.27853613020951 6.276427324120029 5.78044621547776 1.2097678007434134 0.9079961371517072 -1.1297992933385703
P 7.801820881944305 5.25106593046541 13.17989626226833 -0.10145598785465752 -1.1333466443701967 -0.2504578438090783
Ni 6.167493170105516 8.664444315633276 12.377963521692239 -0.16722814915446038 1.8242393448035552 -0.4978079952271104
P 5.776274565212893 2.1638963101719684 1.8374463558225915 -0.07826489445017488 -0.3214606573802012 0.49417091269515545
P 7.17755758513713 5.219702022203206 3.858116006900812 -1.962244592537156 2.9053753686084676 1.0926501950920988
P 7.661420777966646 1.3153082486216303 11.571767293320436 -0.5321587047928383 -0.279219489322803 -0.39542641023438996
Ni 6.5545280652595235 4.665810392972808 1.8739819230188923 0.4559432366725244 -1.6098031705047242 0.1929623206957709
Ni -0.22880717836998807 1.3859025526368263 4.234283460904518 1.7973515192737757 0.10840362281708427 -0.6918923453424665
Ni 4.019181410622841 6.291705749706497 5.838651729346793 1.0653916164864619 1.600486521089489 0.09481945637474638
Ni 0.31138210572757885 5.506198012374731 7.724961217491283 -0.7085453805181152 0.6439327867440523 0.14153922902878852
Ni 7.961571803027838 8.391529148205278 10.483276409900428 -0.5681649476841183 1.9435200195444593 -0.41998198808656706
Ni 1.2884156221643304 8.648238238220063 3.8075543440841466 -0.46959296624547514 -1.9532734993867973 0.25815701222554893
Ni 8.500194283190035 5.171584721950009 9.802369764900455 2.3714006936528125 -0.2560451080888687 1.6006109624824951
Ni 6.833630670371901 1.6858309412596006 4.107676611938711 -0.5833000035533439 -0.059300437532530136 -0.6750007117934504
Ni 3.9569730791214086 0.7584249422499837 2.17715987599075 1.5129507428603493 -0.35439006111837035 0.11062685572064818
Ni 0.7789946938561987 2.0586171043548256 9.6060721447987 0.17129563435561468 0.19830558728555525 -1.474450272792306
Ni 7.5412898664033365 6.661068877561037 8.638077667761738 -0.8969054265551845 -0.16523143043940577 -0.7214340635553252
Ni 0.48620365838839036 5.810161686443841 0.059408678288320284 -0.8523461518875707 0.6851956500485813 2.9776148828001685
Ni 3.525670638795191 1.6578900682380802 9.70796820440371 -1.6970810670867869 2.415181438283189 1.2866003336224359
Ni 8.94754510011892 3.349964106291666 0.13154288433591071 -0.25821974714268436 0.781595306426254 -0.12816615015599217
Ni 8.384775842906583 3.6661449549189897 3.733205833126119 -0.6809669566792143 -0.262000040120723 1.7367781285660928
Ni 0.6021694132496207 8.115487794121155 13.233634204939767 0.4386857351436574 0.11092793190083478 -0.16962467441109497
Ni 4.312569853867073 9.2969266076254 10.948686752592357 1.6433085013510214 -0.08590235639077463 -0.27628920304988547
Ni 1.0900372790151893 0.8634824392805349 6.169566471938287 0.03323022280803954 -1.0813563673458344 0.8452488787211572
Ni 5.961331828129995 5.509454070286602 7.348658326320873 -2.107704239666273 0.9504195964232407 -1.2171707780757037
Ni 8.768786593105407 7.5214195642744865 6.400594448781501 -0.7780201874804858 0.33314297881413596 0.32086801810152477
Ni 7.044124146378315 6.609343011701809 11.54135515583247 0.43066774993518736 -2.090765040708773 0.2627297191978959
Ni 2.349973990098488 8.321547094395733 1.3505803540299062 -1.7322632714148747 -0.4747809382043178 1.8607526092382403
Ni 0.937883826392687 4.9287996858546474 11.76604263243989 -0.512937394669381 -1.1426823199488256 -1.662046958300789
Ni 2.5928796209313267 6.735596425321628 9.856678213445338 -0.607471972813857 -1.4469746930798564 -0.4081685403914067
Ni 2.304259308076558 1.4604764829887524 3.6910217939567755 -0.5532610339890923 -0.14787005634282277 0.13110492106934196
P 2.8245142820692295 5.523591484126176 4.278599243971718 -1.9072440679315605 0.1161534419658322 -1.4516978095871387
Ni 6.101119681902004 3.784587540157626 5.3609407234322415 0.666350235207304 0.8933063963500164 -0.3276282196434938
P 2.302023667174106 8.397011570501334 7.101880676763205 -0.5062692386205863 -1.6668245821950904 0.32765264512352604
Ni 7.41835744632326 8.758489657828553 8.223961832829602 -0.9104615679730643 2.7038237635817883 -0.6823029018818185
P 5.917240536804867 7.785188084690791 10.093002154567431 0.029535547565271717 0.9593670354245156 -2.048878427777317
P 8.843842902407241 1.5167942253903628 7.757411406042604 -0.34573624209811427 -0.5200943174291365 1.21675528780484
P 3.9612773835974995 6.814085046382412 0.8903008535916954 0.051286823199434256 -1.7054042422405016 2.124508969928438
Ni 3.4539167699965656 3.153756468417105 2.6751410019714785 0.36435154320645635 0.26523114546351095 -0.9907478637286421
Ni 6.344897305451981 7.097260043014195 5.476915754811739 0.8010127917209172 -1.087699535955043 -0.35153716505060745
Ni 8.479025268503744 3.4106232592424366 11.13249354084701 -2.0810115608664352 0.114695369363067 1.2761282304465182
Ni 8.218624124218518 2.166373140549374 2.0981814547654443 -0.3559381223317805 -0.8901897050979056 -1.4412159362192083
Ni 2.38138428095203 8.996599328717126 9.504066622278136 2.1219219259275524 0.6847187104121627 1.103345470022416
Ni 6.48548293979499 7.0437530856476185 2.667008278406416 -0.06255416858313743 -0.4873749728192445 0.15302948905657518
Ni 4.771191640490892 1.8372793784937778 4.996530328680685 -1.990285300724456 -0.647447227655214 0.2245483230321681
Ni 0.4394518616241611 7.023038620356431 10.845187710630736 -0.6563995517524953 -0.28458178207598084 0.0008939725691791056
Ni 3.681479039615063 3.995452076894737 5.583523358044779 0.40990634901811984 -0.3220098450154519 0.5355713300188131
Ni 4.386763446970034 7.538933630763408 8.06176933213808 -0.2872169057059828 0.5065913978466953 0.22582641841364332
Ni 4.197568856905655 4.518786854952198 0.5361512156957515 -0.5441066211833339 -0.9148252442583986 1.743328528090101
Ni 7.336371577875652 4.040220554053389 8.210438524499333 2.01976891200587 -0.46692981759101515 -0.7376628667093618
Ni 2.003449650218377 1.522870344855534 0.9694230608501461 -0.539838075714967 -0.7822841049631624 0.5284015517432512
Ni 3.482460616705469 0.7732729373888435 7.631605120603277 0.06105315855757873 -0.38290822316272116 -1.7751132767008655
Ni 0.9936542542165184 2.5070718269575343 11.87334226393568 1.4031692658591317 -1.011927583130051 1.1242575375847348
Ni 0.881101330425878 3.5826841200668587 2.4993584020181605 1.976122636070829 -0.8117749153334277 -1.418487127163125
Ni 0.5850236245359168 8.431381070682187 8.646264195132753 -2.6609984408861465 -0.8241496348486967 -1.8280954853248517
Ni 6.271668470248834 4.445678614486527 10.36929582994843 0.31168172361656643 -0.6555199773610195 0.22625219309715228
Ni 5.323840216273454 8.97497576463573 6.370127579835756 0.8217237990160234 0.9362597599830909 0.7528544868481356
Ni 2.671386795028646 6.112919413138183 12.736128036694332 0.730397186285884 -0.4929416682737446 0.9654631210199244
Ni 2.2293328700304693 5.586523384052469 1.7866268057980912 1.7823254781785887 0.00197589277944821 -0.1724382326004901
Ni 3.2810395755646082 8.571716239031975 5.124182641255233 -0.28335125210298945 1.0425028848137465 1.0134149663088545
Ni 8.05216628042763 5.193570070243835 6.084967408294743 -0.70870710290696 1.8325020990329792 -1.5760415006732469
Ni 3.8989855634316593 8.543079627140397 13.369568593023482 1.2590671611991735 0.10463618535485204 -1.3551562283149627
Ni 8.929112658321522 7.624518788298781 1.9663343006303617 0.7772912797342613 0.7152245923105037 0.16106547198717422
P 5.324471019515639 3.514724347239615 8.26668854831759 -1.3301033991113933 -0.4081644266263487 0.4035384978185631
Ni 5.866293898480102 5.951025616334872 13.698637308479757 -0.9031647772013349 0.9487776899444436 -1.0234083300761405
P 0.4749837095439252 0.48653761304601806 2.22512782429984 -0.5207373503297742 0.2095251101504585 -0.7312528494179601
Ni 7.9374064729411655 0.4420214571842412 6.047209195990793 0.33097656729043645 -1.2600488083861525 -0.3025183119497435
P 2.219907927470753 7.858927128398648 11.700383436142971 0.3468726696954026 1.2132246489437621 -0.4989212828959472
P 2.3778777570469383 2.382553122253727 5.569050134243924 0.7525570102123749 -0.038984094572681253 0.7435689477811518
P 1.5369892056585732 4.397088211801691 8.901976059433789 -2.035901298791358 -0.2895625231200239 -0.4177849804352482
Ni 5.549101909361628 8.832961546479536 4.08900854657732 0.08807005346605479 0.7421941789208121 -0.9277949170451893
