# total energy = -340869.4052701245 ev
CRYSTAL
PRIMVEC
9.28972453985066 0.00000000000000 0.00000000000000

0.00000000000000 9.28972453985066 0.00000000000000

0.00000000000000 0.00000000000000 13.59645088381680

PRIMCOORD
 96 1
Ni 2.626753185535447 3.887805405542168 0.09304123486690175 -0.003916561445586803 -0.4448291290372339 -0.1517691342869128
Ni 1.4496150461590218 4.8299135172482215 1.8087762293921235 0.010626883586226859 1.2330524823029667 0.4926480482927258
Ni 3.072111863659768 9.27893904380423 4.6149204961660795 -0.2951240763682014 -0.21144623843257135 -0.682931793715069
Ni 5.500548012408374 7.089313840562435 1.2905573137175457 -0.2888963502909347 -0.4122992747303287 -0.1403791472824163
Ni 6.099122115290301 1.89330157388885 2.5070495126283583 1.667734752714186 -0.7406196353448407 1.5323767127954449
Ni 3.0759949684647574 2.242771716613425 4.778363907503333 0.15262094076424684 2.071827323264006 1.2300869719167395
Ni 5.576129210239446 8.934485352263135 9.47146393741904 0.303153117320265 -1.7957088414640296 0.9973041767899211
Ni 1.555712988689588 2.4612939040003883 2.064226929269018 1.6060709571558018 -0.987320840324964 -0.29203772413339385
Ni 8.05411674901152 1.1557067451536764 10.241390723004171 -0.22210680347021103 0.012015279293321243 -0.18007132366571568
Ni 0.296441608853002 7.0068489569407 2.377393757956713 -1.7065915776803835 -0.8833148323549432 -2.0770034681483067
Ni 6.909966421028671 8.060963275904527 12.945194740772962 -0.7269292823419417 0.6732407916795502 -0.3692818906285382
Ni 7.481646771732508 1.7129229949451497 0.3159500301220843 0.4842960767836047 0.36340871967721283 0.6096687233548597
Ni 3.640903110070897 2.886828310225556 11.849715136939151 -0.6226515087677728 0.24024387939055397 -0.6892320249014839
Ni 1.1155472665126085 7.694167797148125 8.099432953674716 1.0469840605135516 0.8108408335549325 0.5552667515652114
Ni 1.8077432120373034 1.124790542304388 8.693924222676758 -0.8987537926178328 -2.299548130486885 -0.09666833665802707
Ni 5.657915943978971 5.224485272002031 5.501736168160905 -2.191269977504071 -0.6489862900075598 -0.6837897708399902
Ni 2.3184458116886364 5.437637998677791 8.390152092288787 -1.6820503980059096 0.39058579431263696 1.0515071451948859
Ni 4.698909823564127 0.9271488684824324 12.05247823583046 1.2041915922072164 -1.537491665424507 0.01046824652117552
Ni 5.015215650131261 5.421724700756867 2.8929985451812343 0.6154742742930432 0.7312819028836824 0.9925779749588456
Ni 8.19440087738505 6.47126847530908 11.354042382416983 -0.4776006670413 0.4190718175674718 0.2341295389627
Ni 7.579430410912679 8.240450041304499 1.6082835391475578 0.18953992527778324 0.15992647328672457 0.28015537087351106
Ni 4.457367699079646 4.932815794580423 7.716380457194078 0.9453059293457591 -0.5294698451067655 -0.5815256852617404
Ni 0.40146937513109276 0.33401204129993034 0.9063733288033011 0.45964562522477614 0.04466674677975533 -0.37712349816014407
Ni 8.999792114892491 9.08936363769082 12.248144914242031 -0.3716989847104631 1.3071629882651359 -0.1862712818288405
P 9.21967989176829 7.570307901538279 13.695705073360712 -0.30003025542056716 -1.1042880364413432 -0.2122085705198926
P 2.782922742656658 0.916667272426287 6.669548353198267 -0.49296326554029946 -0.9634869711301601 -0.11341007489274017
P 0.5924819016113257 2.2894340023441866 10.6361222610179 0.5018148023936583 0.3071097879751678 -0.04100523876776809
P 1.5051025700829401 3.4683278996348297 3.9702452069079857 0.9517557987361608 -1.0768157991630034 0.24989708620960185
P 2.436118750838858 4.623310046284226 11.359045827986282 0.5029291185037597 -0.4227654643689751 0.11650542598861226
P 2.8287582429145877 8.551107715428012 9.676526243102778 -0.45733343215183175 0.42169871366735767 -0.1522707565136797
P 8.845229680094876 4.247392058153424 0.26098365973778287 0.25929678225694697 0.30348607517965154 -1.0288305295329765
P 5.520623106866701 3.180625134537935 8.659687872321959 -0.4661302045078553 0.4929578662236607 0.430723028653155
Ni 5.430382723910574 0.4121098254747151 5.774331054443556 0.900423981231404 1.0875540115161142 0.21618298178660833
Ni 0.7078547049966785 1.3208408863342511 6.020767005749253 0.1666581355836033 -0.8923234636114568 -0.07033432674918855
Ni 8.608880511557738 2.590736923982956 8.42060845377959 0.775749132058122 1.667828855089889 -0.6238319022291191
Ni 8.809129811022661 3.3772049928593875 2.144024733011537 -1.7931547075836087 -0.8986779450745749 0.6122652804374423
Ni 0.5979005978619237 5.7517514502832565 6.1365541308434635 -0.011805477275360314 0.6969152524783546 0.4972258974713953
Ni 4.083298366107201 6.870067054671192 9.021938817895107 -0.4968065505457896 1.2944614815380675 0.0839694010341199
Ni 3.0986154474124787 5.068984575038618 4.350619475840111 -0.42337995802452244 -0.8396150774741474 0.9904421595627653
Ni 6.399997709606033 1.2663473629226145 8.13808749696074 0.35111216169804693 0.5348496213614401 -0.9955519699855049
Ni 8.716789950349003 8.11214036770042 6.014280920163504 -0.9511649592296975 -0.635296451225293 0.7005047696018258
Ni 4.2000794917136925 7.298824995267966 4.881111975410266 0.5782197608169589 -1.350609232374229 0.010229133927175931
Ni 0.474342618295529 4.7255806223562855 10.459898975804514 0.5048021671567564 -0.5882609471030449 -0.9196440058032808
Ni 0.12775229013924747 4.894690765585987 3.9252820117725165 -0.19707248620940254 3.6590333251945046 -1.3699241306527568
Ni 0.7376998026210502 8.09478716249535 10.471007628258596 -0.5780490395670497 -0.5111543346270294 -1.0891866620235306
Ni 6.062817872280981 2.9914677660231477 11.993429031566274 -0.979502629832126 0.08981300429909048 0.6138912460766396
Ni 0.7838771647374093 2.336402848980606 12.929816530978277 0.48670211512193595 -0.038103748850256955 0.6422078336331456
Ni 4.099899103634748 1.4021259749554273 9.562682528355944 0.056852233102353704 0.19250697832590719 0.3698655310461501
Ni 4.8943377560582615 9.323074524494427 0.9032268991443306 0.48534354421151243 0.07346850150279605 -0.1234862281818196
Ni 8.282532492899232 3.442028689819224 11.824479600568932 0.5426608898757428 0.20380209162375226 0.4871988522526964
Ni 1.9677772945146754 0.5685106967338305 11.539076971236904 1.0078665256867996 0.6887466006246332 -0.3231048778518435
Ni 2.1107647326926346 3.5136524650499976 6.662627508509949 -0.28738299897020186 0.7735724361217775 -1.3549343421121438
Ni 4.271452444385292 8.351917444546268 7.104444943687712 -1.9207403026457825 -0.19149807744541858 0.9030099967910254
Ni 2.9424366005668543 1.3014996801046181 0.4024438672221055 -0.4704319172070027 0.28126274500507686 -0.6425762727161578
Ni 6.3401068563099505 2.8188739761382524 5.953178686803855 0.10234481821751407 -0.2326493548727477 -0.21699699304747144
Ni 6.545660588415181 7.782383020182031 7.5190546340021935 0.3132778644590927 1.5877050530541044 1.2459445077742863
P 3.4655781412083306 8.570811220909786 12.709390879058917 1.8894425209737653 0.6220966647055673 -2.3115042744074965
P 7.019984627261882 0.8907935319888355 12.048603491777444 -1.312085622377734 -0.5630312260019787 -0.30048456934916634
P 5.241020981458681 8.974245372754407 3.8036618687188506 -0.5187370320702938 -0.24257664128878872 -1.021417524898357
P 2.625907820613787 9.183301330963658 2.272714356344142 -0.5795603340052534 0.5320892850074838 -0.3855181499817425
P 8.07970065004726 0.9502552000169984 2.3508938900937686 0.1707922123566349 0.2729262001149235 -0.10437573260461379
P 2.8010748641613183 6.286477277268802 6.522217039884392 2.08773550985383 -0.9489890346243011 -0.549641434958634
P 5.077252429766943 2.2975718009307182 0.5830528313312694 -0.8523651780509642 -2.05499945307339 -2.8021931420913226
P 0.4362268790255077 4.391262020150699 7.845315329251209 -0.9572623303766868 -0.12256165948502118 0.48888061083049356
Ni 7.0858116144584145 4.638350110110247 7.417870026714112 0.7441261058362023 0.0636062639967356 0.6300447159080504
Ni 4.957990947741954 7.3416227556425655 11.259180361564967 0.5922230170745865 0.24153097363309367 1.184870266170785
Ni 4.142204508615415 3.433649358397932 2.015075926367786 -1.8949894189339234 1.9512500411988654 0.10957810274115967
Ni 8.76505006867895 6.356716883561912 8.919122006027512 -0.4711068317868403 -0.8715633482459699 -0.38884978545813675
Ni 1.1621631036213012 5.677703056980468 12.803397316292418 -1.7882600984954686 0.19884551894942532 1.187629059862845
Ni 8.076885863549863 1.871145581161821 4.304459764200138 -0.006647073002872423 0.910241224432142 0.07351092470495726
Ni 2.4082681570461397 7.8013526374351105 0.5970143581528427 -1.588857935711625 -1.0616120948393717 0.8052682245631615
Ni 0.7259678096588007 0.439116912290656 3.1865594104935013 0.2229537248515386 0.3302175776372248 1.8645411297463952
Ni 8.810922727834534 0.37841878194300993 8.11069117069186 -0.14838119165128638 -2.0998487481775965 -0.5423287033473047
Ni 2.599069806782178 3.134315858334899 8.804123578536037 0.2349039552348793 1.6803187600267833 2.3615451410149717
Ni 4.406933785236862 4.740472050591685 10.275599204185728 -0.1216023808955454 -0.4717395802748327 -4.139476089670291e-05
Ni 7.37870733550265 8.861226585535524 4.254071370006981 -0.4491323843982781 -0.0507674603608545 -1.0972416711175232
Ni 2.635615582626259 6.787016918411384 11.355578902835033 0.32185943548051665 0.9707038005935734 -0.5535546539701112
Ni 9.20932184904685 3.540639114472228 5.618923254724282 -1.1781432318595968 -0.8072690570432742 1.5211168236109094
Ni 7.187357592026194 4.441305765568102 3.7289901349078933 -0.5879045922048907 -0.5323044863420833 -0.12889274390937158
Ni 3.9414256948589026 1.440455377886967 2.88822641374984 -0.3803510039585063 -2.1718882305433502 -0.40322970832889266
Ni 6.385282786134496 3.7246685551105707 1.2765502672463445 1.616047094531907 2.5506382085633232 -0.3453042967670182
Ni 7.183836786473346 3.9250572004417013 9.728518972702204 -0.1725189652397545 0.5672730319974681 0.9170646751118787
Ni 4.168875307407575 2.4359979844214776 7.175867131898705 0.7775856710462286 -0.3519156314359488 -0.6197063100965199
Ni 6.321536697206667 6.2875641750252225 9.439974558573416 0.5947910349120789 -0.010594744796710786 0.5456197153937506
Ni 2.5808062085845513 6.99748491473154 2.8509170225589404 0.9512945428290261 0.24504901408868118 1.968236548454533
Ni 6.909102476658184 5.677210701586534 0.05232437276100286 1.2868052505443903 -0.11834376474893168 -0.160923032872039
Ni 4.311974222278501 5.476961402121611 13.079717382065024 -0.2285736421414773 -0.12319260820080075 -1.4728487326331408
Ni 1.7035310835627488 7.921366587137622 5.9296022952139475 1.8695807490528316 1.7305540020332517 0.6491765516414949
P 5.123134378646942 3.526453705292281 4.198325591744358 -0.7502363324989982 -0.8460191812282786 -0.6981334411561719
P 7.694585834746747 0.9470966937162898 6.259655984941138 -0.087942526749255 -0.2564140613925132 -0.1078104693177756
P 3.538539636754698 5.953477815929981 1.307222150343549 -0.5610381068313499 -1.2829185138954744 1.154819726642308
P 7.10412166127811 6.385737982630775 6.199002445270678 2.617937862251246 0.7956702964620813 -0.7776679463473897
P 5.9517685066378325 5.2855744997475 11.762561729405746 2.110680548685778 0.23883440063753703 -1.7316528915243852
P 0.8112066049905109 7.794831250896589 4.136787670309699 -0.9414932404678882 -0.21222116892538292 1.1608232525239104
P 7.156339202208353 6.388608507474654 2.732546425105239 -0.09901806783712624 -0.06541503507070025 -0.15883606843602321
P 7.76871783556926 8.313383667677623 9.639611665199467 -0.2724667439800017 -1.2131760550940138 -0.331439622969784
