# total energy = -381166.7184341358 ev
CRYSTAL
PRIMVEC
9.28813049603411 0.00000000000000 0.00000000000000

0.00000000000000 9.28813049603411 0.00000000000000

0.00000000000000 0.00000000000000 13.59411783957285

PRIMCOORD
 96 1
Ni 7.461210985216832 2.21504265742506 10.713347721594797 -1.2309642323153702 -0.3462643466874424 0.5458120339102148
Ni 2.8874011385130407 3.6166494191101166 7.124813473605338 -2.3950268177121847 -1.01004219318188 0.491144981384638
Ni 1.8363562875009274 4.199758253915175 9.416033662402446 0.8665283569252237 -1.479713320963458 -1.0687407354643528
Ni 0.23582006133162736 3.138245679793388 1.7165839866634283 -0.3907650002029786 1.1627412954822296 0.04809351307311717
Ni 7.209521224058064 6.565389371657127 4.008619673321254 -1.5238229096881626 0.5708206401394105 -0.29523540513508506
Ni 0.05955920822401976 7.459009698280726 3.1236967521279118 0.06412691238689601 -0.5973320561663777 -1.1204417633830703
Ni 6.316996896837253 5.055157923399194 9.897102166368834 -0.34631474030940357 -1.6635014313591285 1.4178410089386937
Ni 5.153797869650067 0.7176269716753156 6.721407673083081 -0.7431583426062944 0.816911979449677 0.026839488790347327
Ni 4.4610055013914724 2.0226483215832 1.1049382996115538 -0.07443780739460082 -1.8608580244678534 0.48480181277542966
Ni 0.10461964468743586 1.3531691609601695 9.614412340746135 -0.022212788651613358 0.45856987566209406 -0.46465259152106425
Ni 1.4791905160196637 1.1626138749636643 1.0928748756764661 0.03287695323367886 -0.07382382795968576 0.07805123577747203
Ni 2.3530271246098953 3.7839843787763785 11.859182588752228 0.057125798478714525 1.6229998717006566 -1.1052971944321481
Ni 8.920896427119093 6.011853944466265 9.812655412384059 0.09302945435385913 0.07707678767934467 -0.5901933882390674
Ni 5.764315977655344 1.7285210920232794 12.81493029169197 0.13778207597920142 -0.6474539125234333 -1.5977819776741322
Ni 5.953385162766713 9.100956125614328 0.9773379623616032 0.05384455662428146 0.9974229617559726 -1.1203528032136898
Ni 2.5668120250671755 1.4693450976556406 5.556187548692112 0.2827048767682422 3.0940552598788007 0.6726070147502932
Ni 6.467947594244895 1.8602825117516095 8.65072607264061 -0.23841068283655714 -1.843404090657464 0.8742820327287136
Ni 5.232700538520231 9.011548581112361 9.228706930578898 -1.173224968622373 -0.08020607733694575 0.32384715533450675
Ni 2.653386689756853 3.195274801260465 1.6398723877857848 -1.0583007710779517 0.5159748959441243 -0.38302855079066933
Ni 6.330789770677416 4.198151407333122 4.337298748460577 0.1642389846191494 -1.2572612183386864 0.0044971165394051575
Ni 7.590167389524469 0.21556543508028309 7.268285368308536 0.31690569101966715 -0.1762277815499094 -0.9250245533889037
Ni 6.878510828155186 7.084103597483156 10.973444169698165 -1.0377643416874966 1.340862694510426 -0.4027980201081127
Ni 0.21564159775064629 8.348766162602972 10.189348549496003 0.557285067546821 -0.40827806938607747 0.8054381744821226
Ni 6.762056247543752 6.802998326929236 8.533707702505877 -0.5388767402429623 1.9742202768417936 0.009160840563661643
P 6.383407030141748 9.066673635820358 11.66149680494623 -1.180003424996787 0.2929964885022373 -0.0498878859693786
Ni 7.817819468866171 3.6984221203146994 8.514906668682807 0.1699728017791331 0.039616071729725325 -1.0515282282408085
P 0.5079437096610097 6.649929935760276 11.67741480305214 1.9148105674249087 1.4195446218933616 0.9006538378540232
Ni 4.740986908151008 2.777875503278551 10.611418848322508 0.12674510143874945 -0.1056286311751084 0.08727403992732066
P 3.307150333519575 8.95318196884866 5.400616935157803 2.9106003644528324 -3.2144001142181606 0.20839151076664758
P 8.577941495351936 0.1973319060327232 1.2013667419827332 -1.3574514521070429 0.48146117843797087 0.0780689763892849
P 1.510027109386226 4.544412913569705 5.187665180009252 0.7089865818205918 -0.7138701351651382 -1.1528150375074533
Ni 4.80436911090204 1.9114508228529328 4.066408563865856 -0.9682800216434292 -0.3166352109670999 -0.5539806857639362
Ni 0.3283753532709222 5.097326036014915 7.792026330378537 1.1958740734804565 -0.6132106750698472 0.2761120540420729
Ni 8.087918304739556 5.486034298783181 11.836466607909879 -0.34757766618222724 -1.449665095427826 1.8364754818584308
Ni 1.432471219443215 8.435573030555952 6.178131914877975 -0.03393521929486413 -0.45646054262857516 0.34432804889667795
Ni 2.7987459325841737 5.80438497277081 6.595947321107726 0.4470883573850558 1.090506923496851 0.6937867341517019
Ni 6.616873479196541 0.8305483474323399 4.865008528706942 1.1382736493581689 -0.4245089294226431 -0.34274193535648073
Ni 2.4999839258887366 1.7665002577690248 10.139227010705646 -0.15541135902519043 0.026742558201166847 0.22993838369948785
Ni 9.174434526253748 1.1099687511077376 3.1436940971635163 -1.152082530216803 0.4697492893176813 -1.007301397211949
Ni 7.6162298837975335 5.962041700422628 6.544466928820525 0.08431624285057737 -0.0675873601316707 -0.8637903891687704
Ni 2.508519717847734 8.507686076007154 9.578564800957508 0.9460644047783383 0.9615720134956343 0.07460004400407798
Ni 2.493714437779571 5.95881871912799 10.49672529725996 -0.6243286393598796 1.082315131714678 0.21354554416376123
Ni 7.272708376067921 8.787091618673701 2.980388328522078 -0.13488367138548385 -0.6940263609663337 -0.3623124012892406
Ni 4.449302456921029 7.254466487702882 10.788115314752073 0.23026645646286795 -0.754742705009784 -0.8556207088737845
Ni 6.950753907433837 2.5260928608144617 6.466993703239249 0.029097431586588597 -0.14990199917118702 -0.7160218914008185
Ni 5.362697213447463 5.830735399090371 5.798788874125222 -1.7339247182776978 -0.14308831868346325 -0.3775204764882466
Ni 4.894965536112115 7.183031475780523 13.0362970931026 0.46159914940672114 1.3140237199407112 -2.190833661297601
Ni 8.680185236249262 8.124197742597927 5.131656824087653 -1.1672075587836994 1.3052266904743715 1.0308868978413728
Ni 2.940176296196417 6.807363748279321 4.396636899177932 -1.594453170411215 0.5482892918061137 0.5787090417485518
Ni 4.879110697293825 7.705925360345996 3.672138568534971 0.7469067539051331 1.4174771978413718 0.38236469195442535
Ni 0.1505057959551554 1.57771900470415 5.595746625441366 -0.6211330152407173 -1.509670786557497 -0.6558215677618383
Ni 4.961013432325858 3.1654691903829653 7.591757517471565 0.14925845204991714 0.514246857509424 -0.5822810753705263
Ni 6.240602023210753 7.981727108366089 5.666041983747436 0.10939555441670838 0.3332813041642131 0.6972710931558765
Ni 3.2259442082774497 1.9662786573839022 12.688260625121337 0.11503526920098897 -1.2885433162814195 0.6312361651129903
Ni 0.2111489290122709 3.9507527624801826 12.917049571640167 -0.405204058446444 -1.1867829098124658 0.5005508480795702
Ni 5.557292836225431 6.948478315453474 1.5101302076351326 2.7842956929856113 -1.3226222602429996 3.052423700380943
P 5.534722679032434 3.691836835767443 2.194403502569687 -0.5124997929113302 0.8091248793050902 0.814918603168732
Ni 8.722176874384873 3.853255256284759 5.83019111464119 0.7887740835628803 0.3128909134333192 0.6332665652794578
P 5.962812615256793 5.022064314313332 7.680839977404909 0.46598622273082335 -0.4705676714539186 0.026885254426618214
Ni 7.504605131062791 2.7040162892873147 0.4634191983292955 0.6580260316123249 0.7174233997340355 -1.0528778002901673
P 4.144400995943876 1.4838531575467764 8.692174355140093 -0.6436756764279238 0.10992802988141068 0.45089873227008154
P 3.6147360642205046 6.719433016531958 1.0838783924430768 -2.476173918806161 -0.9460911442512158 0.3277963697902419
P 0.9893159354957958 2.102953498163712 11.92212267648993 -0.593469744997494 -1.060251209936103 -0.6999067310065108
Ni 6.231248875764932 5.335204347072455 13.439294215881445 1.5692918406542393 -0.4829956128046263 -0.1864566583667692
Ni 1.730397294390763 0.8277990607948392 7.733938362030801 0.21218388792954426 0.881978887152339 1.0033997481646977
Ni 9.171109375523256 3.7329832540246333 10.376037186751997 0.3783074911659162 -0.28351785958784076 1.1887318060087206
Ni 1.782494418545296 0.2031564926894013 3.7598473139626174 -0.6050751904469063 -0.6731546597236472 1.7990011390620566
Ni 6.425472973321615 1.7714415432121005 2.230631855710132 1.6118225149275982 -0.6841970335807378 1.6780986124470132
Ni 8.909258399562374 7.527964779351015 8.01552661537239 1.2799589170465182 0.7054032353447077 -1.3379923149411668
Ni 4.339451737117916 7.958683256515956 7.397918877331963 -1.1467513478118767 -0.3861822659283026 -1.7743576294817636
Ni 4.36657307827164 4.2411461635662 0.5222790103242484 -0.9380574753134618 1.0635435075341297 -0.9554373613528061
Ni 8.562857571367811 4.867621279825621 3.813775128645027 3.0455102610905613 -0.5220190452556752 0.47525530673757505
Ni 1.7172174371657172 -0.23399494368207027 12.050233860919146 -0.22006740444267908 1.6514478426287043 -0.9756804278725584
Ni 7.392441666757185 8.922354663612632 9.504382360023754 1.2083369818341578 1.0008134754947604 1.0237718840631467
Ni 3.5330933968433706 3.6616039708854666 4.847702883899538 0.9319662748140594 1.3409850790209032 0.8383770913019883
Ni 2.0042485349991157 5.08707193990748 0.24257438985456842 0.6788414256957792 -0.3599305313206253 1.8062948445099922
Ni 7.4020920343800345 4.725559323337195 2.035107419878955 -0.8680519926586019 0.3708101543476065 -2.0044865319255027
Ni 3.35584800189936 8.977776938497655 0.5127391714547314 0.7215906437378475 0.6564689715378501 -0.7625637437160996
Ni 1.7669739524261616 2.9653099774162714 3.6415787614582653 -1.6991695741846993 -0.9913772697825248 0.8671600769719516
Ni 2.574223953231789 6.896483360734794 12.670098614678873 -0.366060298367447 0.8994688164069863 -0.6628198534565424
Ni 9.15761372186012 6.044993994204788 0.7011136044023001 -0.3910115689961459 -0.7254347000742861 0.28602211406693323
Ni 4.46560312600486 5.359985079332091 3.4231618703046283 0.24541462495821606 -0.2991275411006397 -1.2950970582395374
Ni 8.193561501411628 0.6554317920062867 12.3884286257886 1.4168711888262566 0.051087819814750725 1.0402475131206665
Ni 4.314039411982098 6.110763246502568 8.665692966180032 -0.8787115292549771 -1.3120329147629273 0.6127615033475704
Ni 7.425219479404956 7.503444114746278 13.313154901564195 0.26583021250009053 0.6534620663907262 0.24533003566420974
Ni 0.5746779987210744 6.242989072757503 5.880421324558771 -0.60150727058999 1.1570195625071042 -1.4608985022498
Ni 4.395747096272958 5.040259762025711 11.654305005475228 0.8509811532192442 -0.22827822238824558 0.26533373247964626
Ni 2.177026339157187 7.948243397797879 2.2143051798608115 0.503447452901075 -1.835392018986265 -0.2760295216305956
P 3.3823377501769016 0.8215416472553653 2.6652355578766493 0.8040081269038153 0.627032668554604 -1.7602132196605815
Ni 0.6923669718802242 8.263566141232046 0.2922203763616809 -0.30294074419914274 -1.0273410894716435 0.05676970069087642
P 0.2758175378419973 2.494754708399166 7.477961199818417 -0.15887154965964898 0.6997146696003627 1.6283606217919377
Ni 3.993784671235389 0.06575717772808819 11.37478336117703 1.2961949192894064 1.0999472429741444 0.7574035396713988
P 1.902850013980211 6.829515939598374 8.536739348311555 -0.6652348906559382 -1.389838867298813 -1.7099720641168423
P 7.782440979669413 2.4334158943651962 4.038200511439878 0.259348718540805 1.4188586515699306 1.2251725653342576
P 6.6998350611092325 3.7739624859322456 11.985321903069478 -1.112037084259143 -0.5830053551310604 -0.029698041285064987
Ni 1.4741470611407348 5.360588807816677 2.83563745824461 0.34079535315307113 -0.03966877934453168 0.1302004069772016
