# total energy = -340894.0061117834 ev
CRYSTAL
PRIMVEC
9.00082464928002 0.00000000000000 0.00000000000000
0.00000000000000 9.00082464928002 0.00000000000000
0.00000000000000 0.00000000000000 13.17361669152652
PRIMCOORD
 96 1
Ni 6.250730480003707 2.106714945797909 11.460940462796952 0.6091699293415702 -0.3039750990009281 0.5359821923039866
Ni 4.5475044881839946 0.22572267305847254 6.026903380553422 0.029521920718516895 0.46234862597823595 -0.3193063300413598
Ni 2.6684833959772876 1.5876554071610165 4.696183705133075 -0.0004077769613799429 -0.44075984406386676 0.12882795210970716
Ni 3.1110989334065238 4.178155660966735 4.6021502929799345 0.743153714620604 -0.28675950645359 -0.3545481839627894
Ni 4.835773889653159 4.55700935869798 2.5617282186873394 1.1283867292617598 0.32240348090944476 0.10482207611341303
Ni 7.257427679470366 6.341134759778781 2.670529283352126 0.21290405392502043 -2.328310290221242 -0.07933395914463756
Ni 5.1254744221940305 4.4593054103747605 11.60017241450789 0.6787802334405406 0.6547221640500724 -0.3313529767932487
Ni 5.6564600530951585 7.998105515261964 12.242412734791712 -0.7162792588272632 -0.5875181553997495 0.2838672725074595
Ni 1.6487530028512993 6.594309947105869 0.4508575922868662 1.472663098984896 -1.431070106034458 -0.45612758476918863
Ni 2.636656481074394 1.273913672780317 0.3353032091120005 0.4487654879771626 1.8374337320066418 0.6810461466565818
Ni 0.3871110539902708 8.958385463553785 4.73662620910414 0.8064635304228434 1.3468862749966868 0.3964517661751108
Ni 8.3520989361375 2.5157124042785295 1.4232643512259362 1.3801944022305135 -0.452539353197298 0.3802766990771451
Ni 6.751545347682408 0.7432592722152834 4.857902416318533 0.1059307357965595 -0.3132742649146669 -0.6628216532287553
Ni 0.849338487596519 7.5450310199376025 2.8545781396684045 0.2302533438367454 -0.5235527082913822 -1.5664847102227473
Ni 7.268183664569054 3.739896522523076 3.742150328940408 1.6538718786891646 0.7906304200453287 -0.8011035516625106
Ni 7.601286172127389 3.87460285975065 12.69869422383211 0.21190363768496406 0.1861247289486472 -0.7807201029101521
Ni 8.15897724887605 8.790835118271728 6.881462346273152 -0.7301783854068586 0.10140353735016729 0.43885928460704415
Ni 7.073009789355722 0.6361584632702811 0.3334400384714748 -1.9375458042388956 0.2765311438573625 0.5608113355325245
Ni 1.951720750484611 6.386984959019544 9.043134525389524 -0.4478123800352739 -0.2204870084786009 -0.2778802016860891
Ni 0.09335925040929878 4.940327465307007 1.2940944210562721 -0.2452441608186228 -0.8979276971721117 0.6252668349034328
Ni 6.393258533591749 2.0809905898045638 6.921338698392578 0.0866718875669475 -0.500230488625674 -0.2760961132024729
Ni 3.3341843649303393 4.272061261414101 0.3575739488021105 0.20873475303867922 0.4272592384742706 -0.31822261005887775
Ni 6.025601861352358 5.820014032365655 4.9913387372302696 0.06252691488962779 0.1136378746328301 -1.2622830970333099
Ni 5.65404783216926 2.79528700942524 9.13561349517736 -0.929957986134779 1.2108900872733146 0.47891347231545267
P 0.4415075359517063 5.393113934252157 12.242742164962936 -0.8667016492782945 1.4863020299245693 1.113666906553082
P 4.074457163626171 6.15261249376037 12.549173429806268 -0.33018518173739264 0.2233594449303895 -0.5782675833357589
P 2.331762557030104 8.305780694030517 1.3420625142666767 0.3584539467750988 2.07791775243246 1.5465046675563947
P 6.404077524460889 7.817990019186794 5.829048159766117 -0.362053491200899 -0.24982380976950527 0.427296005249477
P 4.716809994214374 1.0084973643367316 12.625304202326532 -0.4051361813229861 0.4126435454436248 0.03999505233569886
P 3.914404505027967 5.870283636362448 8.120744447283004 -0.034544056523456636 1.5634875752676363 0.34775532941067205
P 4.658718673857114 0.842817390354679 3.773042058193298 0.37989463314737804 1.0248579180384736 0.3749827976680574
P 0.19422068791462743 5.620384749098893 3.515102734537561 0.3998942161977565 -1.3917090877383322 0.1622998586149076
Ni 1.345398219770922 0.9781105813298969 2.717295766511756 -0.20802281457331917 1.3642108823180634 -1.3120568260223273
Ni 1.9749608789572553 6.462708894279171 4.668532272646318 -0.37933747509232735 -0.747112699268352 0.2540977545545108
Ni 5.886260099584346 5.464733493608017 9.236879069696018 0.3586349524376533 0.2612886158759951 0.5005948139436283
Ni 8.585427305772031 2.1773444144752294 10.277357263032034 0.23492966626649214 1.6438065240333626 -0.23511658546631764
Ni 2.4382153066218804 4.911812853765049 6.72685698657179 -0.5011414304757176 0.7150253318155041 1.0861512176313164
Ni 0.5165996133419377 0.0976391423878977 9.206566093448858 1.1282208931078568 -0.1921259408374046 0.08547709592789796
Ni 1.4374856536995142 1.0825381454428404 11.428217065788763 0.42421710921383715 -0.22185972045641145 -0.9069026469772125
Ni 3.98018252938044 6.8594022258728415 1.5206703722631596 0.620942496496466 -0.1688173480184512 0.11637378550675442
Ni 5.4245358120592835 7.8126525303470284 7.986688869655961 0.31168172361656643 -0.23299413980667616 0.5426328648512848
Ni 5.185554924732722 2.828374039737185 4.690650898404906 -0.9309779427588613 -0.03643818822237596 0.3376352102575347
Ni 0.8306806788006458 7.075286997916364 6.7399378846001765 0.5794227799861247 0.6441369323350583 0.8163741046683359
Ni 5.214204548639937 4.6349294950990965 6.9657343644183225 -0.6999190723016849 -0.8612773929389296 0.30482819102984277
Ni 8.261667653889374 7.223728593102597 9.22093860977152 -0.1817116874826161 -0.6980645355914494 0.09819865725962444
Ni 4.629240974109666 0.541336578904048 10.482338436457525 -0.5318671416943486 -0.9926126848515229 -0.943554236761975
Ni 8.320974085533933 6.968204190620063 4.9557962820355455 -1.3052308042394296 0.17901871403148525 -0.6700294838311042
Ni 7.243125369577635 6.2699922441134905 7.249967796248783 -0.28894545836131524 -0.36795468717668245 -1.0287582815341443
Ni 2.3381441414945137 5.197535021943059 2.5148960295099516 -0.5040766018446415 -0.2865898136449451 -0.19793689109222687
Ni 2.4105647742175567 5.261683897088116 11.246750545978601 0.34235215611722974 -0.11950461782625227 0.548735635314913
Ni 0.8467309487822181 3.459349828346525 3.75807728762838 -0.1546179165896176 -0.4701352119021903 -0.7333814657251886
Ni 3.6510133820632142 2.5559010850029127 2.6443134823492502 -0.8671017129301906 -0.4475015336630745 -0.08863081106553124
Ni 1.2106198759485454 3.1731596173022956 8.162952012909173 -1.1155687515614852 1.2607941711926092 -0.15601608248872487
Ni 3.6299874563807597 2.651381829711593 6.7027230762411545 0.7179008535910861 -0.31797449860381366 1.1323071473620887
Ni 3.9410109418076487 6.834307927584022 5.967279219809294 0.9703903831182128 -0.3149426537560253 0.8661568325184179
Ni 0.9121525404904166 7.55384282697661 11.376141896427285 -1.3135166983973057 -1.3316812851214743 -0.20442609836099632
P 0.1420699116286082 5.5082344776933345 8.00514596006882 0.5222671567107393 -0.5256383871758173 0.28383230550446603
P 8.653455536212096 1.60004054146712 8.00486873467883 -1.576744697387859 0.7100373916826094 -0.10215867034863695
P 1.8670769982937714 3.295345807858511 10.292466946868993 -0.18915683090675162 -0.8344139928891824 0.35960862920483233
P 4.073809104272945 6.1264380965495056 3.8322971851390606 -0.5358443811745417 0.2654401761505235 -0.37162082317435996
P 7.047924491891252 3.943369157787444 10.541264133232064 -0.6092488622086217 1.0288708958526087 -1.410267824577126
P 6.351431702835599 7.75930464442241 10.136386352056608 -0.8562202901309963 -0.744963257025517 -0.49886883239145696
P 2.4039221658469865 8.388003224471108 5.78963264985343 -0.7240103089229338 0.362757202136143 0.0052589344060941685
P 6.836450123779408 4.036428680745876 1.575485392556887 -0.8780903507312103 0.7632054910651566 0.413497665913804
Ni 5.188921233039759 2.7493468019409733 0.753782135963296 -0.18527806467763572 0.28863589754069646 -1.8675925149782093
Ni 1.5409231271339174 1.021053514305492 6.950426662445656 -0.3241083794156934 0.2469410889050715 -0.37404897299987844
Ni 6.8601492942939215 0.7944703624391244 9.344269705185102 0.02264884774776745 -1.0922992395105835 -1.8731077883694836
Ni 2.752038048421733 1.6394281488243205 9.080850679664863 0.9068787357178124 -0.9746761549777601 0.5817141471234626
Ni 6.182108195156518 1.9803793752161754 2.638121815278634 0.9433940570350269 -1.1450325653485571 0.15874479427379756
Ni 4.041289125895073 6.8932363246058665 10.196958299604827 0.9841501559064664 0.3465667084192096 0.4689491620138892
Ni 8.386257064547138 7.1185989646903245 0.4361925491728153 -1.311550061589238 -0.39194307967147984 -0.36170690649475773
Ni 7.677388142009731 3.793784457908716 8.071527039652768 0.4162232923750832 0.3052153991659324 0.21341081835810988
Ni 2.9295343046109457 8.27779713112523 12.287176534533387 2.233370249108231 -0.7162417207211084 0.038594829554062564
Ni 0.17179063363351596 4.884369340320783 10.175090796845613 -0.6665045013969811 -1.0194868835345474 -0.7120371957214576
Ni 8.534122606974947 2.2480458897473525 5.8228573927779355 0.439116909143805 0.5842428270825873 -0.5887042052880506
Ni 3.6797620150382824 2.696790988559188 11.400526929757296 -0.611676497813508 -0.6195795547106684 0.21106982892975906
Ni 1.093996194840856 3.2534199680345073 12.434576734342281 0.26117420178531797 0.5778371806665596 0.5426341504028654
Ni 3.0159602200231577 8.460486862964604 8.022693067139858 0.6949082493506549 -0.741892074299361 -0.34016311888571094
Ni 5.593931326333167 7.842121229270125 3.4506577322713774 -0.796769443063531 0.1812218923303911 0.44054155740547357
Ni 2.9870585730341332 8.438677865563667 3.635074722303586 1.1236165615666263 -0.9293044117111802 -0.45079974479837204
Ni 3.531158405013744 3.9856010256393604 9.103035011441209 0.3413915919761733 0.7250199811343707 -0.09916719182048082
Ni 7.447039045235171 6.276706859078862 11.424766149732832 -0.20623846897938675 -1.01113002692942 -0.0041073373001542166
Ni 0.49898500008827196 0.1437260633090755 0.40996594718071955 0.11096495578635729 -0.26907391624836885 0.28467639867231614
Ni 4.478387157997536 0.33604937745064584 1.6086435293811994 0.5408924851214104 -0.7109249364938853 -0.40123504649636704
Ni 6.015259914173789 5.716846583661762 0.44855608150047765 0.026327325040619173 0.4072347157232277 -0.2732347324942778
Ni 7.8945780335840565 8.86500191091874 11.223235892363272 0.6770843337953564 0.036551830982104794 1.0491211614612124
Ni 8.963209905405582 4.831192470058822 5.798169931749752 -0.17975893463161946 -1.174776629380209 0.10885793674568348
Ni 7.841932211958768 8.613599885988675 2.5297824929030215 0.07763317440344694 1.3830408705403732 0.4325091740193003
P 8.29703189276196 1.537412805637275 3.3830903440380515 0.3494645987922949 0.44937561075733573 1.5923636348720382
P 1.8764468564425019 3.1030431956129463 1.4760118821663848 -0.9828898011368039 0.06468998397921762 0.7873445502052053
P 4.959220195618425 1.019874406315594 8.079233545461552 -1.8110171896863263 -0.03274839807561456 0.6520448743282254
P 8.499604445591293 1.6981315252374058 12.456971685408426 0.4450415021583561 0.5445845892610169 -0.8802945574713807
P 6.422493211081737 7.775632139793974 1.176140418109599 -1.238415546387093 -0.8712771844641188 0.6826152909159147
P 1.6188432635350338 3.026680201824443 5.919880878780268 0.04825343568974916 0.7857476380317306 -0.5752887032130931
P 6.750519253706467 3.902883449859499 5.761046031716668 1.5181726533809208 -0.09940656152479654 1.3052583150432553
P 2.4248850857589885 8.395563916925415 10.126229821859654 0.09179789593960319 0.9959954852808266 -0.20407591411042916
