# total energy = -340864.5804186989 ev
CRYSTAL
PRIMVEC
9.33521547633173 0.00000000000000 0.00000000000000
0.00000000000000 9.33521547633173 0.00000000000000
0.00000000000000 0.00000000000000 13.66303146765022
PRIMCOORD
 96 1
Ni 1.2811649974174761 2.1125499690365594 6.486756639266853 2.113069617743245 -0.4671887276793567 -0.8645000136412853
Ni 1.6363979589937456 7.358717125759698 10.71627120082641 -1.1052578565537803 0.22414131740173654 -0.771768035923187
Ni 5.633858663155285 3.7451484952559766 5.3822783351576025 -0.8238997236214197 0.6136935282435365 0.4470191947100172
Ni 0.9176479654629769 0.6152569921399981 1.9185352484170088 0.041432556113173806 -1.2531824202836224 -0.18065779229680498
Ni 4.985257214193111 1.3898549133671385 11.922812351287053 -2.101669346326103 1.8419406187380603 -1.020105490955153
Ni 8.8357162773292 0.520314114773817 6.377561688149891 -1.4075087737747503 1.183490355104123 -0.24798367123697293
Ni 2.594517818436639 1.0217673598246504 13.337318768652155 0.1413332836655695 0.12908686219804866 -0.3107299012262584
Ni 3.4309998178070336 3.838883395715528 6.934425972804127 -1.0923048959375383 -0.33800930576750177 -0.7846497769818616
Ni 3.4820727826924243 6.606625475971452 2.6229062092639968 -0.7230947390871998 -0.7510099774402291 -0.1548896821937655
Ni 0.16980290527925665 7.707910202802821 6.619888950383655 2.7036034200408663 -1.5534422752164925 0.868764188234278
Ni 2.5175396300899138 8.413279098204049 8.41037491261168 -0.8068401970359718 -1.0208724510281644 -0.00020363137037384286
Ni 6.339946370162468 4.046442580738701 1.2772880823531547 2.306181833753319 -1.166930908083545 -0.7503072949462497
Ni 3.707667604374082 1.4175524982355274 1.961041285889619 0.8638978612809123 0.5069032726601593 -1.0300260925029745
Ni 5.585987677241872 3.3373862751510845 9.367388548998658 -1.5606411069577768 0.0010688075841465462 0.7455096164472903
Ni 4.974764431789313 2.3074972777007186 7.413315068078964 2.1183825453157255 -0.5268092675554669 -1.7979495578690907
Ni 6.422852420454398 7.371235649962094 9.508390446918309 -0.9797011189961772 -1.1471346992932245 0.9754387441753974
Ni 1.5253649039129857 9.052825387974334 5.218758963540264 -0.29498523679749195 1.3078577003393153 0.11025867374795204
Ni 8.93234509464389 1.2620464757422285 10.579476684605508 -0.3862295742264703 0.3645677729823205 0.8520342770741067
Ni 7.814807757345429 7.361424338301603 3.125759736664091 2.148940106387609 -1.3717786673629921 1.023510917092276
Ni 4.768446830449152 8.26651083757014 7.709993822938522 -0.5454222546709638 0.22223715840048822 1.1385639269050778
Ni 5.308722436872472 1.743612910868853 4.166268475451255 -0.19240670530261703 -1.419625354532626 -0.5826371731583644
Ni 5.349601346255241 5.7784051424617 11.64952484631112 -2.0564588112277358 -0.9017025908335117 0.24614533247665352
Ni 0.6457402053618505 0.5234376779342359 8.705714997545346 -1.8473144814554636 -1.540777021043998 -1.0699542961564799
Ni 4.257250420812158 5.724148869035655 5.134075488186338 -2.1812010233038435 -0.07880508322436104 0.9789534421968754
P 5.1440398973836805 8.889879198598626 10.721722966772866 0.1244799595536566 0.09755819546214811 -0.8037265911076545
P 4.64426979171666 2.694133904763088 0.12232773250990138 0.3311015229040749 -0.4437664921006744 0.3617197620105641
P 6.420966706890727 5.823494234107914 4.762851302181503 1.168206175251543 -0.24536963065289358 0.08340221567674024
P 7.157160484407027 2.7696838051135666 10.872508170706023 0.1541350634159281 -1.0008888088173857 1.1788119757918474
P 2.949256013582836 7.616583787983998 6.049375646910386 0.3464893182140549 -0.15516324757012634 0.19991252676135896
P 1.848942149180288 2.4683617139838567 1.3144058333458073 -0.5795706184178986 0.6972402399179412 -0.9644030551865261
P 0.39510553471070203 7.7195138758703665 8.905455005930243 -0.7922309317632292 -1.1860182637322993 -0.37461950079136774
P 1.1406700017082585 7.505476051177945 1.8124283866409505 0.02577402364031045 -1.179765340844052 2.888050761287091
Ni 5.258200249711124 7.500929801150677 4.181447536117247 0.9194995098056163 2.262861059478497 -0.9649219038044736
Ni 0.7771361663655681 8.310946464120033 13.674098809429859 -0.28993610440935874 1.9207531581615889 -1.63347223198689
Ni 2.904820387032944 8.4950089113226 1.1164749897561557 0.7257422040123759 -0.4197176786815868 0.5572830106642919
Ni 9.060190873131448 6.537712913956472 12.940407803232471 -1.202369194286497 -0.8675012623614544 1.2150784143230493
Ni 7.370582184865772 3.767235615511658 7.026023108877139 -0.23725497196555914 -0.29472966914326015 0.19674852721108052
Ni 7.337022084561809 0.0763153880347411 3.9835932412960218 -0.4148526372798016 0.9203109499633182 -0.4825636674735302
Ni 9.247203248483126 2.6607978496350073 8.180125552401078 -1.4211415340668363 -0.21493651097401692 0.8098278189093858
Ni 6.145792554829557 6.618742585900393 2.022251361462095 -2.5298603525860237 -1.4718262049058974 0.3988557476309131
Ni 7.704250798263419 8.435786303164509 8.028533785834748 0.8561842946867384 0.6896076630733478 -0.6340697779070434
Ni 3.3232340882078835 0.6785702918010649 6.943553013156611 -0.5190329660441577 0.6911840064215321 -1.6530797218051723
Ni 8.751736677236169 4.530053428095246 2.946350894468902 -0.49645456652300957 1.3561257913170837 1.1931296779661
Ni 3.4654094227362147 8.321047167466038 11.976535583898812 -0.3156671906268757 0.45445379661119156 0.4367448093672026
Ni 2.7369265333565136 1.8122360811983185 10.866428144745532 -0.9409306830961989 -0.10211239049173382 0.4565016802791558
Ni 1.5454916288797018 5.1934325234499585 1.11053965963842 1.4789954689608271 1.9954542465199054 0.32096906245576334
Ni 6.605290540131822 7.429113987064895 0.07898339267086696 0.9022204110101946 -0.048103797485762316 -2.6975734117967027
Ni 4.9186691208779045 9.16984231629427 0.004940196128193882 0.7625148927560351 0.6590357038237618 1.3357659967138091
Ni 8.879227717528579 5.919917676678046 10.40405678006258 0.6810052661163174 0.8563588725913897 -0.0680370460745796
Ni 2.868291688148547 5.972082861795861 12.071124656591413 0.3189944552278958 -1.0924897582548345 1.2743053183051667
Ni 3.399745515771521 9.093722967788425 3.8750956307889917 0.6225728330110375 -0.19700872285100265 -0.20268880395491548
Ni 6.421321445085873 1.5753923246442614 1.5274317206604957 -2.071191232341904 -0.36304927945526505 0.1433729398034176
Ni 8.29132384079905 5.923726444668038 7.764987578401843 0.49127893585934107 0.30804155576081793 0.67372827283893
Ni 7.701674278740778 4.176248754515223 9.37956167022157 -0.5210523104670317 1.002364107811332 -0.30983798553960834
Ni 7.6038225481743975 7.712745844515603 5.591404902890382 0.2610250778019634 -0.41933201320739394 -1.8332641740099849
Ni 0.37654619245359267 3.6696266005524834 10.14508762886863 1.930061065826076 -0.04480687190204541 2.219001639091385
P 7.962537545192497 5.557421917316942 1.3072149167215674 -0.2258367028262885 1.5923088703747028 -1.6735217917096081
P 6.671103810547104 3.1234698082622656 3.199567685772088 -0.795671582013662 0.9955817947821758 -1.1934523514128415
P -0.03482688906926099 1.175611713930159 4.3205786568182845 1.7258442552624085 -0.9071674706028248 1.485281559079855
P 1.3099267968713033 -0.07204359334792794 11.76169773122418 -0.12950260957922857 1.3390654934006874 -0.31169329358079223
P 3.5254815355195244 4.750849948926768 10.38723752200482 -0.04713552003522205 0.11200445279446516 -0.41244608472083805
P 0.8451964231906307 4.95106231922415 12.209134617891475 0.8251608497220306 -1.7930760318268733 -0.8228777101148087
P 5.823102155050121 5.408002455435099 8.509186303348088 0.2791642106048353 -0.5273731104787369 0.3229282430646632
P 1.7768089377620075 4.786986568753372 3.56208865021548 0.9378304469043205 1.296616323097541 -1.0071507305666978
Ni 9.318486955276189 3.6892305534421417 0.9510334972340649 -1.1059140020805407 -2.1608826234614655 -2.471843409751607
Ni 1.6911770044968477 5.458281926989242 5.7986588263614145 1.7058120192018817 1.2745344035968371 0.01931772649200544
Ni 7.871024426060439 4.484796302567121 12.61502232669149 -0.4199542201724251 -0.5421422983681115 -0.6905443159550043
Ni 6.07641323203149 6.703160941129526 6.833811018401871 0.007671143392012595 -1.6040665251312631 -0.06270123568396298
Ni 0.6091293565796306 2.2191394614623303 12.520064512980248 -0.6865611629375402 0.5297698928456877 0.38698804965904965
Ni 6.933526058014335 0.6075806443013476 12.42180016588162 2.190168516909776 -0.5792165775125896 0.28680398653828026
Ni 2.0474461750115704 1.927796715875023 3.542878643426747 -0.003075810711846316 0.46244221413330683 2.042165534533515
Ni 5.094441896572845 4.6496282055065 3.1609152253246453 2.1649735057013877 1.6762844420564098 1.6948575770729066
Ni 3.939657048784033 7.123198969829609 9.854966863011445 0.4891567473100156 -0.8297937205083515 0.174711344905383
Ni 8.469467761272073 8.258762608570894 11.408426098458442 1.0718108897492444 1.2410308725227528 -0.5527516984528416
Ni 8.604202928917996 5.526176950497091 5.283972913110062 -1.0801165814014624 -0.05050083696302915 0.009509996372964267
Ni 3.7773456540733243 6.066405880842103 7.524340654987193 0.34433807619900697 0.5805967456895679 0.1255935043328095
Ni 3.4690128159816473 3.8686440632451617 2.187205555726643 -3.624873134373028 -0.9108554609773732 -0.789895341651517
Ni 4.346336383872163 0.8997299525218292 9.082773693338769 -0.40914144582763734 -0.28170163231470835 1.4646646541604518
Ni 0.5047345733559357 3.5580240973163573 4.679137755734833 0.39044052698402437 -1.5212230101714705 0.782525017329375
Ni 2.074676999096872 4.897842254736559 8.656241155102812 -0.5536269019689433 -0.1260413905035055 0.47246051760125723
Ni 0.9344644229560389 7.04796646681163 4.1053860659485055 -0.024882622174292632 -0.4405590409069703 -1.303048194765814
Ni 7.638465533495122 2.598793347209717 4.850895455173658 1.015631257233883 -1.0097082068812286 2.4704748115388546
Ni 4.557144223945621 4.975221857356738 0.461972750974194 -1.562984924599605 1.2354240678589368 -1.3533662262940758
Ni 2.7005471979227047 3.4430795868733277 12.894035119432768 -0.15246975989836323 0.9528408042702236 0.09943587210083521
Ni 8.014151952586268 8.927248066892579 1.3829039117854056 0.11878779426488574 0.7218652375554729 -0.5899362779229388
Ni 5.956334352974502 -0.15227043674493895 6.08506324286366 0.3103113256316011 2.1969639425650556 -0.15689694243178137
Ni 8.554632933754146 2.1031400716495234 2.687204374177377 -0.36718489889019346 0.4101400622954807 -1.948733702534915
Ni 6.810964011591323 0.6749127543047944 9.58129661419338 -0.5328148503195985 0.36731396826889 1.2545075668529493
P 7.117075068355506 1.401822659845492 7.6189026555543755 -0.185180619867823 0.2937909593790747 -1.3412370471307093
P 0.45081063360744905 4.1692566779845786 6.816159059107083 -1.0834993818307663 0.46362646424939513 0.8764497298039938
P 4.343227757056803 7.074021053723551 0.10421274651829097 -0.04617135634973984 -0.08928541393039462 0.2761133395936535
P 3.60562436197558 2.361258784696691 5.244076068414909 -0.9542695662969499 -0.17348415736650125 1.086009806957446
P 8.049812476414123 1.7710117688360656 0.27536459046066936 2.087216918346199 -0.2384747033052732 -0.6037274181697603
P 7.109056118102069 6.673036200189085 11.502441988909412 1.9249710528976784 0.022237985462593958 0.9033370411131411
P 2.2210065045946785 1.7520146049644207 8.773114321101557 1.6674773852877411 1.1145521373715128 -0.8200955193839811
P 5.217806771542767 9.420166124263883 2.6553964938531234 0.6334614548990832 -2.1159225138110074 0.7309954819915153
