# total energy = -381173.60243778245 ev
CRYSTAL
PRIMVEC
9.19451964211397 0.00000000000000 0.00000000000000
0.00000000000000 9.19451964211397 0.00000000000000
0.00000000000000 0.00000000000000 13.45710889251843
PRIMCOORD
 96 1
Ni 7.062816213413595 2.7793561667313433 12.576004641367819 -0.11932695459780739 0.33657205910034294 -0.108707012990116
Ni 7.296881099204704 3.687600008634616 5.453170281727644 -0.3914525131883065 2.013823235945396 -0.7838774175922113
Ni 9.12375859017407 5.142605153851481 4.701052141210976 -0.16390756942165965 0.02306048136388932 0.36080059263040437
Ni 1.6314111985141206 5.100144862278109 6.720022455389536 -1.0165332002228622 0.02331527768717275 -0.4734197961907331
Ni 5.488962707677584 1.1651938870114296 11.070962000964412 0.44834948348566656 -0.04838019107560055 0.5742870014214561
Ni 6.942082976373761 3.882983550413344 9.094852859414356 -1.0359375728914029 0.6868799797295396 -1.1346741049323683
Ni 8.05771840267049 3.798311219296153 2.9646009117326875 -1.0771832098047514 -1.3233457686725856 -0.03601189931823476
Ni 8.08137590163504 1.7848125637393584 4.282240853381552 0.5108990240831137 -0.7814932336307508 -0.141002382688712
Ni 2.6970100490762707 6.216754907653829 13.46154997270219 -1.4307029525030261 1.4785522107758216 -0.7602217258464843
Ni 1.3226684244252778 3.4338588508714367 8.161279035428908 -1.5672781526583202 -0.06478999989219164 0.7567952166634385
Ni 5.144021109871901 6.522003764289688 12.863610134318067 1.4807299351534307 1.6669446527127225 -0.7064514741035639
Ni 8.859600041689232 6.0487158672045105 0.18263993759494848 -1.0625055531879184 0.2457316419780026 2.0560266087863237
Ni 2.9410877667260644 6.0344367782453405 11.049201331396048 0.5690141830582909 -0.39357701573047704 0.16831444024010367
Ni 4.61121708733102 7.951696397011643 5.42172134684294 1.145670456042872 -0.6181433364847742 -0.1307735058718522
Ni 2.3138652222780887 7.010959122795618 5.370261459472249 0.46588003617026214 0.02314532776821175 -0.13765429215208552
Ni 2.349264122788587 2.824271395041418 0.6332569076700647 -0.49596579981204914 1.9286559579484333 1.191190294851542
Ni 6.861272343494078 7.850005010090574 1.0801271110028359 0.23051096837350624 -0.33364897191627696 -0.2926077377042509
Ni 7.648507112769123 4.952205041703062 11.099342724654218 1.002446897333125 -1.5578519742484138 1.480954906680043
Ni 3.729618963266559 4.986408654663856 6.515757007664536 2.9362833710412333 -1.2765154385826079 -0.9598349761998695
Ni 0.3114174598442985 7.406884331856031 4.38154074575125 0.11253152894252878 0.30681822487667804 -0.4153524597343557
Ni 3.345205292761766 2.9204276811553918 8.131430866408847 2.9164712214113124 -0.5346819854353243 -0.5433915973941803
Ni 2.7434423731225097 2.697387024380409 5.7745123060423404 -0.07091822427711658 0.31466137507018066 -0.9433189808227175
Ni 2.515206812766116 5.45841851352281 2.174978325714117 -0.475457138335736 -0.03204648691258352 -0.7566430073562904
Ni 5.93177077224528 8.192556032796846 7.527247029755457 -0.17663247318749578 1.4217660550247126 -0.5257995953440299
P 0.494367252750209 5.049749700278616 2.4250517896036237 -0.8691100016094709 -0.998707227785035 0.1661958512352041
Ni 5.083852173523666 4.75784209160139 11.255283616196598 0.6894076312473998 -1.2215984748297541 0.5391665035692392
P 3.896389160009268 -0.13445421865848822 7.782394029567482 -0.711814023967058 1.2258778189313986 0.46381621166269793
Ni 0.6132192910771996 1.5334619810755894 10.018024003909522 0.27795193546428903 0.37705253571289254 -2.1606885051727884
P 4.599117099520158 2.924307768432127 9.909114919092156 0.856763564228976 0.3974334133620897 0.5556295342212688
P 7.803885299711181 7.2784001147823405 8.021271326924097 -0.9066949018417805 -0.13362563060866664 -1.8669188859499526
P 3.4864606975780768 0.8095958409741444 13.591410609361965 0.39222332991606 0.4650667962403474 -0.021339127797408413
Ni 0.7792208259802523 7.088147114947731 2.1168432171043032 0.5910529080258854 1.1212591170780433 0.040103295778789
Ni 0.09993523367496451 4.512164527538914 9.670964908236938 -0.1371526699253186 -0.22871505281534804 0.40604789450397816
Ni 9.096873814825319 6.936465124890146 9.574033524119578 -0.4480918589489057 -1.226516480956662 0.3162240915716102
Ni -0.2357594357558071 -0.11219704503101682 5.901991562122318 0.22538830243496022 1.0868091629302896 -0.1524309362406278
Ni 6.16132114890635 0.6151216371851534 13.413454360057939 0.10300944838470648 -0.48284726015222007 -2.5154953421136033
Ni 6.026437546181929 5.918512274963167 7.406899962539374 -0.10798170478831726 -0.8463606237280973 -0.06619562199046664
Ni 2.8324085448990264 1.2622144579690362 2.291517022906447 -0.3750573596597347 -0.44243388933218003 -0.19638728721691984
Ni 0.5982910690333435 6.315320157906441 11.709770559576874 2.10130759211131 -0.3447916187966578 -1.2517914534733667
Ni 4.466559710257856 1.065727573836734 4.053241228445309 1.0088787690013978 0.15305828541198158 -0.2735692330155611
Ni 6.952500367095421 1.8251948938801663 6.523010564187325 1.9727033259766351 -2.634358726811431 -0.03236298971173781
Ni 4.6388925913665 3.4156904801159182 4.676749186969585 1.05534220267026 0.956082708246289 1.3657088070198284
Ni 1.7492849399542758 1.0603947524611264 11.83731693565003 0.6496673752349843 -1.0222487625504006 1.560557803215351
Ni 0.6630554262842143 1.39583841150646 0.6575019364378919 -1.3531176006183792 -0.6638760626351986 0.0015604025085844094
Ni 7.457987471865734 8.6943561352023 3.3465945846753082 3.5833066237851514 1.7660604224699776 -0.34901182752559246
Ni 5.737040041359084 7.609577516727188 3.239099616974439 -3.269747480640214 -1.829125983471895 0.06043326558539269
Ni 5.638061037723883 3.4139159378305868 7.224233360837548 -1.1472288016689276 1.980027884662506 0.22968204471430767
Ni 4.477363270803267 5.075567911352247 9.073105981625412 -0.7696959838855066 -0.4957380000719591 -0.9526173754055078
Ni 3.5194046613518735 6.965308332916493 7.494748080730935 -0.5417419776058993 0.6613224429754095 -0.14431961998740306
Ni 1.71304014363937 1.1730276177218049 7.268520603458047 0.23285581445659898 -0.7706046117427051 0.5138023137728377
Ni 6.63833282643484 6.283240478976276 9.772996492383694 -1.1098688729632304 1.351509632701311 -1.20779422195681
Ni 0.5103978976956778 3.1491689400905067 6.106136561640385 -2.2432990781861686 -0.5816874076505854 -2.0779722598194796
Ni 2.329734963130328 4.881076237975992 4.5254239442729896 0.7336306056215172 -0.780545782115817 -0.7235451963610571
Ni 4.224936929344764 4.63647443270825 0.15353744411551176 -0.3358675768341506 -1.4601739653789498 0.7339563643920521
Ni 3.5157728261046928 2.7697478937356363 12.272573541259474 2.2010885062563896 -0.6560555381495153 -2.1366003538753335
Ni 7.498250273251572 7.325889808584088 5.584794427249215 -0.8275776866936392 -0.2341498506776742 0.493662348489853
P 5.663566635130668 7.98906292471935 11.16454198268279 0.7480550085769633 0.5201796780540913 0.870453917231875
Ni 1.9312168995390142 8.183297151546439 9.789199074845929 1.0904824980168188 0.49659160632150606 -0.5034482242320233
P 0.13400092884156156 8.606824308485429 10.77583355206671 -0.18456741176385633 1.2478509807683802 1.2127909038404534
Ni 1.9368531400618547 5.889448398466104 8.979174769257812 0.6794692890877653 -0.8394934642946188 -0.17065954343351253
P 8.67494650429901 2.3373480253699883 7.938859928179771 -0.7161941553126246 -0.734271838749942 0.8561876371208481
P 4.428834596285238 6.816072085075997 1.423048672849517 -0.15123974414600405 0.20730727656353326 1.2601655364696749
P 5.919569644718675 3.0895424803994453 3.0312942791983906 0.5951502180237105 -0.5228291998617964 -1.1961594659313592
Ni 7.618027280251642 6.094090821495241 2.623598246129264 2.6511760554790857 2.474057643794107 2.121479439073495
Ni 8.383958347583095 5.044177821393068 7.358737229901946 -0.35341381324803006 -0.4755502122701745 -0.1050665880240513
Ni 6.103083061676869 5.030009066669256 1.735266975352118 -2.232349006932568 -1.6110792090036707 -1.8494839783029566
Ni 3.3070112582888798 1.1741953217126706 9.969927471813309 -0.6065787715756263 -0.7230260906327934 -0.7898482904636656
Ni 2.2934166106585168 3.581026331798981 10.285133993190174 0.44586039851522563 0.14401674403500359 0.7127833298588627
Ni 5.398865609988654 2.72771974458408 0.6532365987893671 -0.8270444398979886 -0.5338013826025839 1.4865187739210657
Ni 2.782399552723285 0.13409471294161537 5.325368298009245 -1.0906683887753796 -0.11581791300328441 0.3392082111716093
Ni 4.648868645146732 1.4563015724823147 6.3699493961877725 -0.03997165529693116 -1.3102511402721564 0.6954677213985506
Ni 0.5695333700393986 0.2616282166873107 2.866175418178197 0.290264691393371 0.3781609382857229 0.23899869412954322
Ni 3.667123813456205 3.5305576136425842 2.612226464271761 0.4032060541798088 -1.189828381507009 -0.9154603067392362
Ni 3.579582792219722 8.307000218421308 11.703701257180256 -0.1449685664253116 0.8160254630796655 0.9680357668431069
Ni 8.955241434704869 3.671776240380442 0.5422100161051 0.022235414359432673 0.023895575670674976 1.425805772311725
Ni 7.667116820466071 7.244849312714077 11.937316530962285 -1.0609091552350762 1.3263133359413415 -0.12409275141756694
Ni 8.360539906128487 0.7509964091238682 12.152132689943336 -0.16596702305384964 -0.5898352335687004 0.4894225993768926
Ni 7.514883159231699 1.6911296034013132 1.582878846188246 0.09743683939293542 0.08890514777284043 0.6297593234571477
Ni 3.2679989115704258 8.22463571172701 3.094838523696601 -0.2521491154685722 -1.035835757206216 -0.1898201755223634
Ni 0.12433289146836944 3.0183493150350835 11.84672384866621 1.2164719522364662 0.5029586861901145 -0.5876755069132201
Ni 5.129153571657492 0.4115264699399509 1.8970353534252917 -0.5611913445797626 -0.1446284094770735 0.43090480564665795
Ni 4.3501570919558 5.669230459212349 3.3633221742074513 0.8792910559075308 0.5009403702085051 1.074699267040633
Ni 6.039456985954103 1.259226239094773 8.624338029444493 -1.2527764430944552 1.1171990880760567 0.037108474816523185
Ni 9.068802946446473 9.232125198334263 8.228739225830344 -0.4065245770300805 -0.17877703033432435 0.47524502232493
Ni 1.8506545186888865 8.498071530501486 0.32271752444881885 0.6837905421709384 -0.20421063991608054 -0.13070177209365233
Ni 5.917510072325337 5.705833841792166 5.0803012500490805 -0.1740048057566616 -0.8304215839003377 -0.39419947980582437
Ni 7.644700581649293 2.2246691875112443 10.32274601457155 -0.34651760034882906 -0.9538887859187637 0.0038108891056579525
Ni 0.6064548829978297 6.929265816033076 7.24564371920865 -0.15773872160678643 2.465274241174522 -0.6726754060943835
P 6.920907997704752 4.9484260941420715 13.019187842335729 -0.7846621182770357 0.13616510920106872 1.6380436534076566
Ni 1.2802173273715183 3.059329288950744 3.414634029812371 -0.3690702888383644 -0.713293693836378 -0.26756904956806815
P 1.815540648286394 4.4083216230283755 12.324908746897332 0.21896465829680356 0.26400524347620985 0.2128839993203624
Ni 7.219242575591547 8.787248366853616 9.724537696214723 -0.12164608964928729 -0.26830695617535727 1.3649711575228556
P 8.947453676592561 8.478441231127482 0.8362654645639503 -1.2028265935388895 0.912840352617886 -0.26326682264828855
P 6.38449972347553 0.1836099594141323 5.031478350903431 -0.18879096292690067 0.04046093622852387 0.8177511875215207
P 1.073837140135503 1.2777807796740426 4.857746983361632 -0.3245485522769056 0.878973267556796 -0.3523118384331029
Ni 4.450156687268056 7.495832114593322 9.514929313142543 -0.5610509623471563 0.4401749180946742 0.09380849861172877
