# total energy = -340887.82506621076 ev
CRYSTAL
PRIMVEC
9.07999111666287 0.00000000000000 0.00000000000000
0.00000000000000 9.07999111666287 0.00000000000000
0.00000000000000 0.00000000000000 13.28948481880206
PRIMCOORD
 96 1
Ni 6.105295046466299 2.3369898845452832 10.96739951394577 1.3029232391521754 -0.8223619468206547 1.2087879533286472
Ni 5.108938570695104 0.43302203955660235 5.944837988191146 -1.4779608570487255 0.6879878680817377 -1.2491858975297194
Ni 2.860651116746542 1.5943283530746708 5.0162618281040965 0.6644872138566363 -0.037277653404535795 -0.6800135916270096
Ni 3.2951740787903625 4.328549677249942 4.781875484342354 0.48105931501386184 0.008956694972655542 -0.5884427240965479
Ni 4.088601839093636 2.7526809455697983 2.574665000992268 -1.2466677590935562 -0.12124371200454603 -1.2727878532193757
Ni 5.171281787859305 4.825016336860641 2.460973527582031 -0.4131485101045014 -0.3165403372604484 0.28379373895704674
Ni 5.072391607530829 4.527628476598198 11.149731178173482 0.5609766574657952 1.9013151040416354 0.25334853509331207
Ni 5.6664590887695505 7.869991267827004 12.544090892796769 0.24157288261462265 0.5276060524251495 0.5074411474415003
Ni 2.0740605895520137 6.664894882444998 0.3720798649802882 0.7671925007373626 -0.34980475574053305 -0.3395892486601119
Ni 2.9681491283991757 1.857856927463926 0.15802816072324016 0.9131056904641308 -0.20119139347378254 1.0664323990461504
Ni 8.066309749957387 8.976733192340582 6.69380738930405 0.908053986972836 0.8420892500462529 0.33983401768106636
Ni 9.006860601975132 2.587688431865937 1.217505100875248 -1.017586838298357 -1.8378605351314155 0.6355221940828539
Ni 6.9954156293127685 0.7087659256340314 4.399603329634886 -0.8376093598980284 -1.2343935697118935 2.085093444245293
Ni 0.8313231021085161 7.325037457086559 2.3169948366983144 0.04780940617379508 0.9018128911591307 0.34654459693202255
Ni 7.814576083680031 3.6297989815215495 3.6605220385557455 -1.4225376430834147 2.779248874590323 0.043454471639209034
Ni 8.005900570843867 4.131005396355044 12.482586666786945 -0.29841508841464737 -0.5703714684171338 -0.36220595761836333
Ni 8.243696451169132 7.253614249074091 9.028317528348671 0.31452484949231635 -0.8396826974872894 -0.5716477640263962
Ni 7.0467357375871735 1.031732120116043 -0.03758299012006225 -0.2342542374660224 -0.8336817427088481 1.4628545975349065
Ni 1.8786228665339129 6.399813629620689 9.334640099605808 0.3327226034472657 0.8264044923211444 -1.4809536211284624
Ni 0.21426962403740643 4.7999283221468785 1.3513278219951779 0.17096087672401525 2.0155268489000644 0.9098506738619426
Ni 6.4191267701549535 2.233359948994011 6.562892081253736 -0.5727181142724395 0.06000466268840633 1.6832583022710819
Ni 3.72107104952833 4.408844036321168 0.33904231827886844 -0.2993329722432264 -0.9570095909359324 0.36961124894349895
Ni 6.125053106552127 5.703332931604364 4.49502222946207 0.819453257814292 -0.4510787094913716 1.4844672907086756
Ni 5.323035674906394 3.2263931481147394 9.00475495209742 0.4566947701265683 -0.3905073756662178 -0.9879008811981503
P 0.5508821367652786 5.722264712523001 12.477271240144372 -1.3206599943103061 -0.17316585479513402 -0.7510855678731709
P 4.0977090699144485 6.28097470939857 12.78133470967846 0.187381998394516 0.2366006262110119 -1.2995841474766132
P 2.588469311078888 8.600985011057594 1.1936456089232566 0.3398201337239954 0.7266094371086776 1.1276267111672837
P 6.555807872393918 7.975727761255074 5.527309137018943 0.3280750773729253 -1.664885713301165 -0.6937054872918053
P 4.935637865365078 1.0387963529959947 12.356230422141547 -0.21236566492304715 -0.23233259496327732 0.37005450712850463
P 4.051165036826231 6.577908570118599 7.948294384905205 0.21528206723889373 -0.7544061476059718 1.0056962575083583
P 4.660341622836469 0.9442736482655345 3.7244315541412734 -0.03537452284455198 -0.5026709797463665 -0.5345793984191891
P 0.23769055243142653 5.66431621092936 3.5685716952325994 -0.03843850648185638 -0.9637944750682498 -0.9247301620769366
Ni 0.6510825597731602 0.203803118586609 4.754206936229515 -0.41527944040457515 0.9711511725436371 -1.097614995296542
Ni 1.8055380201962112 6.646980060501368 4.78341726678839 0.628070108680183 -0.4059982722129653 -0.4589460280545903
Ni 5.927127466041602 5.966725306130894 9.040743495824525 -0.08901056300245316 -0.9866325560086879 -0.10443229687416208
Ni 8.734660636325781 2.296956204895274 10.150388293412293 -0.5344701265348343 0.737515285387904 0.4551413095965194
Ni 2.5521130277224264 5.365366592241014 6.833319632689505 -1.5819578661576819 0.28620620505328126 0.6107606708674579
Ni 0.4724809557859166 0.09123302404613308 9.16518567839911 0.924535529567627 -0.08843849254906705 0.298566269280531
Ni 1.6626916041712736 1.3639417452815903 11.252047239049011 -0.3043656495711274 0.13829269706703282 -0.6043622235402817
Ni 4.281624284546098 6.840510985441331 1.5755345880169278 0.142461997953374 1.1861506755451057 -0.4600724283495496
Ni 6.020161052272946 8.078640377529334 7.616762127056938 -0.6949059353578096 -0.8079956507966536 1.5898694076952748
Ni 5.43088780620211 2.8568647605628144 4.37529710213316 0.4510118608091781 1.4128152735893282 1.9603442901906494
Ni 0.9535533989124634 7.498655962096274 6.848961732923814 0.47002362602499054 0.63417493602634 1.3702588882843565
Ni 4.805330916701598 4.734525148066811 6.8345826594164985 2.319549513309476 0.8824213740063964 -0.2403953173667537
Ni 0.7134103409529199 7.587058752995002 11.209906093523118 0.9052980214942538 0.0006772285726827046 -0.08285045693832828
Ni 4.287226638899479 0.34525848001359205 10.305609828964334 1.7389849064094245 0.15013648377949626 -0.5213814116716763
Ni 8.429963383430483 7.485244815613384 4.401676291545546 -1.134415451954343 -0.4083436325166903 -0.7976292199606649
Ni 7.955942461196701 6.530937777460514 6.543568952729538 -1.6061599173251822 -1.1380880157099238 0.8101895731241789
Ni 2.4429352177628636 5.4300978469983106 2.5853367142362362 -0.09202055347337056 -0.5439703527157858 0.20773562235020354
Ni 2.4967160035571494 5.402794314517572 11.42829258541113 -0.6381727443318236 -1.041412222852729 0.20357994831061713
Ni 1.1451593657925954 3.1679997269695344 3.822733351062783 0.5503112073321491 0.8321110557876186 -0.30755741703554773
Ni 2.149251993766513 1.2637168062984183 2.6560625789515577 -0.7226044297143426 -0.2969122786168758 -1.139525776597715
Ni 0.7096294327637016 3.180866074001529 8.049241183160815 2.5623269577551615 1.006963554256556 0.48852014216728123
Ni 3.5342411578343866 2.9798259966300473 7.20085405425115 -0.5618552034160066 -1.1685854129678328 -0.7407618173496597
Ni 4.437945406989864 7.171730891604418 5.902617846744875 -0.7834953516624441 -0.4815416539669191 -0.9147558244730439
Ni 0.9978909942245515 0.5871912041693289 0.10191472528003448 -0.7772599122756937 -1.6208082633659766 1.1613333593911097
P 0.5176557262542149 5.557172318919808 7.799026599352373 -0.8814317563996175 0.04165187121283149 0.2898890532215072
P 8.408017045550222 1.5723547752218645 8.066969865292055 -0.23386317267519077 0.26001000627388765 -0.9171677763486462
P 2.0351437487763406 3.402045571074466 10.293888468778306 -1.568987679150259 0.680716531231305 -0.5866108130941317
P 4.107170420378343 6.337334212593764 3.883360449956662 -1.3664081470796985 -2.484164907431438 -0.5920774926356578
P 7.121391422341625 4.260068386272311 10.363419406697997 -1.087138007024618 0.019929649044391484 -0.3995455746090861
P 6.4092023401577976 7.801055977306961 9.982489274637903 -0.805850836539509 0.9281422730822789 1.4572583343940515
P 2.3966635844000947 8.607740524248705 5.6613606739082485 1.4037811884115179 -0.17650700335322506 0.31417723634491046
P 6.941607603545938 3.946608942208436 1.5455406542478471 1.1059463979803728 -0.750593715838417 -0.48021547895632777
Ni 5.633680321807306 2.887655009529288 0.13515293977920093 -0.6989821623097123 0.38318153142876593 0.23895215716232396
Ni 1.4189029298861509 1.0637572478378807 6.972567648341274 0.038374486013140356 0.15378873582010288 0.49880943990843124
Ni 6.782399044012422 0.7820369117841225 9.18606330135653 -0.9481009755923929 -0.06912770803559708 0.023961910132236152
Ni 2.80931284849044 1.7525744335782694 9.084359231864177 -0.43569168551233994 -0.2620023541135681 -0.21815013281530815
Ni 6.417138252159183 1.7473352788588192 2.50061585962648 0.4905621122979744 1.5440909159085794 -2.118168886643023
Ni 4.076652571137317 6.985300519507798 10.743763879348379 1.2792387510510421 -0.10251091148173312 -1.43238625374272
Ni 8.756271014544657 7.435368425883852 0.2106476156880327 -1.3051711546460878 0.5335419582936102 0.5898673723582164
Ni 7.658264041227113 4.0300722180857065 7.976747444227335 -1.1060602978504177 0.7060264707510034 0.1664359922704682
Ni 2.9605219360866313 8.688270963081985 12.192397423269009 0.7242476217447205 -0.450943726575404 0.8760995455534266
Ni 0.06101118250676096 4.8284667333829825 9.888307069564252 0.62405764508668 0.24015209100769608 0.7742190685668409
Ni 8.643951527751593 2.3672171740791645 5.994567282068936 0.40142119436524415 0.34354746197691155 -1.2968829464953664
Ni 3.709339701352369 2.743228675096752 11.385061840983445 0.22445961997310374 -0.3490650493610311 0.15430064245951491
Ni 1.346453682907828 3.7194003312122486 12.872540493752048 0.6312865587349515 -1.1482803828618935 -1.6075781378289475
Ni 3.4371306557121706 8.764697246051849 7.629001046721318 -0.9876180598504087 -0.8759090268091754 1.014983596347555
Ni 5.644249431154689 7.730867648049856 3.4007262484042133 1.1455506426355562 2.06851574239227 -0.3196853106473333
Ni 3.12243633289293 8.203317731866889 3.486895361554268 0.27910147568769994 1.3088360050921846 -0.08159858680909818
Ni 3.5302368818703007 4.680844242171856 9.100466227629916 -0.10441661314487824 0.04270216685421678 0.49932700297479815
Ni 7.574283205871491 6.599010468849972 11.500972464156998 -0.28464348855185173 -1.896197580309412 -0.5792021793348864
Ni 8.383437510323962 0.25939173055878484 2.1753560594561963 0.3348715314694684 -1.1231149393398594 -0.5877189585566459
Ni 4.8884491529266345 0.3883484845831283 1.283913429942219 -0.728937571021222 -0.8227303859036669 -0.02994306741633553
Ni 6.019153173288789 5.3352119426339195 0.06766136780403176 0.35492793589971133 1.1382916470802975 0.16142722620196717
Ni 7.851586126377566 8.956602852629974 11.426498379219511 0.21616164163036963 0.38927967390670376 -1.1355235974168572
Ni 0.25032263569953567 4.822310499587857 5.567390032621363 -0.2562968190883586 -0.40231670959632 0.5165603361339491
Ni 7.399511542024046 5.953314159648004 2.330390547196763 0.01944756720165038 1.190660133379685 0.264537461830596
P 8.543554068942305 1.7709614150460102 3.6388735243753074 2.5713960099359654 -0.9312880178001122 -0.8486676745947191
P 2.168147454721757 3.412269640769615 1.6066453606603452 -0.5726348105300137 -0.4681248663403809 0.7547763864611969
P 4.829374732467809 1.289776380032945 7.972122096889228 0.7219606254827565 0.5609658588325178 0.9567298549119846
P 8.777381993266879 1.7873598785179805 12.276373718629207 -0.2701931174544766 1.2795650240422092 -0.1943327186807363
P 6.7646295019223635 7.9402522370108946 1.3543314829677846 -0.18789030548950222 0.016891633549016072 -0.4495671579428515
P 1.6907487758924191 3.2056362890356014 6.036894567407217 0.8988167846452844 -0.33538678054299015 -0.44764320144726133
P 6.768751817767477 4.249426636998143 5.965662947201648 0.5879508720617939 0.10086360568629725 -0.7348215406058248
P 2.4366427841050142 8.38319235057106 9.925304400274602 -0.6048710448559002 1.2071234211420308 0.3719018447498886
