# total energy = -340875.02704556676 ev
CRYSTAL
PRIMVEC
9.11973485410082 0.00000000000000 0.00000000000000

0.00000000000000 9.11973485410082 0.00000000000000

0.00000000000000 0.00000000000000 13.34765379590126

PRIMCOORD
 96 1
Ni 7.907649002660535 5.69738098042782 12.10863108205715 -1.6426901510407323 -2.348205743593588 0.7045961660623801
Ni 1.9140681588302033 7.6450371221673326 1.7211666184294432 0.7708061862305499 1.0875848647540496 0.2714611855336228
Ni 5.407674368133488 1.1349692231955881 1.411474107534581 0.5575810015206849 -0.9717749221705653 0.06566468918766111
Ni 6.546838669292225 8.729072627049455 3.098511030813386 -0.1423162164041291 -0.4558239374858408 0.44272776642351497
Ni 5.142399525107154 2.7393494309982804 5.2490447907447235 0.4561278418795048 -1.569047585853917 -0.20399466725053253
Ni 4.617075447039019 5.8836606814610946 9.814556345802336 0.6535212017634358 0.8886503856352438 0.8190915035994989
Ni 6.053880529683266 4.944820472777481 6.082058685967052 -0.4209140129825331 -0.4128970562153276 0.4689697308391794
Ni 9.540975248408964 3.6864065206488466 6.635425948245374 -2.550639494114904 1.082824981471561 -1.987473028086642
Ni 6.9657901617903955 3.7968009092226147 4.0730367613878835 0.2556771832264887 0.2964340534288766 -0.28096578258994837
Ni 8.548702514103402 5.843898638158191 9.97972021310544 -0.9720813976673904 -0.8383562653663821 -1.6922769608299244
Ni 2.1882985813343923 4.673371569357554 7.709951393779731 -0.3149804489724962 -0.27845150080852693 -0.7251300243496738
Ni 5.3366589940051155 4.280803469353719 1.8701529883437824 0.5496663746592985 -1.056908004495483 1.6492927439589145
Ni 0.5204194847451298 4.027767310298142 0.21294580530338592 -1.3120614540080178 -0.06692324418511054 0.28127431496930266
Ni 3.5180470983059853 0.7285710455154112 8.976537540175276 -0.9045819692638357 -0.2091006210185302 0.5019130185344194
Ni 5.303545237300337 2.658247630288944 12.771889323553664 -0.32714279536664304 -0.608119890810501 0.3979715452537469
Ni 5.8614723669299105 1.1572943337473094 7.582401872257089 0.9857072159809412 0.4046178469256709 0.08393289136922963
Ni 8.94190899553641 6.506903351029977 0.6334303252050452 -0.3238039608013972 1.496068879503346 -0.6279695785465765
Ni 7.911260417602726 8.671609178689 11.461482851912603 -0.2712354426760619 0.1433102048862822 0.9633584159720957
Ni 6.076388034929037 6.849002839190174 7.651676289030752 -0.022926526889186324 0.8089379601052649 0.4205774555787208
Ni 7.50271454240011 2.064087794686336 5.746231751335234 -1.1969850471564483 0.6406430602491869 -0.5952440632890974
Ni 3.2526354592591145 0.19457683566560946 4.872026750382122 -0.3742199513601039 1.7046545085586708 2.149286176873118
Ni 8.925374916520777 0.9486074445499911 7.029061057209403 -0.6079041752552692 -0.8089186768315552 0.7965647832518926
Ni 3.669735645612676 6.105005762425483 2.4567024053371536 -0.25393166129029177 -0.2051521778937435 1.6828428120002181
Ni 3.2859863290661586 6.535703473220473 11.81011024617285 0.13787257881047868 1.2020431784056458 -1.3064821601480274
P 6.670976498062663 4.364896543045477 0.08643775748376968 -0.06302236646880759 0.23682534062730828 0.34087145780664524
P 2.2490451341877478 5.623146339949466 0.013346731737109435 -2.177009610930315 0.1065467721140036 1.1823261595926928
P 0.6251879089809252 8.766335863043873 12.749238638473063 -0.5422369149644468 -0.3007218821709531 -0.1310326730705098
P 7.2222097424206 8.769327136026293 6.451027648481226 -0.09734427967912913 -1.0690721506618426 0.34408867919236225
P 3.9671666732000257 8.190716448091448 10.411329897370681 -0.2728405823796527 0.20660639384176677 0.05234894591536146
P 0.7909600625886871 6.290519405743748 8.41900620703179 -0.13699480419121565 0.906178110106362 -1.294814494002112
P 5.5155881888681755 5.549513601961477 3.984648292651249 -0.8570204174347885 -1.0152296509200902 -0.6558686189496898
P 0.36530465311071003 3.9030458185067456 11.198267244982095 -0.20485418703735042 0.8943119547963952 0.30568513971349937
Ni 1.716133436847133 8.481517428550081 10.388759465955463 -0.21699056528956825 1.3735869242163246 0.7825011060699749
Ni 1.714491884600683 2.1602827563283107 7.312164981579124 2.7454609795066007 -0.9907514632730678 2.221287092691452
Ni 4.609305433072489 3.591333286375279 7.67336575407371 -1.0819443786388203 -1.6962904528646916 -0.35174311041382644
Ni 4.314911277141071 8.274390013986888 7.360710241374004 -0.5628401930370952 0.6764333304749188 -0.42626165044769165
Ni 5.979290219551514 6.66980005228604 1.9349021927580656 -0.17222148860399372 -1.482964223800588 0.2297568638163011
Ni 2.7979072475230358 8.810630414493916 13.158597082037671 1.177032258183605 -0.22940487979352103 0.039367446054028976
Ni 7.691301536313118 1.7177567496241781 13.276563586334927 1.2803998612386787 -0.29920467419547825 -1.526256715940636
Ni 4.130966228191637 8.678813769103975 2.703287264064183 -0.08311296657109557 -0.23881460314319516 -0.2142094030000053
Ni 2.828403640368198 3.938247994458397 1.3577233031715135 0.28119872453636086 -1.2441192816400897 -0.09300811419762046
Ni 7.798093629679398 1.4092634838426947 9.252913836254962 -0.040023848691105264 0.6732341068113308 -0.11534071625654975
Ni 8.745205437738178 1.4444474203249416 3.7030263251706836 -1.645047338418999 0.9469488642658208 0.062294744274163684
Ni 2.3009729035837854 3.6939120623090047 12.127224397168607 1.9661408422677686 0.10869570013620636 0.17356720399861078
Ni 1.7685901508559156 0.7613802030811267 2.994960091160374 0.18754294945241248 -0.045298981047115536 -0.5622066732181543
Ni -0.07219273187846396 -0.2671644520566917 1.5734214444081138 1.4252414151678228 1.6829004047110308 0.3037298157593414
Ni 5.991510664052865 6.884022620447776 12.496460567909565 0.004867612504946456 -0.14957315507685853 -0.18284811507990445
Ni 9.350828779861828 1.644461441820182 11.148573810588168 -1.698440923548791 -1.1121779807123813 0.9284932286637945
Ni 4.744888528894563 7.303101789231779 5.076752938798145 -0.9204575028435116 -0.5799647685325238 -0.2603249664111452
Ni 7.112672608908867 6.73370203334646 4.90750525429526 0.6020531157911309 1.4338067882393306 -0.19738230414033747
Ni 1.2305714020819005 5.604770074523928 2.0935928723693356 0.4366630482866738 -1.990754784161707 1.7281906440073977
Ni 1.9712762546189888 5.184085832432284 9.965091246669159 -0.6339281101228567 -1.4166536734988118 1.938019144330888
Ni 0.5864946985851563 6.870461574945157 11.646108233070844 2.0590713091499184 0.5167511119885165 1.1631423875753903
Ni 1.9487140309650026 2.5370281166233077 10.089037561010844 0.8749050110246932 2.1056589271014703 -2.4659694674693338
Ni 0.13494197847248868 7.286458273399717 6.008005528209277 0.39129027657882937 -0.4316825643529469 1.6730798190761833
Ni 0.43646503102085094 3.710810930712738 3.604493975524458 0.32617143259230924 0.7481653089025825 0.6024950884245559
P 2.700909749227241 3.9942887642052627 3.529533404163785 -0.9405912974789091 1.467218530930557 0.7864150964124005
P 7.908515377457274 7.210518242531995 2.465044226669531 2.086499837674516 -0.9507031891019303 0.03800116183412165
P 3.8669225493501407 3.6000335132814647 10.398235782284829 -0.23057910260728032 0.44570664654618075 0.28904341739176026
P 8.477076117749963 5.081662091988501 5.265208608531435 0.6522302508661542 -0.33667824566090404 -0.6195384170600878
P 3.647009266734045 1.9731002015594887 0.7381376472183341 -1.9732319447865954 -0.12397036690708971 -0.5668323449156237
P 2.62934719101672 7.674265871888847 3.923475848187287 -1.0665172454504728 -3.0203034228076304 -0.8657038041413995
P 6.715179852165682 7.078820153693186 10.319751345435112 0.010609400084730115 -1.4260168598812668 0.05134415879993092
P 6.67348442510585 1.487565525998364 11.427019374471854 0.11103334713044749 -0.3791958073081405 -1.7137878383185068
Ni -0.0062187470936350695 3.5563499840564874 9.029461184600827 0.2759968686204473 0.18392283620132197 -1.106023016854579
Ni 2.6370260076362255 6.830918405275115 6.497170770155468 0.9338082131188048 0.026298271574896642 -0.6503787994797121
Ni 1.616545933895828 8.669876429095524 7.468585759222941 0.4921705944356749 0.18266942341019507 0.2233566167169121
Ni 7.063726992760547 8.712264955992746 0.6321991610202077 -1.7181229753587508 -1.5057488257952711 -0.9299142773810372
Ni 7.13059288759928 2.6151660035543314 1.806711553885838 0.10674243306457745 0.8585607653387148 1.7656112507477013
Ni 6.016325462178369 9.013243560379369 9.691183662773438 -0.6721115631711134 -0.5941639428510412 -0.2211084441126837
Ni 2.3925350399968903 2.452624971951666 5.091902642085938 -0.7036132333238204 -0.654413374560402 -0.4091794981544243
Ni 8.033318946860993 5.657390943757354 7.3374986926092 1.2330645664878248 -0.6104467391714647 0.7516473539139119
Ni 3.6850020815046616 4.303438650885326 5.530893839619383 -0.7724612053354697 2.803003810918076 -0.12900484400720363
Ni 8.399467175431683 8.180894493816854 9.121666262310457 0.6054775680916475 -0.50833640556226 -0.984984993102936
Ni 5.153598559321825 9.00773524061906 12.001930186037894 -0.08164409533505293 0.8569785084532595 1.3506112892567579
Ni 2.7919976594358156 7.053294016260887 8.941993809069144 0.24685238584600713 0.8066041697657658 -0.9987527363109895
Ni 5.2931396200047836 2.236487259502405 9.568639051655529 0.6884558088570918 0.9482544704511219 1.65679830830734
Ni 4.349821621582243 5.47563463113652 0.27861792686956205 0.8444973452671134 0.5325603111066312 -1.2271739120350027
Ni 6.321936891793862 4.599401401185573 8.750681838427031 0.7434069682819907 0.9256434179198252 1.0315381582721268
Ni 7.8307422799143485 4.837864224186556 2.007860982351539 0.42054865922331447 1.050459677766978 -0.4337510168462014
Ni 3.817849256915986 2.2521732031907056 3.040635370444378 0.7969969856933049 -0.74698465833092 -0.6677358027009209
Ni 5.4884934570670465 4.5547420603474285 11.508066456772974 -0.18259666119073067 1.0797154893083016 -0.05635549597159326
Ni 8.855408311883194 8.335866145616446 4.11295931202155 -0.27093745181966883 -1.0351248471821204 -1.2980152603275967
Ni 3.2333381006286235 1.2790427920256908 11.349095801306339 1.2726819237691307 -0.2492748792445707 1.251750315822786
Ni 1.3801350512029082 1.588429791808019 13.288403737899182 0.2405413560263148 1.0510551452591317 1.5608146564211636
Ni 7.405416092859133 3.551744518031725 10.66444175022429 0.05708363238686943 -1.1324375022923658 0.841765291047931
Ni 1.5750146620606407 5.486341199677256 5.086350547599056 -0.8048838446405493 -0.711430158265078 -1.7144146732692278
Ni 5.479182207935794 0.4161936847241328 5.399579691611548 0.954597124839698 -0.526195802341184 -0.9937377995949015
P 3.770435756197686 1.4137230341122173 6.98367943338282 0.6833274864915909 0.41585433907143865 -1.9587268091918844
P 4.079986911204659 5.653077309243073 7.792907236554085 1.5030008307364888 0.8356254966987803 -1.9861607370331213
P 7.266732287238208 3.0992415215630564 7.682041357696199 0.7224344797953816 -0.9663756055318647 -0.15932200693350626
P 1.0066545559314066 0.9504222717557888 9.05496817059025 -1.3870739029591659 -0.497435185268724 -0.2106345411645534
P 0.9784016178230602 0.6104075549485828 5.202434738653714 0.9218065606722383 0.41070287677748624 0.9399762896027296
P 4.709567796391779 7.830030940607554 0.7767305405323757 -0.9527536438730559 1.1834209353187684 -1.694706139096707
P 0.15231142518687105 2.4143494454052714 1.8983968067174264 1.099802489866164 -0.31207073152486897 -1.999082844411428
P 6.436435160983756 1.5822192524756162 3.6184553773805157 -1.0268027004696705 1.9729897468688018 1.1823865805169829
