# total energy = -381177.7312247299 ev
CRYSTAL
PRIMVEC
9.12928511958728 0.00000000000000 0.00000000000000
0.00000000000000 9.12928511958728 0.00000000000000
0.00000000000000 0.00000000000000 13.36163157479989
PRIMCOORD
 96 1
Ni 2.8358937954861045 5.638840000350649 7.386657189433943 0.583158335769157 -0.42021981512898593 0.8072973391780484
Ni 8.604470069132121 3.7551671780402534 1.0534200135744474 -0.5137966573458829 0.6851259731529104 2.037593598892117
Ni 0.4201525323859014 6.331679719788551 2.3978250407131676 1.1681388123487173 -1.1089396762807417 0.6865285099273919
Ni 7.361983470073208 7.165639931281888 2.7365826912859075 -0.5635531599437197 -0.5322422656455802 -0.21251401757545338
Ni 2.8664495133609615 0.9087308838980737 0.5047006693391809 0.762676358034564 -1.4036246082289956 0.33632034810085304
Ni 7.198441453338763 1.7585011916614066 8.54638042681431 0.914306138530135 -0.5841070728356714 1.2238103948794086
Ni 0.7647364928324788 4.379811136341262 4.384218755280605 0.7162836297026374 0.3892444497933941 0.8407111387518037
Ni 3.3588466449110945 1.4483428531252862 8.680036815214388 -0.16770894544562084 1.0138463974193184 0.2383158091299057
Ni 0.9623544798506688 0.245459093666353 12.152150502752713 0.038982294800468345 -0.053694147089346236 1.1267630776154078
Ni 5.349989413687823 8.73599568234487 11.635776216309687 -0.04520359311983183 1.7451020750507558 1.6033617857547549
Ni 1.7011418921670156 4.691895754074155 11.108593769008563 -0.48644680457802025 -0.13859762990196128 0.21727132975478064
Ni 6.416125608746551 2.737041894336133 6.665730310864345 -0.34125892305305094 0.5543918051594259 -0.45332739631623215
Ni 5.403550930500427 1.227030719058275 0.6068747174071861 -0.5647417809351822 0.7143007949446536 -0.6144993119742836
Ni 2.0807375746398447 6.707057672456126 5.447684634391202 0.5668583130575527 -0.0005275903686958656 -0.37378543492584654
Ni 4.095296960192496 3.9099359516083605 3.1452478439879332 1.2056476079274525 -1.340532307754201 -1.5268611822938543
Ni 8.959608396305654 3.6122938632086092 8.439741245309618 -0.5260844735743003 0.3168529834048608 1.1144076413738486
Ni 4.103978910505907 2.1135117088408415 5.778143764632826 -0.03897998080762319 0.3407292758018261 0.9870776139659065
Ni 7.852929045261794 1.3787959577650646 1.051454478450917 -1.2014178861168212 -1.2477584210545738 2.565199651317266
Ni 9.116969886896904 3.5023681389985244 12.2600586549131 0.24535908912993226 0.7457420441730704 -0.21312902545163295
Ni 0.30356608162622095 2.5169896016395223 2.8505435595953914 0.29519169638134324 -0.337947856401947 0.49201838512852686
Ni 4.516421761462075 1.536038767647508 2.9809261862894862 -1.1713166958560668 -0.1243506330646439 -0.2957426837888068
Ni 1.8159152668675544 7.58915660529817 8.79576146144243 0.275324525143771 1.0409414538638975 -0.6346361919334748
Ni 1.1351718504425556 8.545303171149763 4.196260465030681 0.24506418359733279 0.9569005761618941 -1.920137636064777
Ni 3.4286948066859764 5.990354001262959 9.94280412155116 0.19237122407899127 0.09364214823719356 -0.17801366980573857
P 1.7344820420561635 0.44227644236436825 10.244029454428317 -0.33923957863017706 -1.411993291908665 -2.827987220336291
Ni 0.3028174802322149 5.746611213231644 6.965752403939918 1.20721778062805 0.05331182404926302 0.3546697971423182
P 4.572868132427191 2.818374697009304 12.396934942235932 -0.33718269610114837 -0.5923181478915541 0.9934665482113859
Ni 3.0683893040367427 3.1602846897936328 1.1242340537333038 -0.15947344490970602 0.5196983675422986 -0.25487062816479333
P 7.974111178237848 8.832419193606967 7.963853513282906 0.4501927073419924 0.472256114899935 -0.39088764182377195
P 2.211076380764534 4.564825232084272 2.699089629517085 -2.3174540642330284 0.5461976993844077 -0.24915712271978382
P 5.239881103771883 6.677624856672278 11.652491937680724 -1.4079646303652462 -1.7147437744738727 0.4297521800994534
Ni 8.127893988994337 0.9955850783163037 6.141059329947259 -3.030319669393052 -0.5675075166057775 2.146472875794039
Ni 7.403539976725837 5.341654376215536 8.110590341650445 0.688518543774227 -0.33422412769345666 -0.2597521246268107
Ni 0.8125757736235831 1.8637709803721858 0.6391366987032595 0.6848323531718916 0.24952221936868643 -0.0966066301821562
Ni 5.877461259332728 3.854639870590132 9.049498991012255 -0.11033323573962933 -0.8642408464426277 -0.07064414468012349
Ni 4.611758887774334 7.379219560705933 7.992233722472499 -0.3677852514783537 -0.4798827782072574 0.11738011528408171
Ni 5.471929277343176 5.1047311642979105 6.952524982479243 -1.6520926753015548 -0.04065788273067837 0.11650645442987677
Ni 2.2008789690925243 2.6178682041244854 12.246978214945639 0.15208589419638324 1.5956865285976842 0.6830274387526688
Ni 7.555597352561995 2.557432335486436 4.337533416150505 0.7881320791035071 -0.08490991057051828 1.2588907835223093
Ni 3.8554797648370656 6.190203185606698 3.699969693303187 0.24705498877511645 2.290428427573804 -1.1576042313659805
Ni 5.855998309609457 4.482415173746556 11.509509071425565 0.24017008872982507 0.4601549607610268 0.2586614626657932
Ni 3.5189195332342926 8.76745519946371 4.551011710507801 -0.13608694766496562 -0.1425231902086126 1.586177303555668
Ni 7.597756392043947 5.149081232250124 5.579590025872128 1.377950343391343 -0.8062041061138695 1.0311041560585017
Ni 5.889155873792749 6.142383989243238 9.640297037018899 0.07674357270964201 0.8570908656614078 0.1721142736021681
Ni 5.649813401272542 3.9529166267666596 4.811202731851076 0.520175307178717 -0.38136067616994324 -0.2920477514357228
Ni 0.6319638192487405 2.272133040802492 10.47117702765446 -0.20538974782584626 0.26497352092675014 -0.8656693513590382
Ni 7.816256706240789 4.785708289742523 3.2826728013568607 1.0421511579012828 -0.32034916948357733 -0.7003533316256261
Ni 9.202958625069382 8.512364709813498 1.7206438714094028 0.051378097361659894 1.0888130807341956 -0.0355357310127646
Ni 7.075862539712917 2.8118563873102755 12.917411016560997 -1.601058848653191 0.38524407038474945 -1.276151627485286
Ni 0.9688271431232334 1.539197500358802 5.526598176461793 2.218576121518192 0.029238842260459325 -0.5063353159718311
Ni 3.8839813935210525 3.549794776094396 10.500986882920897 -0.6757273055468298 -0.2125960357662984 -0.4319232196088432
Ni 2.539931495580221 0.03742002748648098 6.967423063148493 1.7207084766977399 -0.028341270146854416 -0.6838643328316674
Ni 3.236760712691057 6.016135102929704 1.409972467039829 1.3266234109825927 -1.3252388719302404 0.4307672516275291
Ni 5.229409813541091 0.5591440751110656 7.5124706088390125 0.26555279046898783 0.23291829226341823 -0.6770074578108342
Ni 7.239833632856123 7.478454891838201 11.410806890554396 1.567993690668106 -1.2934109287863658 0.6861896385307343
Ni 5.638520475365403 0.625325915912377 4.873081027565382 1.3229181942168635 -0.014930653167903318 1.19363772795077
P 1.12723850152315 5.539905935633044 9.20700655016819 -0.6225324666914053 0.5925613742506117 -0.6692244714313055
Ni 6.7543564995578995 8.338114041430648 0.5592070671795857 0.44369552965342296 -0.8420807654058208 1.3380897597509793
P 7.047799116722983 0.7319495776320718 3.218536833389656 -0.35085453716128606 0.1895340117405123 -1.6470078045794796
Ni 6.378549470481564 2.8612732085999686 2.323868700556545 0.28183224435530174 0.11858699110798931 -0.34478390548717397
P 8.804173184911177 3.021939500467196 6.453401393525406 -0.24227273689512469 1.0631457578750787 -1.1291076665881843
P 8.948607607527883 7.602394068972668 13.089134698774812 -0.6376857773930759 -0.550266984357775 -0.5016178558915038
P 4.225069750629033 6.998546622568559 5.983953459344207 -1.7774182706849584 0.34421543457821363 0.062277003662350804
Ni 8.264595906968077 0.2783199560776312 10.399398022040158 2.2611636171714156 0.17338311301226267 -3.0162156258915025
Ni 1.3602452500501825 5.123692689850967 0.3764597729747672 -0.6016327404242606 -0.7710818084894397 -0.5988878306892718
Ni 7.573655078871069 0.4804578522442652 12.326159245075306 -0.3812478047411627 1.5761906246566015 1.1237502589310129
Ni 4.2980127401181605 8.079034054107503 0.524636289632974 0.4654882000484822 0.4645651740135806 -0.46257976815243557
Ni 8.44382203583548 7.1106725045341985 9.223200076420483 -0.12168491330702269 0.24805026280885023 -0.7353661002553851
Ni 7.647246247615982 5.466095664041105 13.205861740528 0.2763015443450596 1.0116067094555221 0.06192296275704174
Ni 2.1101430025678147 3.288943707424455 6.794870441830096 -0.6402872195716649 -0.6279510666038153 -3.084924758332442
Ni 6.741703310142138 7.265149140972937 6.828060871440442 1.1631421304650742 1.4908503114168838 1.2586002488650838
Ni 8.131655254534952 5.323277124921217 10.903532675691187 0.5954829187727809 -1.0396965257132031 -1.2744115048657279
Ni 2.526474929058697 2.4563346301544464 4.125042910461885 -0.48054560860223683 0.524658025540419 -0.189621429247996
Ni 5.7060406693906325 6.315091808411612 0.9563866660547937 -0.16039749938587214 0.685179194988349 1.058487433167461
Ni 3.4550601826114584 4.642789328484415 5.1733295269162145 -1.2719653573180802 -1.0746840975319814 2.6864058252156573
Ni 1.9797950671578324 7.518961530682163 0.31712215735743554 -1.672269664470062 0.4660998654905521 -0.34643892459209363
Ni 2.1308756094676653 3.617543202251945 8.876305493866306 0.5791330166598477 0.6476184631257557 2.8401354256630507
Ni 0.8255740500234102 1.3305294264222594 8.156888599084132 -0.28875082585200595 -0.598504479207924 0.027250351075520814
Ni 5.660585957917997 1.766041981313224 10.595493244271516 0.6971870180825025 0.33175509732767383 0.0658346391066221
Ni 5.85557836248599 6.441861063986833 4.9451129143822925 0.7607516302080253 0.38054152270275754 -2.893720300868042
Ni 6.330255551282882 8.647715493563911 9.403622141661234 -0.7214649167932606 -0.5423780685280014 -0.5852291022552567
Ni 5.161086242410098 8.37991703878618 2.8919110900424605 1.288400362945652 -0.5937433103738549 -0.9045341467450358
Ni 0.5500312225318357 8.287793420896973 6.396894769277359 -1.7227036527508979 -0.45139906894526777 1.857858318409581
Ni 7.8409879400988665 8.491659490769525 4.654805293786742 -0.42714071061853537 -1.0334495163622266 -0.26058824737486086
Ni 3.1985546537408696 7.645429519842724 11.732501906914974 -0.2564482570645583 -0.15261605566824038 0.4896105470179825
Ni 3.5408206886516163 5.260814554948174 12.54013234669547 0.8825604706874219 -0.05032265951395204 -0.5684030318368533
Ni 2.8570737373653 8.063441234827472 2.443455034463425 -1.17655043345118 1.2098243650129614 -0.2380476430701836
Ni 0.9400242480245856 7.042750621956087 10.955388842011104 -0.3826297726903539 0.4783468011787052 1.5734153759043095
P 5.852720896189357 5.02124385029565 2.821842912492022 -0.5005642178160089 1.7315683022303792 -0.9797931644893513
Ni 3.9312254449110697 8.552314462254602 9.81093889892552 -0.22567009534143717 -0.12513430530820385 -1.6703577921593296
P 7.5416021582082 3.099520166885043 10.614359825257527 0.27405851394715386 -0.40274017028698383 -0.3993249739578478
Ni 5.376427823895647 4.210052076322448 0.5854172452550904 -0.5597720956347327 -1.9191516180024235 0.20163439454847207
P 0.02270088080896914 6.715538778493098 4.758037426020177 -0.8346826731695367 -1.3385960099634366 -0.5297477813585005
P 2.0558054965053256 1.068564584946602 2.5951098088181723 -0.3420461948410367 -0.88260443655148 -0.6544249445246277
P 4.123113892479525 3.445565725906991 7.7518578148571535 0.11481749676322806 -0.3399828845541048 -0.4167097450931984
Ni 3.4298907430593277 1.0529626363812803 11.296979309810187 1.1174831949753785 -0.12627638933244706 0.9193460149468877
