# total energy = -340858.64573615213 ev
CRYSTAL
PRIMVEC
9.36485221062001 0.00000000000000 0.00000000000000

0.00000000000000 9.36485221062001 0.00000000000000

0.00000000000000 0.00000000000000 13.70640782400719

PRIMCOORD
 96 1
Ni 4.946337016378084 6.020757148022428 3.5020005391714375 -1.9839542163001058 0.4396995211201524 -1.1114040786608343
Ni 3.5143855562473263 2.5409278965085833 5.583168507266335 -1.6254668451839103 1.6293782644231745 0.8521116672792615
Ni 7.795733780533323 6.500621541206259 1.1486187923581241 -1.082321559472581 0.23329161644243693 0.7743900469270664
Ni 5.495314019028879 1.6081417900103583 5.495597774051487 1.6254429339245104 0.9345240082389068 -0.8314546531505423
Ni 5.732563185456529 4.0826822490512855 12.251610073427864 1.4849586285227974 -0.4859228137537502 0.7611424378885407
Ni 4.3105103741342505 3.991936830930028 9.997728008601621 0.5497926158245178 1.559442201553669 0.899336147483864
Ni 3.2933282193275875 7.53021212521939 12.96881166265032 -0.1750874972978791 0.5508840491164835 1.969020734918725
Ni 0.8785664215346916 0.25210275855170794 13.251916764513732 1.0549668216087122 -0.46738078908550473 -0.2025767038570834
Ni 5.554949398037771 8.717647293591012 3.4656105963710684 1.9714103181968243 0.11320310108825667 0.8420517119400981
Ni 0.767582621256381 6.366048614642538 4.339886979098603 1.5914310957554398 -0.3869186298736949 1.0673024603559296
Ni 7.368771437604082 1.8546808898514533 7.062432137354823 1.3171478673919896 -1.2932821165179855 0.4169455152530884
Ni 1.5790920183888784 7.329691909242883 6.561668203446407 -0.40980607599482965 0.4596970472880018 0.33354767045172234
Ni 8.49099913988919 1.0109264335161579 2.6217887130997077 -0.29963147732025175 -0.6531162530155332 -0.7218459542817633
Ni 2.2217269082048636 4.942085373465075 6.2058094375685044 1.0975944264712516 -0.9630537402474835 -0.16160720342325716
Ni 6.9452834548526505 5.157046191582241 3.2762841882666294 1.3841857827780935 0.3000757639465219 0.8256550157496296
Ni 3.8455267311459482 4.733277263263872 13.355934987702403 -1.6772288082475502 -0.22572048896339836 0.9368086905080253
Ni 5.726728882516431 2.352834839443006 0.6983679349000963 -0.8294751608266682 1.2412717848889654 -0.3463437937751261
Ni 0.5939591973733787 6.659018651846398 9.707755660597 -0.5981794917683376 0.7354977407372429 -1.0689981028907978
Ni 8.614690108160147 -0.043185079579397774 9.041637467325817 0.6404504846224066 -1.1103643245424104 2.331524426283165
Ni 1.846289982252212 5.023334831423798 10.750168600285221 0.8722176940005172 -3.3017646569767587 -1.1571902837570136
Ni 3.3358352836054395 6.935263062965164 4.98809114653654 0.18331914117905201 -1.393866243290651 1.2678891303661777
Ni 4.487225135738805 0.49016198469736466 12.432945453123336 0.4063901083347453 0.20761812293573279 0.7386514558748762
Ni 4.170290441675058 1.3923475000446075 7.750863964037514 -0.36764049837037327 -0.5291178610839855 -0.07485638298925817
Ni 7.448934572703973 7.446097022477891 9.318602972066392 -0.6931660698485674 -0.8876921354870324 0.2693770493110844
P 1.1197085570348908 7.7173406025051445 11.782631384477689 -0.7858309417741564 2.1264326693137123 0.7367300704824473
P 3.157041524805539 2.582854339948095 11.542659855506404 -0.08394086178902962 -0.32232943313839973 0.7987224530248438
P 6.173994225083122 1.8152829565143915 2.9941239999933535 -0.5465645958055232 -0.39311036050670367 -0.6939656829317273
P 3.823097910051995 3.915210596599021 1.669084502390739 1.7618468986092626 -0.5241255500757167 1.1943260122670463
P 0.32854804731577614 3.1076044698765277 6.409993183737893 -0.016648664300274552 -1.6355962203084282 1.1286785494705658
P 7.061501271043032 0.3134238109622333 4.840541344235911 1.9216309327808518 -0.8995243522352702 0.7244101154645136
P 2.753172907478673 8.016379063954885 1.3752463433850382 0.39922881469961563 -1.373763301893189 -2.326868158458076
P 9.076751917252285 5.196097625386745 2.6287112118690814 0.4327400590831838 1.502390965066632 -1.2244225745421105
Ni 3.3798969133536865 8.414301000114877 3.2975976554598354 -0.7569847069664254 1.1415708320522018 0.11264877124668342
Ni 7.952660609373147 1.6656700772672086 10.666326951228875 -1.6767960915855058 1.2477553357307802 -0.13904885850676696
Ni 6.481592161472267 0.6641075594971235 8.760478381756068 -1.2207114442391105 -0.8245995779019218 1.0152710456809868
Ni 0.4159118172963122 4.059635347710066 8.464666111900009 1.1305947926566724 0.5806561381725935 3.1637812636200286
Ni 7.8867507793692875 3.2474872676553943 2.526091161118541 0.40619881825954557 -0.44127535024770453 -0.4667076742778801
Ni 6.665274373136903 8.508567602675102 6.845377338278739 0.35325928994803674 1.6837830644263003 1.8731126734654904
Ni 6.741588553969734 3.756766661697726 10.18558788084664 -0.5067816594806305 -1.3258225123478522 -1.1237302043263548
Ni 5.566721017292511 5.245937368961702 1.155908393334965 0.9282088646541563 -0.4264339143594978 -0.09245224169415045
Ni 0.2677898225243517 4.074207057781963 4.3889428845418 -0.7550054717528674 0.8663452943801402 1.116550398748464
Ni 1.847872642279301 4.3681791341745715 1.388211981299267 -0.8662784456979468 1.316544429480036 2.1553899757780104
Ni 0.12811867040591254 8.983534178141964 4.287172225888638 2.3179662279827564 1.7934935789802662 1.8821781261018682
Ni 8.296397510522862 7.761711272377024 12.796796183895431 0.49961162409475246 -0.3618249201298607 0.10152155098527033
Ni 0.6920813095972274 2.4800657218573914 0.9474271164766331 -0.9310931281804866 -1.2273659734411506 -1.0124880836192112
Ni 1.7185908572262618 1.11117717665218 6.601773183126933 0.7201246007152824 0.5931362729174753 -0.3442375460654007
Ni 4.813065804274513 1.7159874283059615 10.04242457533115 0.5622362409045091 -0.16632054973852647 1.247724996713477
Ni 2.4516527601876397 6.337167410361221 2.6996415391541397 0.145443192068885 -0.3639525079958248 -0.44675102865029515
Ni 2.467001752994734 2.629884627853663 9.517990040922912 -1.1229413898764726 -0.7053124754031144 -0.6990358983657833
Ni 6.8090904088529145 6.084634805092096 11.21752997925505 -0.590046578248558 0.358654235711363 1.0693773406070874
Ni 0.10153279140648669 5.843564778954079 11.943338804163288 -0.30806392435832103 -0.8108984262657454 0.33775296678232153
Ni 1.71800087153569 0.3082881259985907 8.915771980366754 -0.6455428115436496 -0.3181413631989811 -1.6429331202894735
Ni 3.2971959032991127 8.177295319845241 8.190510999314046 0.7273026065209603 -0.1198810273290645 0.29281188329525704
Ni 2.944309541519422 1.8967852654833595 0.011894298818968885 0.44750384765591966 0.7317871246548752 -0.13860662876302582
Ni 4.8035604792597475 8.186622712667612 10.547450453490029 1.7626899633358482 -0.27286809318347843 0.418548340963834
Ni 3.7207868994250877 1.4215752038584817 3.7612852028993267 -0.039095937560197185 -0.686462946796779 -1.2055774168111495
P 5.6687417175002475 7.371712001204708 1.727171871325798 0.2177582966935282 -0.48241325793859496 -0.4450695271828142
P 9.174698906739408 8.76698133514548 1.2640171839782677 -0.7244630801896362 -0.4934376340735566 -0.06186434160496443
P 4.531558346201758 5.790456701950401 11.715894638021807 0.5325975921024698 2.1001310553047055 -1.1216818064377587
P 7.229815760196113 5.572808171242852 5.549505609435719 1.7013987206255345 0.22436757447992972 -0.1534336664735293
P 5.8773157063956685 3.0314775860883234 8.136068430867407 2.1191245656880726 -0.8670137812020746 1.424353870356547
P 4.483816329526612 4.708179459283999 5.301748142319332 -0.9729092928853246 -0.11015788650402965 -0.09903503711799072
P 9.14537755440322 7.378988491388425 7.785760212906992 -0.569732035060922 -0.06852452723395941 0.08092367222926064
P 8.357980778795865 5.0400229980999685 10.118522428077437 1.5872419973747567 0.6354561167316088 -1.1756124950179432
Ni 2.9765901871606983 0.2223159730596252 10.644204360802885 -0.3121419510824366 0.34748330669620797 1.1437791525574303
Ni 7.023704727437521 3.5533246118250545 5.781362493948589 -0.3157774909524949 0.9401516388383293 -1.2285959891935099
Ni 1.8661809283914848 0.4409468767662354 1.7467444124892064 -0.6694882666156535 1.6072333528950193 1.100026432951512
Ni 7.83271558199471 2.812208935944762 13.58310476367351 -1.5780037666059403 3.397491712767439 1.4543213632529146
Ni 8.833012908228346 1.8979933314211965 4.79895578141762 -0.5768642752303291 -0.4847413918511393 0.7940607858831163
Ni 0.0857164924730511 1.8697208425349143 8.53800882511985 0.10640767543297804 1.2986611214417116 -0.7787658073972588
Ni 5.6922849560097255 7.848439168891055 13.10268128881147 0.23788617779165483 -0.6889255494046587 -0.22997155093026844
Ni 2.7894991692838698 6.945152346921413 10.913713570196903 1.6305033791665533 0.7615391591063271 -2.8245136599653935
Ni 0.5850063986402598 0.7928340088128472 10.94385434710333 1.6179898200805747 -0.7481971905817824 0.2598097173376235
Ni 0.11111584469477176 5.211221861740288 6.726693756495857 -2.860907882323712 3.161170308359743 -2.1992622516809286
Ni 8.35209965159461 7.539670625972999 5.6675720474565585 0.15121968954134604 -2.1024105953675014 -0.5465352852294845
Ni 1.7146014301757295 4.150905197556275 12.960505038721159 -1.9305603740599977 -1.2864409252264362 -2.309308809418075
Ni 9.05915535990968 0.00702925808481068 6.943542528822853 0.6006012138359528 0.5224702738604808 -1.9920128249385243
Ni 4.233315897191679 5.9427479289357334 7.21765737254422 -0.44428019851229933 2.2408804414423473 -0.14267745639828977
Ni 4.493836721414099 9.086444539311675 6.05194116946742 -1.8236474768558268 -1.3187175258719546 -0.5132307575400838
Ni 0.8633850595825378 6.708577449854416 0.808226079940205 -0.01612621613790126 0.1188171048409244 -0.313710324010821
Ni 4.6500049972231885 0.6816563560933488 1.6707701757923725 -1.4845374818249786 -0.8395597987561799 -0.10275208095826174
Ni 8.754245136110917 7.446040833364503 3.035421125362922 -1.9248571530276333 -0.2659261146480066 -1.9716589438725205
Ni 2.5772728880182423 4.245265448638813 3.8215658202269545 1.3595458727422263 -0.7068880474203503 -0.16072660059051672
Ni 7.8997117348574 0.6558262206689885 13.045224174431578 -0.7314315410876693 0.18813147496603083 -0.7785991999124076
Ni 6.200665324237852 5.491502524170742 8.440392414916492 0.3769196096794541 -0.5194839375386472 0.4697433757804103
Ni 5.862116551224276 7.048811896269626 5.418019338167433 -1.588214388590355 0.24824232421499826 -0.6759648754789326
Ni 6.816291980218781 9.146211026251805 1.1046414462799587 0.41195937489240664 -0.4133863371469203 1.4520400234179058
Ni 4.147664958684247 3.7220979787374686 7.420087081890689 -1.109391933326812 0.06384949035579326 -0.23990835042800618
P 6.084859561545648 1.9225573388238857 12.056362269257576 0.25041310661407196 0.5489456944431901 0.21326246570570367
P 2.7748993646552793 4.806725799313925 8.700813971705259 -1.5233521406993311 0.6689766170865575 -0.4370787956678537
P 0.9385454906204722 2.654448635256352 3.027196912133398 0.5653747865334908 -1.5085348731808408 -0.07079095467063291
P 0.023884119130696987 2.330471572314671 12.465484568686199 2.8902577962407383 -0.5169488298216194 -1.547367272667006
P 7.3471386289497875 9.026144255794362 11.193215076921712 -0.576334370868788 -1.9705502841893738 -1.0887984254461764
P 5.422464833521628 7.80735556215236 8.505429440692394 -0.5222892681979262 -0.7781528564036082 -0.8605826808647502
P 2.3807140045355735 8.871146586514184 5.196812163611993 -0.6981907767566685 1.0940535031975287 -0.008307748534746983
P 7.88583302385062 5.282479022368218 13.199174853232297 -1.505308395823743 -1.446963894446579 -0.7366922752659764
