# total energy = -340855.2362160135 ev
CRYSTAL
PRIMVEC
9.41780532177457 0.00000000000000 0.00000000000000

0.00000000000000 9.41780532177457 0.00000000000000

0.00000000000000 0.00000000000000 13.78391005476452

PRIMCOORD
 96 1
Ni 2.204510471866133 3.208862911690687 10.276718677928374 -1.1688358384157418 0.6450486455160503 -1.8791375395033314
Ni 4.770231452312503 4.789067063126511 6.043900164458452 -0.4794094381152646 -0.9291360044541158 -0.17732230016566883
Ni 1.4465089858779938 3.3526916358664547 1.1795829525688963 0.45823897468523667 -0.3929488952281749 -0.13070922829282006
Ni 2.563441871537876 4.7506706704821555 4.846326378220557 0.25877202010172856 -1.1856927620720807 1.6299634475026832
Ni 9.107225020292 0.6778898660739985 14.015066619870026 -0.43961107517140413 0.325399073202659 -0.35420417035980933
Ni 4.823950614354056 0.8660547927643198 9.276488411530465 1.6853933463362134 -1.8414202274582157 -2.603323454772181
Ni 8.815885210026327 7.721611564175697 0.28474923004185293 -0.76399224863251 -0.1908666145090068 -0.07073207640823947
Ni 3.056821861200011 6.586813101658727 6.45510132591961 -0.037143441819516676 -1.8146457875778488 -0.8895818963105777
Ni 7.761128675663485 -0.18203676071198388 2.0304797875306426 -0.516322251981214 0.8161550466789945 -0.2262452511186168
Ni 3.9508823819031393 8.794403195892949 6.729345935810491 0.6499941624467839 -0.6305370821634366 0.7476287196728221
Ni 4.666918126997667 3.3727609791887807 3.764426786894189 -1.467190505906099 -1.864188631502983 -0.2854006784328504
Ni 6.240171938043123 8.21599925901638 7.706239822190383 0.41828428866916995 -0.2873241207078084 0.6549057408157882
Ni 3.84811528930191 4.4871133861671435 0.3262845772283635 0.12502837585795887 -0.4618542028403207 0.9729013224655245
Ni 0.6471915875693276 8.67135956825044 3.8786958452389935 2.0093572297542424 0.8130797501877804 -3.505283155921821
Ni 8.235795485981903 6.079428835356376 4.381698006685465 -0.6490973616641273 -2.104940303767891 -0.39250178038842726
Ni 4.261378008366661 4.762358166992248 9.628267929776129 -0.8104839644361461 -0.2393303664373491 0.19615768770461703
Ni 5.97611551004154 3.9098113325231942 1.784230545992623 0.318527028673174 0.025518198875762503 -1.6590007152752977
Ni 2.951069324284761 0.4397173344530254 2.658433623995083 -0.25394348836483366 0.35254015239382513 -1.911185569077812
Ni 1.815988327605582 8.087540393264844 7.580116572179784 -1.4851468332742035 0.7861428165876203 1.2971572832026756
Ni 0.8186342589789725 3.9872821998012107 7.42577851895034 1.1096960948307921 -0.3912450251631907 1.0130089891196876
Ni 0.05519775749045153 9.500587916531751 5.710798037895959 1.8921552919192381 0.8341041749582474 1.3640499312601668
Ni 0.7621971182969592 4.144644310346844 3.2983659671566916 -0.8410296984334871 -0.40001865759076266 0.13572262234701143
Ni 3.9755947032911187 6.5910699497026926 1.4168617344567445 0.49806279155039385 1.8026143103346115 -1.029101523806176
Ni 2.407435924970852 6.261814054868419 12.610913272029492 0.5813757899474375 3.2609031428757067 0.2594970711932112
P 2.108778479903935 8.103192785851284 5.3684608113513566 -1.7167425500714562 -2.5678196054386166 0.28038059951043964
P 9.16739537903735 8.597128426032432 8.139564350333135 -0.6699263825943366 -0.5253247125901404 0.30721674586667735
P 2.806647278368352 0.34449955466605026 9.024408606664968 1.252132124642237 -0.9136170828829103 -0.9289475425923936
P 1.8843427592496185 5.648903278980587 0.9542431225955071 -0.2411363092978363 -0.7219961067063824 0.4544571390453012
P 6.774914929052821 5.342419637620449 6.799423825844009 0.10400240842559508 0.46472818195400606 -0.03560412235685481
P 8.90078672577047 7.163116867929533 2.4932886390611015 -0.37003316697226596 -0.23827107193489933 -0.9058271545248465
P 0.7069937101232634 5.542934132540976 10.656299557735514 -0.3635352179527481 -1.1620535253865856 0.22235002982926866
P 9.17817876622837 4.219723055051481 5.246335419736031 -0.24448825648920472 -1.4095453445888046 -1.7053366222273598
Ni 8.409403310854618 2.3008357855689714 4.683800484970264 0.8216132415800882 -2.2439667936771546 -0.9922385893415556
Ni 9.095603448419757 1.509758966991434 10.310392041161117 0.900619899292294 0.02754499949780417 1.0026178756933508
Ni 4.288105740111738 2.115192005386105 10.866214906013312 -0.3355431036151963 2.03761133950393 1.2147385144851273
Ni 1.2169782324984877 1.226160592770317 8.213680595325176 -2.123702671977058 0.6025907334621557 -0.1919451922851662
Ni 8.01264058686294 2.607536036453469 2.1323983358647016 0.5139696925886375 -0.25190100401350807 -0.486832212941897
Ni 8.304065157377277 9.114523819482429 11.858559643943936 0.9072541167793601 -1.5986764644639435 1.4912945980431542
Ni 8.639414372309881 5.406281776085345 0.7665415519312102 0.28603291270021064 -0.6192514819472884 0.3908259353479011
Ni 6.166562370981979 0.7572282841642237 11.468585274089625 -0.3932813388669291 -0.13304610395611283 -0.21552400804637076
Ni 3.035904915391055 3.137127487905536 7.885968278797111 1.080467794093294 -0.6314585655364415 -0.5956801223852516
Ni 9.028831208084098 5.981954549393883 7.84807573874203 -1.1371500772766867 0.4211582677828553 1.8187220145297518
Ni 4.935495101594612 8.354252642391202 0.17399583845548372 0.7581285907628814 -0.12227780969601522 -0.21661698400023338
Ni 1.1549054770609233 7.570154417620254 10.319971832821121 -0.5509012755076641 0.7230934535356192 -0.7600016394158782
Ni 5.722446921403883 3.346956192373589 12.637654188702141 -1.7185379514089822 -0.4408140943405699 -0.797197274629569
Ni 8.279550609902845 7.517037995124751 6.293719696026268 -1.0630295440121886 0.18367086809151592 0.8024135287231859
Ni 0.717677268576969 5.790820188658733 5.965689999455987 1.8457839037435502 2.503225009386682 -0.04060337534365911
Ni 5.797525666108521 6.112626599416066 13.366354056727468 -0.006961261809181559 -0.6983144468187263 0.8045537149946401
Ni 7.6345251175771285 9.011841487129862 9.821642786417605 -1.3332470869466972 0.7416833007226646 -2.8522142112044553
Ni 2.7886404344301603 0.4626694680104353 5.054780083099187 0.5174406818563734 3.304697514352837 -0.07838213675432952
Ni 5.476472679783747 0.9001924538036288 1.3555734822095833 0.847219886404599 0.22510085310152847 1.4168732457087856
Ni 1.9226073026182762 0.7797067021096613 10.824724764292755 -0.04508532237441268 0.14023722238791334 1.9475131998642523
Ni 8.276649925837487 6.8046469407227335 10.04671985962014 -0.33914007693783527 -0.3530160635889791 0.33057444675601133
Ni 4.7662288850145265 6.355841424051949 7.808763935412113 1.2096379600337683 0.0861826066353548 1.3593527828948138
Ni 8.245740688491699 3.2126111982426746 6.837977495838662 -2.1944018382648336 -0.5524058850776487 1.5722509232825632
Ni 6.569710367039607 6.744372986117907 1.593351407784003 1.3349370730546106 -0.3124936779949005 0.5439585256412439
P 6.938003065285912 0.37390100136617666 13.524386715018082 -0.645643855897888 -0.8662434786949533 0.8563097645210092
P 0.42330115784807637 0.9528747154698695 2.1504833475877714 0.34123809711744457 0.03156260529762951 0.45243548062958205
P 7.344532053484655 3.7859577736156824 0.034837403981049175 1.297639879266049 -0.48986071535557574 2.2506789155900075
P 3.962598131829453 7.024251327203257 3.516261963736385 -0.04802692150123986 -1.3542992796313065 0.8786904462090543
P 5.563822824933711 7.801681745746046 10.005243844607692 1.8197481418014207 0.20241009637223203 -1.7180967501065056
P 3.5499381523107507 2.85644863336059 5.5068648796126904 -0.9665949206315224 -0.3862740543111605 1.1567261996364013
P 2.264285282784388 5.111730494175882 8.479434111861101 0.7801092087990307 0.5876567378601427 0.45840506794945574
P 7.875846963326204 2.295655992595119 8.899553935042691 -1.0659150930900998 0.6197533612843713 -1.7450977041753817
Ni 1.6174044827934917 8.304197006652974 1.5362446611375518 -0.6808427723965241 -0.6342145310150239 -1.0351127629972625
Ni 7.926712530329433 1.9377511337127389 12.412465985395805 -0.8638652082707639 2.7702561841734097 0.08670068392235392
Ni 5.510047156059717 8.26355917632175 2.9026156572462654 0.4991925342794628 0.07034126872772402 -0.38826254549609907
Ni 7.874509634958409 8.25255917960637 4.12694448686492 -2.189759454396816 1.3438459455084661 0.7221166914446466
Ni 5.9526651745781 5.191405127919137 3.587952182055582 -0.4979838586833423 3.6677303387478704 -0.2735273240340322
Ni 2.766433249280444 3.1811368925724666 12.42146752380382 -1.8339797120197705 -5.638588641095967 2.3978347194746252
Ni 0.9868164861567125 4.601596228694686 12.903904023583017 -2.0954699023836105 -0.8879243061024965 -0.8407149954065457
Ni 4.274487593493211 8.728469140238513 11.38664000746274 0.14761937378459739 1.5970217024693398 3.34770744225546
Ni 1.3765629451201735 2.201440267303449 6.062328926078879 0.2558815859278109 0.5062576686563603 -0.36531262156814504
Ni 6.571226633710134 3.6156932696624535 4.926645189853651 1.1740135259619393 -0.22243333357169437 1.8207758117349868
Ni 1.1642008509976363 6.396460418772358 3.78091265525915 1.1510561458348176 0.8224681333812157 -1.1790094365146342
Ni 5.88410355121511 2.930218303113654 7.74717808051409 0.06942261356819657 -0.6616718558950283 0.332457265601021
Ni 5.564378475452725 7.054143441565088 5.210607091363479 0.13276379682900363 -0.12335433058964562 0.385347171621517
Ni 3.200029010218917 4.9795233418723575 2.7602966072772404 -0.5669441879031397 -0.6572001932769197 -0.6402977610946263
Ni 7.884153467695181 0.6413158187758977 7.019745849096546 -2.2689741143547697 1.0841478140480425 1.573944251824586
Ni 1.8896826549153896 1.0164637375779617 13.675982303313004 -0.17649517627868314 1.8643400694791827 0.713115516387301
Ni 8.313285188870733 4.4069961155697595 9.688434521399316 0.41832722609196343 -1.28456119170522 -1.440127588251036
Ni 1.118571583800701 8.300844267928081 12.463880610454265 -1.0693575431127453 0.074306166912743 0.27816970790205
Ni 4.742166392199631 0.6957045867818875 3.861135405277093 -0.21266699821354984 1.9567750847821526 1.3040092731275026
Ni 1.4614550430589095 1.8672117712142775 3.72548792865839 -0.7319354773072815 0.7660221345783452 -0.49435397524023894
Ni 5.818028228479569 6.0122704649990295 11.188923542528636 -0.1662444450849524 -0.07423057647980119 -1.4288252758643392
Ni 7.723843584057156 4.574228086181932 11.870538150641103 0.6606660403383332 0.3320561735078604 0.8523960312888996
Ni 4.224657985084751 1.2948258119927842 13.21511728681855 0.2538534997541886 0.2456120856810028 -0.5745821640643718
Ni 3.334939072674252 7.828983963620951 9.749718064743773 -0.5112574358637969 -1.7794491850720582 -3.0682789222456446
P 4.23160832547512 2.6179803826498373 1.6774194477496258 -1.145890028252846 0.03284121489973699 -0.24966388715287324
P 6.09173790702333 3.8526735071189 10.450064687810773 0.1873064079615742 -0.3590509569291494 -0.5005035397814025
P 5.566290289950346 0.6855559596752998 6.973031650716724 0.5972315260327714 1.4228911697680913 0.4694266158709399
P 6.729012545499083 0.7532398435743575 4.13737847347534 2.5863788564980426 0.263343698632811 -0.6347351794051842
P 8.072726185359626 6.708378133852337 12.204563222133485 -0.7318377753871524 0.839046092344555 1.227824401134808
P 2.925933201653467 8.758135227270577 13.282203140074264 2.265763834947588 -1.5853956881946374 0.3083493168092238
P 3.6372694618499 4.776400114854091 11.993807805613383 4.076090683435109 2.9395828677281117 -3.1271741539199565
P 0.5937559014705265 2.3402210477810628 12.415870522050437 1.1303068291026082 0.07185230605561174 -0.4841500381240436
