# total energy = -381170.58187879744 ev
CRYSTAL
PRIMVEC
9.25884056053950 0.00000000000000 0.00000000000000

0.00000000000000 9.25884056053950 0.00000000000000

0.00000000000000 0.00000000000000 13.55124905829439

PRIMCOORD
 96 1
Ni 0.0779149951950831 3.898555188447961 0.8944438124256545 0.7884583520946743 -0.3209266392536021 0.67976650861321
Ni 3.141857924888146 1.1814373160338196 9.607564619095353 0.5517651661698562 0.11984066100943232 0.9495821881236097
Ni 0.18843407158609332 6.179739070134597 1.1961283183719742 0.36711213667072906 0.8765566876955033 -1.4691113770778954
Ni 3.8776487264327386 0.2731441298781523 12.492693412558307 -0.7365644914388606 1.2965309624725865 0.32398830889806135
Ni 4.074334276738037 9.33411494747827 6.842283183901324 -1.6756244398749074 -1.09600728448979 -0.8015169850508453
Ni 7.579435035010238 4.693871076040323 5.251569930919551 -1.1275038124361743 -0.56415351253188 1.575449375615203
Ni 4.76460861802274 5.002449714677757 10.083742160376074 0.09222855571911857 -0.7441070796728088 0.37754053109290464
Ni 3.1442837411184326 9.0162496917455 2.0794393008919143 -0.48523504365810627 0.40309883917798317 0.6385100730665841
Ni 5.405227797311147 7.603461726298769 12.000999906244322 -0.2405506119976954 -2.0989899997217267 1.7044038260004455
Ni 2.4264180549243575 5.4155699222318745 10.324913661985418 -1.600407074001805 -0.6831822191629783 -0.8395726542719862
Ni 8.508244885992978 6.907196915162936 3.236878628042982 -0.5754488829400412 -0.12695130391228457 -0.080440561945255
Ni 3.7468490856492824 5.90664956741583 3.7943497154440986 0.2811020510574965 0.6639521672887727 -1.2187628051531718
Ni 7.217155121045838 2.05036098618642 5.393925530622935 -0.19899284316056695 0.22184069429301795 -0.6864076680788114
Ni 1.0684331668328513 2.955884853126519 9.852205408267631 0.5804123975929036 -0.17158436924062706 -0.6278618493241187
Ni 4.676427420399633 7.375694248187845 9.653476431847736 -0.2314072549355305 0.7422916237306247 0.19338989515149274
Ni 1.2102600867394826 0.28123913419166374 6.328786033920533 0.6607030642238556 1.0302268956598708 -1.0670857163594334
Ni 8.78472312436169 8.261746773401633 7.591477083060282 -0.6151528863978825 -2.3738162450728404 -0.9166502132822795
Ni 8.50245811063447 1.4145286274745719 3.0120091670315996 -0.7976083940250586 -0.4346681293438321 -0.6914966525659445
Ni 1.4872938555426105 -0.20355098059063417 11.147826449791497 -0.7890170528116218 1.731257970078812 0.17844355825430558
Ni 7.59152708079938 1.710589313656478 9.464097958523134 -0.7524839908825944 0.37335503225664735 0.824259935174316
Ni 7.366787243556028 5.5620725566281815 12.674862952612292 0.6632481992432125 -0.4160245461007157 -0.12557602083131278
Ni 2.2549906217038798 3.8490481679008424 0.4051168657622853 1.437878130095227 -1.1285839328742306 1.2505658085963816
Ni 7.313410027649138 3.463889658879041 0.41654597856635545 -3.4940291802745564 0.4812783730032033 0.24850123430333979
Ni 2.9040353459142763 1.6703689102046957 4.811086145934172 -1.2692937240231883 -0.8239341764037811 0.9765440614244343
P 2.7888461103379347 8.219535719226522 9.404526578272495 -1.0317554164892553 0.22575751284892087 0.22701992450111225
Ni 9.094440600389678 2.977819046445412 12.020336994782316 1.4719907555082197 1.8470164905990705 1.3067662670473494
P 1.7130521652490596 1.771790249848072 12.776442618429478 -0.5003310187592802 -1.6116235115429147 0.5495671300772729
Ni 0.9839832819609109 5.8927798242365546 8.138230136613382 -0.6280351416771893 -1.3484199380323938 -0.9750985872271594
P 6.530306550773373 3.1281548408391955 7.204968635082847 -0.38450282134335073 -0.7819840572242405 0.08401388111881015
P 4.620791047392782 7.643469176417359 2.734709669504009 0.973538184718575 0.21828383017969502 0.08241002696680001
P 7.421840309606741 5.439828084534746 1.6168129986747355 0.0758413726103468 -0.3727927319952741 -0.6760096126739391
Ni 5.261928721753311 2.537644506735192 10.40695254477199 -0.293973507703526 -0.17527081695327879 -1.0657132614919387
Ni 5.205829406717778 1.4522676616526256 8.182094819714939 1.3606640455070695 1.0280203749268553 0.9490090892289591
Ni 5.156563116025575 7.23088598161651 7.084999986002406 -0.1691647040555409 -1.0309385770149149 -0.2922588390052644
Ni 6.67640179618444 8.90820828109199 3.738966108784907 -1.033955766574684 -0.18619466295463416 -1.3813467706674016
Ni 2.914016376052633 3.8801763899093356 4.761204142343822 0.761866460538759 0.3695271738701249 -1.7716278892554262
Ni 1.2018160241363458 5.231263441773499 12.370338760262046 -0.662901100316439 1.0111035445668588 0.3302669428179215
Ni 7.359787560082374 6.33114889003492 8.320765400870025 1.4137061608347137 1.0868207328945152 -2.411716362552724
Ni 6.39902545028009 8.566871864505107 8.653055004332428 0.08484640432243452 0.9330749344972059 -1.707332826721782
Ni 8.324882807273111 1.4668225590343482 0.3763903869985881 0.372946483964319 -0.6075966713171794 0.6715999136420177
Ni 1.5795304253369609 7.123103818499059 2.950757307216851 0.9926761910996065 0.6219333996548256 -0.2545628671163874
Ni 6.221181640542097 9.19385277162858 6.173447687964826 1.0232697476157473 0.31625365925796506 -0.3966746808191942
Ni 5.354535645170606 3.942627269578367 12.236547588089252 0.37941229419432076 1.2815573718818896 0.5430516975562583
Ni 6.801692426826597 4.316721464114699 9.02936020999774 -0.7604487542556257 -1.2834170507984477 -0.025376531091575654
Ni 1.248156521207288 1.2377681020836921 1.4267428899592844 -0.015655447149069815 0.782683140173794 -1.137146734842577
Ni 2.2113537060804336 7.6460246164156755 7.266572330839392 0.14806983105845467 1.5929894413814951 0.6121922611076619
Ni 3.5046007808812254 5.942546092319733 8.340536729030921 -0.8996703908948313 -0.135557814634373 -1.6738848314759815
Ni 4.300833293690376 7.810183859785866 0.5049373518704836 0.5739013359472632 1.1057471374853731 -0.17511860764613066
Ni 1.168280503578713 3.0637596046497046 3.0292194998898347 0.013811451961795567 -0.9759869033693838 -0.33091537503519786
Ni 0.4860178370423592 4.763312380342434 4.430255218996478 1.4791654188797878 1.1423344496911036 1.0571607439362376
Ni 8.907643491817 4.866344758245619 10.398510333936969 0.2767697422307298 1.1240546775453093 -0.2140119422772185
Ni 1.3180700263786531 0.344357576266053 3.685288906443433 -0.9439802685558002 -0.21067207927070816 -0.1709973863889055
Ni 0.4823633726679535 7.1147245677799384 9.896220084586481 -0.007739020515470542 1.3843565040280028 0.5396195319462578
Ni 2.7607177526752933 6.156304944642779 5.743127332277104 -0.07145481350687695 -1.117534359928288 0.8181090850815718
Ni 2.978420871082698 8.485607020790491 4.787426104732357 0.7153158664727293 -0.9574849879104542 -0.06648538531674357
Ni 4.650910055778751 2.575096516855464 0.48920102643156793 -0.8170335926292058 0.279479427852409 1.019402037130225
P 7.382869849632397 3.4705097298891756 10.89338795552422 -1.701032081314735 -0.6474608545019689 0.9087322439867832
Ni 1.5956593256161977 8.56541822653505 0.05263280512477059 -0.0872724972654239 -0.6000175734183407 -0.1001174715488921
P 1.8277506822749996 4.963025571515305 2.533066935955597 0.5617505595173422 0.6005130249975207 -0.4620334087306623
Ni 2.7058498634360517 3.317285177236425 11.713712897389973 0.9542718802897953 -0.4660206755131845 -1.1408866615009834
P 9.20353751886858 8.749826554239736 1.8235647604516683 -0.009013002131887703 -0.6091539885019702 -0.029567943465103913
P 0.668616061414903 2.2527407234444916 7.82485727032693 1.5538281978010016 -0.09344494462472294 -0.29844439899068603
P 3.4361501725204913 3.732275670586413 8.771954257326618 -0.3316010882483128 -0.6158344858459394 0.8681445523724082
Ni 5.416662465419562 5.827264268337656 0.43941716655129864 0.5836555871205497 -0.887483361910336 0.0695928205974737
Ni 4.95507222746257 2.226871522881812 5.87649907897191 -0.5826400013718417 -0.8162301228913039 0.7210057177686551
Ni 3.1602830176296393 2.078387496602752 2.391442784657528 0.7531319088792384 0.9335012234013471 -0.11722404932219165
Ni 8.623582263018498 3.943979060302115 7.468743744184558 -0.18883287190842962 0.01091124759586508 0.10959687179423705
Ni 2.878082815786434 2.0087980508514627 7.330534253290039 -0.16802647668603965 0.7462935458011664 0.3942863830926758
Ni 3.047102950457772 6.042652676601657 1.054162515856739 -1.0135424930256545 0.00047925362926369076 -0.4134130766197977
Ni 8.501634073823418 0.9317078680822818 11.5763709598572 -0.03473277549549502 -2.155816007571836 -0.5950103500117365
Ni 8.505300574690569 9.31948597937196 5.012254826845215 0.34147566704954735 -0.8279854636550191 0.8023006572944054
Ni 6.117519661479906 5.916389867699272 3.3688134026807632 -0.18590952761404758 0.34509835140379924 -1.2210459447603939
Ni 0.18630824179039135 2.3460235422236604 5.0711216093282 1.1079490302326984 0.3122622787103848 0.7565008253514713
Ni 6.586813254794145 6.403090081291906 10.37098750444784 1.8618604975904387 -0.036830538564788184 1.800054005806603
Ni 7.177777272086256 7.054403221442838 5.159082446545655 0.4452942415991106 1.1739235373512944 2.089290513045776
Ni 1.149225809678214 0.17805954072335795 8.656605769692408 -0.18475150275020438 0.8199919039265814 0.9408180687777344
Ni 5.718306232467357 0.18263803738701048 10.989575272591331 -0.3980661618500822 1.4783370094412216 -2.1559409631854742
Ni 8.22093380415314 1.1518738380822677 7.3850104935730165 -0.7460739735911925 0.36918933091473194 -1.3886862417516082
Ni 7.9844907924247375 3.795069127356668 3.2990924813933296 -0.10963003902501764 -0.8105945218720813 -2.572213620741254
Ni 7.365435452832279 8.768196093937787 13.121565900810968 -0.3211073878058405 0.00950562549759008 -1.8087561615662913
Ni 4.8361979733379306 1.2211299655729064 3.754861686281689 1.3228348904744378 -0.5949003067964335 -0.9499807091136092
Ni 5.807283690379795 0.4711842485593709 0.994580024997413 -0.6293975692423547 0.5151277174524805 1.1932502627043644
Ni 0.6151601453631381 7.0973827593855585 5.071473445269997 0.6138619355006009 1.6006374448450562 1.8203040143048907
Ni 6.036551100663645 1.7446340704456598 12.537859888644514 1.8655867974020905 -0.2677127742347841 -0.09071237618490828
Ni 7.1707220355691605 7.7210582604242495 1.4620033325157817 -0.46342823219565993 -0.7678494175950712 0.6772789663046659
Ni 4.328498709324337 4.33516507453734 6.7540779132927256 0.41051441491576396 -0.06661599735733688 -0.04661692852759068
Ni 4.357265926986559 4.377598340886216 2.047485190304255 0.04280398253940371 -1.0978525652286448 0.7140987062361767
Ni 8.82298991245244 7.2866427195508185 12.042507288535838 0.4305096270907683 0.4692857194177015 -0.329426192084181
P 7.513632455053558 8.592565147096888 10.333030887516307 2.511458195929752 -0.7018849377788041 1.6754218369457985
Ni 1.7327179426274175 3.9725518423122903 6.58231623592754 -1.2648094629995894 0.2806068565886329 1.2764866422272014
P 3.6544643744057543 5.33469394982135 12.09489658615352 -0.08655644503500577 0.6572513582298293 1.488846650723294
Ni 2.9381541734280465 7.4661994147949295 11.606427934011325 0.7659971948776808 -1.6169456950867767 0.641640648275766
P 5.513759926515059 5.707519683199096 5.537501445513922 -0.8882094414430833 -0.12997209301647938 -0.703588293623156
P 8.721077854258661 5.973091007372089 6.478364455155394 0.7485211495801045 0.7723287935226634 1.148521552338422
P 6.532389789902437 2.225390108390034 2.262801379611781 -0.8713653733025509 -0.013841276758466485 0.032034145617409346
Ni 5.791599214448092 3.590300609230604 4.202567366914487 -1.3400854500247694 0.2163840420538209 -1.1649146489844648
