# total energy = -340891.6694978704 ev
CRYSTAL
PRIMVEC
9.04761681720917 0.00000000000000 0.00000000000000
0.00000000000000 9.04761681720917 0.00000000000000
0.00000000000000 0.00000000000000 13.24210175911008
PRIMCOORD
 96 1
Ni 6.468304139604022 2.1103204386322343 11.59123579720956 0.10672469245276457 -0.0642796359146764 -0.24921317276869984
Ni 4.48802509788518 0.43551698921329884 6.079356139053697 0.40733678851873073 -0.2322014687020517 -0.5168189891119744
Ni 2.7503307590148647 1.6276300799507148 4.823118063927241 -0.04190383932263751 0.054587862548209215 0.15529540227261643
Ni 3.3954529829149283 4.169015175546816 4.973508455886756 -0.32061039356476395 1.3548767494013312 -0.6676401576633211
Ni 4.9967997359308765 4.610330782396085 2.7875816070891584 0.38470362450024714 0.05268010400253508 -0.2493712956131189
Ni 7.2083991975262025 6.071005188705748 2.558996281784922 0.44726499217223614 -0.8585242556738246 0.26680260371568887
Ni 5.328132512412149 4.416874639015987 11.418320458352698 0.6197911565008423 1.1214478360500815 0.27599121219349243
Ni 5.74861145766735 7.749039542100039 12.130983142000794 -1.0792974279342769 -0.6800138487373256 -0.1692130407949731
Ni 2.025969506786165 6.302271322881163 0.5161611124379659 -1.1575546090749678 0.4965926347627706 -0.5745034883076364
Ni 2.8335416911384623 1.8240086035717529 0.5627364344327311 0.777498510649061 -1.0794635211984958 -0.5349241833531174
Ni 0.7991886625837071 8.798517858037487 4.0662125339070245 -0.3752265382477473 -0.23952422761571004 1.1364224550820428
Ni 8.632819803137892 2.274462303434486 1.4595841684798396 0.9051514686140605 0.7777617916127766 -0.6182644354436707
Ni 6.862861662598256 1.0874692590696637 4.917335421942799 -0.1434215336531659 -1.483310551396413 -0.5743175975490754
Ni 0.49693673616567924 7.161975875494433 2.281349349376911 1.0137204133644155 -0.27978564623891816 0.19023335180038206
Ni 7.336097261676736 3.646162445690278 4.1031449058683735 1.1263560719849763 0.0015053809009328912 -1.5953918801754008
Ni 7.581531963831442 3.9720033187466273 12.828299257956376 0.07996799318421066 0.0664488756518533 -0.01534537210781873
Ni 7.714070502994058 9.031141134739654 7.253281710409265 0.6840031724023768 -0.7912593118785792 -1.115764155401743
Ni 6.9338854548316196 0.1827871935964574 0.23401480017292908 -0.12289436023409157 2.08620673191413 -0.8927134999610239
Ni 1.912403820147544 6.629532671782179 9.008866806828912 0.22144911528155414 0.09652306932941442 0.9558937321639344
Ni 9.306016782108035 4.890173571412381 1.343953815677186 -1.2427812795549562 -0.688830161477375 -0.3237805637626295
Ni 6.144716123142081 1.8995290613770883 7.075255372796654 0.538810148671085 1.4885064937750558 0.729815088530169
Ni 3.4289020223909463 4.33121180272739 0.4920139278403069 0.14824492318373825 -0.006112026435008829 0.06443107389087614
Ni 5.97101092733465 5.7315838427650325 4.752695938214072 -0.23660165465227637 0.28493119499559955 0.7555968254799633
Ni 5.069361623027891 2.89450453344017 9.45446374596924 0.08953609648861999 0.39553799611158974 -0.4383406930994128
P 0.25701384219295575 5.514540562269982 12.3006151007046 0.19353361981820863 0.18573572104034464 0.15354448101978074
P 4.087342338286872 6.031503293560416 12.447562874454588 0.5598934517039454 0.47067720044858935 1.0128385249800944
P 2.331489432408612 8.382779864009073 1.5295955323882455 0.8950105235253166 -0.4099737119209456 0.4014782728554247
P 6.2984441809557214 7.938623305470471 5.867429285884501 0.18038217003791515 -0.1359787042218755 -0.8879998965354383
P 4.8828178589173845 0.9957897575791326 12.748078563200057 -0.5660034212564252 -0.15687380250332983 -0.12702355191111672
P 4.060163297284448 6.264135617879426 8.15986287065824 -1.1083658060551427 0.3451173775671927 -0.9931294765869412
P 4.856299293944647 1.1894178056792861 3.771642034190414 0.37523296600565054 -0.9152265934618754 0.6696774998083241
P 0.132341301115395 5.4867553309389425 3.6231977846142622 0.060097479512528765 -0.4452325351232396 0.5909009558290533
Ni 1.582581995679388 1.1464325780486226 2.498598915536028 0.3083971393280237 0.4151442003782915 -0.6911721793469904
Ni 1.7472938603428756 6.533881266496686 4.837074917672361 0.3914987930452096 -0.31431607591561994 -1.107972684381782
Ni 6.099269943729574 5.646952434796768 8.903552546752945 0.16891479282826394 0.2905799086409447 0.8922967241385793
Ni 8.64342361008025 2.246867072057192 10.28954973314723 0.27908862017189356 0.8549221401448631 0.07390533192989852
Ni 2.1896047050450957 5.173798264269894 6.937762358649708 0.8597005353701129 1.0372601483575685 0.21182779014170613
Ni 0.5800698587844099 0.11857806637075904 9.253342461598047 0.1912687350434319 -0.11283800443935404 -0.263093787405534
Ni 1.794576705974921 1.1252159165470639 11.631094168458587 -0.08177933536133657 -0.9363458919389939 -1.2065873461329026
Ni 4.069907580626529 6.80247786777463 1.691254731128225 0.08295741482983778 0.6958217623038596 -0.03637699596713735
Ni 5.520611513172986 8.039875185583028 7.960132204996124 -0.243649048417361 -0.41253453066958634 0.7135644309992614
Ni 5.274471096904369 2.8354959763769854 5.193247926201621 -1.6087402764578485 0.38129948391470464 -1.1534117905511876
Ni 0.5931527127423007 7.5815681542988225 6.583602444868463 0.15852419362255923 0.9684900807717061 1.119989249226684
Ni 4.775567408836584 4.559148413903838 7.10356627066639 1.5997059341697224 0.5559601780878103 -0.794496073648322
Ni 8.275457032993513 7.296676795083008 9.152622581355978 0.2639844175406034 -0.7587579968167643 -0.5532942012198729
Ni 4.5879560259383645 0.647614842340865 10.46124726277675 -0.36939604760889927 -1.3615973559546164 1.1886330756473271
Ni 8.212901810127084 7.166508731533786 4.748895939139166 -0.5433167782921869 -0.041373677850780353 -0.7239249482979789
Ni 7.364407254784786 6.319090842596045 6.943164690667866 -0.562199988349935 -0.32398213825047434 -0.044894546519845265
Ni 2.3290284806267683 5.154988268849109 2.668667874133449 -0.3942017937986695 -0.1822981561137054 0.7470314524084554
Ni 2.304599915145229 5.311294897463577 11.55601161530855 -0.700119361237949 -0.9091155954681311 -1.3978283132621927
Ni 1.0753183096468093 3.135623522359804 3.8509091101312696 -1.069614396318558 1.0650265198375595 -0.39067629714391433
Ni 3.6557529195459932 2.72843552624993 2.967832753683958 -0.5253992745818177 0.2889485436851088 -1.5991847715589296
Ni 1.2529773140155125 3.3333410932739045 8.201932479464189 0.18562953447978353 0.012521529505778435 0.7868077038651288
Ni 3.400655362600811 2.8407797846144742 7.225446717185578 0.2587164842734448 -1.4612918810334767 -0.3130076415168416
Ni 4.0663699624401275 6.964846399675259 5.8889345663634165 0.17264083552959944 -0.053807018518126686 0.8700769935084305
Ni 0.6550194119668248 7.708424790082769 11.240584549240811 1.5502597637234528 -1.9244828004073504 0.4700531937113453
P 0.2954508328356305 5.85586190774815 7.833325331104825 -0.3742690594304845 -0.9767811171359049 0.8444613498228555
P 8.767158818052668 1.718051962699789 8.066532179093494 -2.0676371964420586 -0.016923772338532143 2.1568166809222085
P 1.9303633395848974 3.074778299077082 10.546195337334591 -0.23035027442592587 0.6539703734857124 -0.46805261834154877
P 3.8201209747693703 6.220779437958117 3.837256256312143 0.8453820618649118 -1.8369040847554172 0.6156902469585912
P 6.960195924616921 3.9090047626547917 10.005692516536799 0.3894444816193422 0.06584209530578984 1.3798236491546558
P 6.465056045156662 7.8401852341967135 10.04238603141344 -1.812150017739189 -0.5375472227982614 -0.13275171264414556
P 2.2932813464721162 8.801702619166932 5.6738564282471025 0.24936692473774474 -2.3738972348224214 -0.1637584454383051
P 6.931225455479185 3.8352666853679245 1.7755278534694277 -0.25700335823708 0.4485909100725113 -0.46578156291918493
Ni 5.22496253752845 2.85692073306598 0.6697606940924068 0.6371129356087414 -0.1494685111781942 0.021023396329202502
Ni 1.3740253797849606 1.1258673449599048 7.007468817870437 0.7733988866583906 0.5050587632522527 -1.0019702148070229
Ni 6.750092166241997 0.9898635685456482 9.12447001678103 0.3107566406991358 -0.3880118629378737 1.5795577413566217
Ni 2.5951098444217977 1.467306309457059 9.08841164460691 0.647337184439911 0.3128240647511258 1.367956979624057
Ni 6.601982678489111 1.6524748358071244 2.38740551403417 -0.5711643966320744 1.0431358904120551 1.136628657555578
Ni 4.209892308452591 6.641077430876418 10.307956204856724 0.19435483016792335 1.263702603088656 0.43584595170201706
Ni 8.0974542191847 7.000892105185796 0.1625874842282782 -0.26045634978268695 -0.11045330625726138 0.14029172977493257
Ni 8.014623286968593 3.8987357175357005 8.098206980906205 -1.5476158983427022 0.19955925718699824 -0.3772687654887567
Ni 3.012014981023217 8.062801846668295 12.544905279328413 1.0796792367537276 0.9256493314570962 -0.7849174288209514
Ni 0.26100746026834515 4.7733597903264 9.992238710288262 0.23017029720463586 0.2331548337542565 0.8176979656860821
Ni 8.447126515010817 2.3844270385687913 6.1182482248236765 0.3991452538468739 0.3693112012045769 -1.550176459981027
Ni 3.8059343115563875 2.771294087244763 11.703620769849907 -0.86370939941919 -0.46899955563585033 -0.10994962714796548
Ni 0.863651123081066 3.0730773471102193 12.571826463250753 0.8633918681787711 2.0425540282211854 0.37864687678320597
Ni 2.90404976921166 8.481543649489252 7.7652610143414655 1.0448436171317812 -0.790147309761323 0.24934429902992544
Ni 6.127688508239764 8.125158021964133 3.6025266944084575 -0.9830533232978618 0.03865653602993343 0.3714457310490764
Ni 3.444880113739242 8.26203036959551 3.79420679060188 -0.3960038800044148 1.876435567191136 -0.588234978961116
Ni 3.2682706329245605 4.497561286039826 9.32098334989306 -0.17046516803451933 -0.38658078691830194 0.0956272969880224
Ni 7.451997233461371 6.0130732980471215 11.164019091689877 -0.47538154790279413 -0.2919634192520327 -0.03745197419887099
Ni 0.7099773509684959 8.786575003802069 0.19693495205700648 -0.740628377095589 0.7707907596115823 0.19154127197852816
Ni 4.83005215747726 0.28581421613400565 1.7359472440575432 -1.5593532413842885 -0.32276703489645053 -0.8013645186333811
Ni 5.8510033375023776 5.4878681878108795 0.5566383406791914 -0.08011403184377172 0.2579518381932783 -0.9088469151877767
Ni 7.885160937533281 8.984283527099324 11.104588010920033 -0.19902189662628952 0.8790745690213506 0.8114735820429251
Ni -0.05754012884923824 4.756666937247348 5.945094933643791 0.19801813795212347 0.5664158262034954 -1.4335257666638022
Ni 7.996030434352088 8.813744997187646 2.2093257954821737 1.0344270497841477 -0.10856020299960659 1.1266064974328855
P 8.563533153338772 1.5540277169165224 3.6023547896884023 -0.07070790803852338 -0.6214433473922846 0.36321742960201314
P 1.7401733858858492 3.3071572901244326 1.660281119621003 0.3470991838839119 -0.7029203210218539 -0.482155376291518
P 4.631502205813419 1.0605254561052109 8.34780811061804 -0.6067736611952518 -0.036652361115711074 -1.4086128054722065
P 8.48929745712543 1.5518743841074092 12.560888799246815 -0.4172900430767007 -0.6676825808654824 -0.335304505241829
P 6.150569931240805 7.585974343702344 1.337929007620091 0.6238447577449255 -0.9417642347410878 0.4357235671915399
P 1.6354200780542723 3.2759339643922876 5.948802647026876 0.26710599388872064 -0.5594476224157784 0.3803921416090868
P 6.7967507263117355 4.01751283147705 6.129477222090024 -0.18531508856315826 1.046802540630365 1.322667254548322
P 2.502353676526709 8.471826508997706 10.126248391949877 -0.059333604763310725 0.20365399608166215 1.2142134952195927
