# total energy = -381176.92656206776 ev
CRYSTAL
PRIMVEC
9.20177451974883 0.00000000000000 0.00000000000000
0.00000000000000 9.20177451974883 0.00000000000000
0.00000000000000 0.00000000000000 13.46772713927592
PRIMCOORD
 96 1
Ni 8.395901613865522 8.484358273409121 10.615047593146905 0.17541968382631723 -0.41144515426014944 0.8407535619539649
Ni 1.1817655125210935 1.649565331295406 1.4070810863534569 0.46608032510652636 -0.025240776844659755 -2.0653219180453206
Ni 7.967982286349085 7.060070788670084 3.8238922268735744 -0.6985499598683002 -1.5318167265269167 -1.11748576607854
Ni 4.360150488382362 5.115975054933037 1.0097788235722136 -1.0640795825432576 0.3868857197532305 -0.450009901907225
Ni 6.810463449985007 9.354892162530325 12.783823058089201 -1.4034109495562928 -0.6963349544948524 0.2359377958160324
Ni 7.279947193517093 7.577090899954404 1.1764772526397136 1.185708188691048 0.3953261372110998 -0.6079733379303078
Ni 3.9864296134521933 2.4449115198932834 2.860868540387284 -0.9906010537381328 -1.1813663667825849 1.3869692590605016
Ni 3.6457431094532136 9.212632726709662 7.209422952377589 -0.7511673289536999 -0.3640710358515601 -0.5727800778586265
Ni 3.1041634616743683 1.9023288786794803 11.535444978824941 -0.6517574249947937 0.5774641135978571 0.2446638628351206
Ni 5.669489404410419 0.6405024057896117 10.74730009905457 0.557243415675608 -0.12766041416416726 -0.3646179094939656
Ni 6.2150534206052 3.4278818932507544 8.850573260771442 0.5853748838045015 0.11256366773204485 -0.4958891809378427
Ni 3.415155838933809 1.629809121159121 5.251471186398708 -1.9449076439206054 0.43759687295485283 0.45939622821813136
Ni 1.726713009815486 8.84429488993959 11.612709519882856 0.1542160531655086 0.4834342430039416 0.16995454694668793
Ni 5.257857217993762 2.354126811367626 12.685710056246107 0.6529969538288496 0.14021228268724883 -0.5001916649679385
Ni 1.559976853471992 4.8016240299326824 8.316833524979609 -0.5600559454237386 -0.6192270564672562 -1.1119406678905945
Ni 7.1010278875599795 6.806175423006194 11.915976087160727 0.5350324267962075 0.5938944912397384 1.188475209913224
Ni 2.084303173814631 7.990296589833245 8.941452747575816 -1.1374177291157768 0.5463846185842332 0.08274761281187684
Ni 0.7663587581501251 6.000679676988512 5.470119154332258 -0.0036365683113227694 1.258832419480548 0.14371078275881058
Ni 7.771533599716787 1.1956417886671196 9.480175244331225 0.3998615631876081 0.7674154153814461 0.2320312616727746
Ni 8.113950037346704 0.1799425432962632 6.476562334600137 -0.39882746549613896 1.4284450097067853 -0.6241378635053122
Ni 8.538924796980695 4.070386605200429 9.555419995857275 0.015585256032766706 0.12020087256232848 -0.32616860437883183
Ni 1.4224011209393443 5.394236719824166 0.005564313120359309 -0.25112813040322557 -0.5126265482971817 0.4022732579528943
Ni 5.5034893900375375 0.6947726322180143 5.5768376558118 -0.47742171826127444 1.592543097872696 3.792109768167921
Ni -0.05724331981220973 6.199631246320889 2.082958794540802 1.9292964197459095 -0.8729198622738643 -0.6644149658578041
P 7.850282387022947 0.5139273948302889 1.1941695047258967 0.37814268345327784 1.0821850338947168 0.1494471710219555
Ni 6.0043787903908346 0.4245330744516241 8.127342300147053 -0.7530614606526193 -0.1991175416638893 -0.2720119158307702
P 0.9582912137927222 7.564282029665766 3.558200186130636 0.8749597755220286 -0.396050416971634 0.8544495713838187
Ni 8.749268163308285 2.535456982278492 7.722125591004273 -0.3040131513277151 -0.407875177520704 -0.46660071638637063
P 7.004059586481185 3.572294544335456 3.4224730901216867 -0.10165833367345073 -1.4666670293024613 -0.5171540038538901
P 9.031762644530428 2.420342781624126 11.134941418649 0.36664830966043305 -0.4135809696562297 0.18525698163171322
P 1.8984733351084029 2.727810879199264 3.9452498316161884 -0.15501875157246206 -0.2585467914647999 -0.23328724556706273
Ni 4.871327472774954 6.003513823575366 11.919867517652872 -1.0444348117291369 -0.6630990752598579 -1.3283923299575575
Ni 2.9262011402790504 5.623995830626632 9.98949807113534 0.7317120484425657 -0.07920334710404424 0.5043797349073572
Ni 6.860668332380708 5.363364765931648 2.3059849668445636 -0.8846219812021409 0.7244502246738298 -0.6190871884552822
Ni 3.6915311400252455 0.8222411354941669 9.579958368270145 -0.5554109904525596 -1.2362987571544062 -1.17218315762142
Ni 1.141480143179382 1.253520951106445 9.535730038498345 -0.20710904450979814 -0.1740963370292034 0.4905279166259294
Ni 4.614754390692966 4.662207942473506 3.1350851051499027 0.0633326986203748 1.1720188641294138 1.0562634289329484
Ni 7.859649793598979 2.5169338099429814 5.266972495944858 -0.6203354590400865 0.22329876689578318 0.48360445003321884
Ni 8.820848768175615 4.6326426405788235 12.076982298440475 -0.3446136984578968 -0.43245826617670685 -1.8754708892850216
Ni 6.387825941107707 5.75011535374164 10.001228493437033 0.060975511242107885 -0.16995660382921698 -0.9239310632144088
Ni 6.451170957678823 5.808426999588699 7.4955042853515375 -0.3270672049337013 -0.6957857668596017 0.33133549329175194
Ni 9.068036040132307 4.331220108937332 3.882193750768538 -0.23536084026663984 0.3450790681300896 0.16458916886971653
Ni 8.949351550920477 2.1137212473151914 2.934254533437539 -1.1276606497290127 -0.66791783680474 2.1530227610974144
Ni 8.658796315120137 9.217969755996595 3.9671077270785693 -0.017101949787609257 0.8987162545116779 0.4849277968303326
Ni 1.5317734142229409 3.7469166215391247 10.730195840367413 -0.18298566909903324 0.21950201885751228 -0.528700828151225
Ni 1.8751744417385503 0.5043179815814197 3.2972231347094647 0.6444210392343805 -0.02110747140257655 0.9776732899328712
Ni 2.207257286456009 4.858398979416091 3.9759690360498046 0.7168274180212493 -0.02885651922037611 1.5299323650200103
Ni 5.6314492680790735 7.9725923754400405 2.7823378351399177 1.3718969381084114 -1.6115216958577279 0.1911160115156515
Ni 3.41407923130179 2.342817830344108 0.6955244172055014 -0.3514597748454528 -0.12107479052684954 -0.8607904260001822
Ni 2.9570270852984044 7.066199170575424 13.345965911639615 -0.8974453582190545 0.2346267903140927 -1.8856393451775912
Ni 5.850653943377898 2.906472535466663 1.5324929929992137 0.7247574715016035 0.9235885922733256 0.41455438931309246
Ni 0.06894337625761549 6.3561810381460475 9.610112583741316 0.5329395488229208 0.1914651673249541 1.4885869693040041
Ni 5.0792507723741585 3.269491746499068 4.944204607688024 0.8826149780744412 -1.0100679042134928 1.0396075655438226
Ni 8.189082527222235 7.9489806217326775 8.3117964735457 -0.4244204834738949 -0.1018352255709472 -0.0015889417536746827
Ni 2.718471077947131 6.772082847992252 6.995662967128898 0.723287057603664 -0.9370442035575991 0.14898977176956277
Ni 0.16953809671913359 7.420991995086247 12.964007608058303 -0.1298862181708924 -0.4357834738951979 -0.6966529999559034
P 6.642209000827127 8.482573129130389 4.794847843093203 0.8907471202632725 -1.348276470475994 -1.3244243464487448
Ni 4.33065880068474 2.27417259158459 7.63644418668988 1.7680036622392776 -0.03636079801722125 -1.8110997220978033
P 2.4037703855107355 0.2105734106934057 0.35475233670243805 -1.2991586299034206 0.7137505788681385 -1.3359441741628864
Ni 1.723740836609142 8.322057372438561 5.602439753372203 -0.46482048455749625 0.8519514875523134 -0.6781243450240967
P 6.334253209196459 8.003271092065273 9.671632888402778 0.37067260032847776 -0.009743966760641284 0.41028018741777084
P 5.058059085395182 4.013022742140532 10.611882182673277 -1.7231818779388968 0.7649150175570956 1.2837178698683183
P 6.553881166128385 2.5029011036282007 7.042274556530553 -0.016804730262164606 -1.4313035622015027 -1.4101945481370295
Ni 2.046244633934019 2.2823345656837444 7.556620632106627 -0.42981928589196294 -0.2620231800491745 -0.2718252537412609
Ni 6.849893054285882 4.95580896567725 5.04313840782835 0.5140846208999469 0.9850623833080905 0.42003855235611537
Ni 6.320220502881678 1.4541288398726981 3.6683932777114645 0.24317905075947796 0.059719270237503605 -2.2927231371452512
Ni 3.5751839015701057 8.327514024795718 1.6455542777330365 -0.531686136031794 -0.25505626181303814 1.929487966931425
Ni 7.898545694971161 7.04808087632375 6.019427372625059 -0.18233183756511825 -0.336862079536936 1.7008328208197354
Ni 3.3897773444969794 6.874839065314978 4.511877630122552 0.007957050063547588 -0.27420352416545035 -0.40478805395494805
Ni 6.913606141842303 3.0132591300784872 11.006216873135493 0.29573574181027135 -0.3649153861297264 1.4839692680263348
Ni 2.575337473536367 6.2777451111773965 2.15790724892368 -0.6696605305274597 0.029919156156935564 0.32118554934194365
Ni 8.980435145629546 0.6679982285694127 12.511047491234054 1.528134135469007 0.4462946578391669 0.3542828461165447
Ni 5.183865748172678 7.209489205154944 0.3010424983491633 1.1176986534202944 0.9798890666372673 0.7185485144774141
Ni 4.216630409437027 0.2336569825368543 12.650546394664923 0.07093879310240686 -1.488229071743953 -0.0026502931386535
Ni 1.3668132003835474 3.0648074715705538 12.957286631866621 -0.9107736998968442 -0.7542498245337655 0.5678762127991059
Ni 3.372247963821794 3.0894498240367723 9.435018455498993 -0.8038060381953382 0.5982345133759891 1.982818560033766
Ni 4.424728542754251 7.418029023654535 8.628624616277163 1.0619375964995905 -0.18107456811924943 0.2788898738975261
Ni 6.1610758106101144 4.563325672271123 13.270101880680787 1.7459541386384059 0.03919106837716476 -0.7553672259676604
Ni 0.8166510574048361 1.627591493472654 5.533512020131462 0.4873405200368833 -1.4277058175479154 -0.5167685954900133
Ni 5.163870291895944 0.6507356993585742 1.3270670550353085 1.5765729476966848 0.7088983929821597 0.25368714937965336
Ni 4.139887609000783 -0.10017511953826959 3.8935469003102936 -0.5860040327480681 0.4689093099148892 0.19347782687960874
Ni 0.8505614372810527 3.7974067589484375 6.095129452350351 -0.3845143913075765 0.715930874348909 0.06681371519043977
Ni 5.203953222195738 7.330446532701037 6.228083133485022 -0.01885338526107721 1.1610816483916198 -0.1646074237021617
Ni 7.898490484323364 2.5940814884630616 13.414705008500384 -1.271244934212288 -1.8053445647815811 -1.9582987205155307
Ni 1.7211091290642064 3.9339150856236986 1.9945435429830503 0.25465671238177434 -0.655479096820755 -1.1197920456142132
Ni 3.661947434581298 7.783707547555774 10.833614585463689 0.8530089822825503 0.24092882127272053 0.3831740752295982
Ni 4.308188067031827 4.902530690554246 8.420359930839087 0.9448068782221534 0.6479676189350583 -1.799738017228081
Ni 3.2084379718114806 4.328119110886131 6.284768825754494 -0.7221899678847433 -0.773151546534275 0.8245029044230575
P 4.771129348800103 5.375787161685715 5.4486652167762495 0.05366175118951404 0.7005798458141353 -0.3928200829597945
Ni 8.573422250078474 3.792741459209688 1.5179477478373946 0.5815290276958501 2.1578847171754063 0.24578357826186062
P 8.553997303828965 5.526042939662146 7.7392160470294815 1.1068375423360743 -0.010588574149123701 -0.6372003531162251
Ni 0.5984917037042794 8.525158942130261 1.6209754175117836 -0.18443268595820494 0.08364287093263659 -0.6962326245890332
P 1.6541938239356253 6.611456670004833 11.239262857836739 -0.9445880773431281 0.8999840654805081 1.735957175326694
P 8.096917552501681 5.592562568481523 0.2524203211902769 -0.8231132231643825 1.3553259211236077 0.8042657514405761
P 0.9184328067939651 0.19242199005305383 7.3489890287632775 0.5961256945631024 0.26947115168678754 1.3112279023631288
Ni 3.4079232440725513 4.221277305626511 12.560352440070682 0.16469715520249056 -0.45044030457642426 -1.243086212389885
