# total energy = -340895.98429802834 ev
CRYSTAL
PRIMVEC
9.03988557161548 0.00000000000000 0.00000000000000

0.00000000000000 9.03988557161548 0.00000000000000

0.00000000000000 0.00000000000000 13.23078629970299

PRIMCOORD
 96 1
Ni 6.396351829934887 1.9900675281560212 11.495594887695407 0.752451337872446 -0.17720685763372707 0.19038093312183985
Ni 4.562846079896427 0.2254231064165684 5.877525677645427 0.3018379980532672 0.484650631909546 -0.36395096533392807
Ni 2.5830026623155518 1.5352618454449762 4.854375157491486 0.9192740240583717 -0.4619925281903979 -0.21702296118940043
Ni 3.2493959065844016 4.192192691919279 4.928639625393292 -0.6268560337674237 1.411039669746144 -0.7491814088719226
Ni 5.090305322901417 4.557295590158902 2.7319718405462288 -0.9216792910657545 0.29279311424217963 -0.1728688923800055
Ni 7.155991493817031 6.03853507946146 2.619788668649277 0.39162991930643526 0.33586937660636346 -0.18207061348393158
Ni 5.175578563445498 4.652874300248224 11.561616787938135 0.2832599779407638 -0.5249501028595411 -0.2740538859614635
Ni 5.7126381649215805 7.869934536163043 12.413878215340963 -1.1341128331122596 0.5786604478988034 0.6100975833621621
Ni 1.868580506034542 6.530639330017823 0.3935640739556188 -0.28555494462252756 0.15975652336776358 0.15971307172433782
Ni 2.730578794180508 1.6561703148902311 0.3711514856718341 0.6235701639273002 -0.16862014440598055 -0.401422994137457
Ni 0.688764249079031 8.975901255964226 4.5753120820919415 -0.6130718354991377 0.4700717056541066 0.32883560968803366
Ni 8.655789868186588 2.365846531249091 1.2880263991462053 -0.5734601346447865 -0.3958876661415246 1.3451119567050835
Ni 6.876604790514223 0.6791141712373255 4.908926346939515 -1.1337243394245895 0.3628577322697492 -1.94499300454556
Ni 0.8713021383704935 7.425786878534312 2.632000650060387 0.2737157858957544 -0.132772538579752 -0.7558554784579886
Ni 7.637962032653906 3.930614563181492 3.818736035428115 0.29892982326753675 -0.6332699077135675 -0.7394405274350749
Ni 7.539472479412332 3.8716745092911697 12.755152879217164 0.34686315661370587 0.017977153303710972 -0.7107760696208468
Ni 7.945263902584523 8.923497039338123 6.745690071735962 0.9136937017571167 -0.347811122349272 1.171561721987337
Ni 6.762295437532148 0.8145009214050868 0.6285215476786478 0.45296255677764574 -0.48470076842119103 -0.7459883558559217
Ni 1.9687966774192223 6.633449948559944 9.08768486491916 0.7668266327575116 -0.31019459754807865 -0.37108089151048995
Ni 0.022608753800566945 4.804328543020994 1.3617123143717877 -0.10490460852489031 0.6639035734390244 0.9559392406898891
Ni 6.4092969460654 2.105976940883278 6.863205872128297 -0.16515069780014138 -1.095405903460365 1.0597164204785556
Ni 3.241024972550285 4.208419286510249 0.3380718324201689 0.5225749177591452 0.5691545652908973 -0.23813017548166085
Ni 5.998678224000964 5.600688222072232 4.766285088605039 -0.6268516628920494 0.5963185273001989 0.49068501102908396
Ni 5.419890510752224 2.715717222310003 9.356904408925887 -0.06699086419825237 0.7596609682470079 -0.46341614801080194
P 0.18862082828882426 5.620991805053468 12.450487039917594 0.2677711382765453 -0.14180585242661384 -0.441592110157175
P 4.015345410591613 6.253132922912743 12.61212832973469 0.10578186892352104 -0.29896427604989806 0.980188600155557
P 2.408107996270142 8.514397018048776 1.250137526773428 0.07242411939868172 -0.30734710079695454 0.9909733494758869
P 6.458663761141327 7.690809203672744 5.719099875124157 -0.8789971788161958 -0.6286048981377302 0.5570716659844342
P 4.841609031095181 1.0932385609242556 12.732858713434293 -0.8277162691540325 0.1744686327669576 -0.7078930916460969
P 4.12262173260334 6.064985784627577 8.206236358989388 -1.1452583082061178 0.7706390645250664 -0.6993048357564537
P 4.522817466610177 1.0159204196782543 3.7428308282960794 0.8095686517107283 0.3552040723792334 0.3044723503523208
P 0.3244324530781875 5.539452037248145 3.5170072549489375 -0.10157914369608312 -0.7164042144409016 0.08502818131593742
Ni 1.463765390503479 1.0857716154467392 2.4192225355735397 -0.2998255956089288 -0.39126970775353903 0.5539470043125233
Ni 1.6935954411334728 6.595138913531235 5.038005968947878 1.0221004098979944 -0.3104095417723622 -2.17226875381122
Ni 6.042657267279557 5.562901500406349 9.091481616856882 0.6352182896891898 -0.03685830647893006 0.750909704416939
Ni 8.63092114299452 2.2436453581678975 10.196636554934239 0.42309225158077457 0.3553747936291428 0.9008150460222356
Ni 2.1907710674923613 5.160165558555468 6.842645556396986 0.4138681618793453 0.17931721910851053 1.8894201523762622
Ni 0.7005838994565765 9.003301149114774 9.105149019844117 -0.31636113137010674 0.006553484847801617 -0.028243054006093296
Ni 1.5213675413300334 1.2175460273423269 11.385991699138993 0.547943735541237 0.0958725802296091 -0.2499029997468728
Ni 4.103375816233325 6.876116636693659 1.6807994831147992 0.053575362123294834 -0.4780141004296348 0.07617818712447526
Ni 5.730609457426789 8.074534266178329 7.872133036332694 -0.12614243485774404 -1.3758988601789528 -0.040300499391259625
Ni 5.122152839750436 3.0510969768086174 4.801584937751714 1.3260433701094065 -1.3526491456223928 -0.01886084146024494
Ni 0.8036874102910372 7.43828904027209 6.973246591146107 -0.8675606548444801 0.485524292763751 1.0711853403501035
Ni 5.009579144797033 4.53377380791617 6.965453305799657 0.7440111775248929 0.3221934217811677 -0.2850396955490059
Ni 8.069047055639766 7.184593691747856 9.165759644587036 0.17288586166086997 0.15313618983776853 -0.16501442933259322
Ni 4.633754942276133 0.36551240505576305 10.344040024984883 -0.1859375526385056 -0.5336743701064164 0.6538577591672481
Ni 8.256154607084842 7.0817921130913 4.612833935110738 -0.2622052141529936 -0.015491410767379771 0.8681098424797307
Ni 7.2667662515427995 5.962880277159602 6.948782852827397 0.387770436351029 -0.21225536459742797 0.05390754865173297
Ni 2.4381384961203953 5.1479526731558005 2.406587487517941 -0.5142224320293918 0.7889190937811768 1.6229826453094758
Ni 2.3817115304174212 5.312397231486914 11.580378166441813 -1.1046706165917426 -0.9286750056572974 -1.3173864657653571
Ni 1.081577108544115 3.10235312796784 3.73346369887259 -0.6965990067895165 1.3615202228597778 0.5599513015250743
Ni 3.448806742284804 2.7127159803020913 2.9150331392119626 0.9355825314104081 0.10388259501827915 -0.7926798463751897
Ni 1.1855719520953834 3.0993428460743613 8.18235478930113 -0.4352545979749214 1.3557938618989618 1.102431699958895
Ni 3.655621244263761 2.7463805141498767 7.043210785484167 -0.4862591140472465 -0.7309458597005024 -0.2794179784868543
Ni 4.058004630577569 6.875746001385453 6.101946260752726 0.27106934941184285 -0.3708057834722324 -0.04443097661986541
Ni 0.8622215733194462 7.383498293856562 11.100047462846609 -0.22117169325045136 0.012235108613611186 0.7931794117194274
P 0.23153135709351488 5.561653996198242 7.947191206187195 -0.1320701131960887 -0.2560481934126623 -0.19871387846756744
P 8.524539769653828 1.4713860140356174 8.106502917493932 -0.10298913666973232 0.8889614891177593 -0.5422749672912338
P 1.8396347924522087 3.2317952493873987 10.369019940769412 0.18862924053805577 0.2849144828250513 0.41827477558747317
P 3.7943111686173383 6.171005562545629 3.963599297634714 0.47086231987620203 -0.34043077072480077 -0.6348477937236486
P 7.073050543748977 3.930135449246494 10.46958776370261 -0.5964833350128372 0.6447874214348638 -0.12779822529361215
P 6.214659169943846 7.820540601430416 10.278733179690427 0.8768505647868382 -0.9767993719683501 -0.6174362831154205
P 2.3833748693615657 8.544924711605159 5.894950057073893 0.27831780344414003 -0.11962211724072301 -0.4257811112668473
P 6.851437749098478 3.9339231612986483 1.653001834999348 0.9389966992982796 0.6873936861411646 0.021709623762949708
Ni 5.285874207236269 3.11071502211639 0.47737646899223474 -0.3802075364021065 -0.9536342467057964 -0.4214999673929902
Ni 1.3333017620149616 1.1791897928857873 6.888463312399702 -0.1471771440408562 -1.2751419552738492 0.5590231332838502
Ni 6.859944281416084 0.6406711538793524 9.281700696913774 0.36370979585739943 0.24904502262195174 -0.06436113988488916
Ni 3.016094539897064 1.6878189542567985 9.093546326720155 -0.844712546601713 0.2996792998390516 1.2169540340792073
Ni 6.201388617932957 2.0695010026244662 2.6866033668561426 0.5772196016872188 -0.44654225507359874 0.33938587440005424
Ni 4.190710150686455 6.608147308860709 10.380306237898564 0.1807639788573661 1.7378153115813555 0.22312264632923506
Ni 8.048047401469947 7.064381293491183 0.44446947755488014 0.6458009503010427 0.6785928000200829 0.10101812898629055
Ni 7.7575687585776585 3.6029006316428465 8.372296344871145 -0.3318646263223446 0.9897014247419987 -0.8395490001229026
Ni 3.054053019388699 8.319985239066371 12.334942838567203 0.6464966908164865 0.4116117617450008 -0.40652252014755147
Ni 0.2178612421406091 5.0591719570121105 10.064778072102886 -0.2312329341411953 -0.9267014268706943 0.664404681445159
Ni 8.488633344185674 2.176225891616667 5.576392625625049 1.1713002407958344 1.0996456525733256 0.9629493534591352
Ni 3.8271711526497496 2.7020850748764746 11.406300706051569 -0.6506240827212989 -0.5285866711708639 0.3920860330072473
Ni 0.9671683168208144 3.417935533076913 12.845545406957273 0.669867247221627 0.03489166967086249 -1.9766021468104085
Ni 3.2444510891797993 8.705039164750158 7.918295211975475 -0.45502663839552604 -1.5142465788536374 0.20892450045198213
Ni 5.576497488297615 8.048824831628623 3.74449778319445 -0.6354969972718733 -0.7868984638067222 -0.7331459526756148
Ni 3.0653528763462 8.343723978562688 3.541021710955017 -0.06508516253510725 -0.2516503214552827 0.2736692489285351
Ni 3.5840524702377357 4.385293687494613 9.496000224141378 -0.33511295805631314 -0.6148091299052185 -0.5039742719388224
Ni 7.229558082553142 6.1388416497018 11.477349686657549 0.5021122790294191 -0.5650639401612914 -0.6439590119962973
Ni 0.589435794456932 -0.004331913163227381 0.26660701707815293 -0.4783624849079891 -0.7203675699640238 0.05662417625194765
Ni 4.467285449578236 0.21958062837526238 1.509222455072112 0.3541249803824417 0.5667701242191207 0.5113841912496484
Ni 5.94365244056072 5.700362000322952 0.4667889550173351 -0.33384900374222504 -0.13216447268210788 0.009885891655144266
Ni 7.892082255799743 -0.32813880616024765 11.609790338119351 0.14081212105477686 0.270057877428193 -0.36768652111696026
Ni 9.12178692922834 4.690769500540898 5.63267676113608 -0.31132716849062514 0.16050574282896227 0.487020160582987
Ni 7.889460688985603 8.69985931032084 2.7253564522890295 -0.14440780882583518 0.4401746609843581 -0.6654500919905378
P 8.492656093262545 1.605718713546383 3.527949132438024 -0.634692756203023 -0.5655275100612712 -0.7467100645132947
P 1.7880622452981767 3.2399040267401014 1.6924030802273171 -0.4846485750270169 -0.7290949225346928 -1.6974893582687993
P 4.883771057375006 1.076740769766305 7.971019440550615 -0.06517052316006196 0.34620058332904247 0.8487183253269964
P 8.647328535296811 1.5671816813785233 12.440234001708635 -1.2812028167559484 0.7160054363405862 -0.2711973903492749
P 6.250529435869735 7.794930605621937 1.5152430188590682 -0.02850350675633156 -0.23016566921894552 0.15016939389996073
P 1.6862640939394464 3.157098674955538 6.045821227227656 -0.26267109804581856 0.15744844405987724 -0.6064468739834523
P 6.911471629142286 3.859687621030653 5.91200470518271 0.5101222938180893 1.8022756960482704 -0.11908681356254329
P 2.5476747895236227 8.599588899622763 10.097007976111348 0.10275516628205529 -0.19344594520040878 0.6111458221210184
