# total energy = -340892.3889837308 ev
CRYSTAL
PRIMVEC
9.05635112275808 0.00000000000000 0.00000000000000

0.00000000000000 9.05635112275808 0.00000000000000

0.00000000000000 0.00000000000000 13.25488529816084

PRIMCOORD
 96 1
Ni 6.406507918911186 2.049579000940714 11.232189937693322 1.0226022892350775 -0.3438716780855497 2.333763342916013
Ni 4.715605695952643 0.45150075231889736 5.950952638287716 0.0498133239777013 -1.0613539560819785 1.3627872624976594
Ni 2.9709268612617885 1.5388642038002383 4.829072716564651 -0.629776035627696 -0.10733172990914419 -0.4809495289088749
Ni 3.1150405733696105 4.052227991440737 4.509206024792928 -0.023750565452378452 -0.7795674773629477 0.6130944612069571
Ni 5.136064899875841 4.5601443761485285 2.7190543465235804 -0.5931560704118172 -1.1506607101686117 -0.39144120033439683
Ni 7.039981552702295 6.182417571874427 2.744768949311172 1.1128115005313222 -0.7092850868976172 -1.0197259961285472
Ni 5.249033821187533 4.777822826737581 11.603392554625806 -0.6682646786211975 -1.0702057500456537 -0.7903447704841099
Ni 5.43566710084052 7.761790833316737 12.646817308373626 0.6249881273207495 0.14005518828409427 0.020926722850338152
Ni 1.8194842932474178 6.448013175153889 0.6858954154265592 0.5363367474299279 0.35712442933039784 -2.3711189007463354
Ni 2.690777702062181 1.4506462895387984 0.4609229798106952 -0.5341546521769446 0.9041824198325719 -0.11596163767000028
Ni 0.7192907094250255 9.193282940670652 4.755839440526903 -0.8182589803958746 -0.6093645618508796 0.21953544319860901
Ni 8.62529578034474 2.011234411167289 1.3946128351585112 0.20813671444336412 2.008514422137973 0.28002218772975646
Ni 6.987382266588915 0.672217608639879 4.964895339409938 -0.4147415656232341 -0.0963340932470599 -0.8334403161220033
Ni 0.5847024672094305 7.270193992957484 2.5088319896427134 0.07186310468888914 1.1634234091509188 -0.032179412946021994
Ni 7.267151059050098 3.8044100050071017 3.915572184311284 0.7894448843776597 0.10629814643830726 -1.0233548511303858
Ni 7.680202167924959 4.040943778200848 12.530743869968326 -0.20697354737319837 -1.904663194578262 1.1728238765292123
Ni 7.864254387567217 8.529307516998369 7.030590116803608 0.5351139307664203 0.7796374113689347 -0.24822792603729507
Ni 6.956500109969316 0.5454667325059851 0.24395907530882258 -0.4401777463081516 0.6439405000535361 -0.39139543469812593
Ni 1.8023768463692884 6.640487801146948 9.177562926752676 1.951503809080884 -0.2167306267599622 0.1229342123330915
Ni 0.07087590789461601 4.746958782819813 1.505781353908334 -1.026908115699283 0.0829306753569604 -0.4691643633484888
Ni 6.422664448943257 2.2356960685915563 6.95527569132563 -0.05956011895182001 -0.8638988897221768 0.7633337891129047
Ni 3.236495295488507 4.265894478574517 0.6016921815256673 0.11667306191472811 0.5314071713387944 -0.6465645679399445
Ni 5.903626865312045 5.525207242335527 4.81609587133878 -0.1020617397594565 1.0661434070508218 0.16923052429646984
Ni 5.328113877375901 2.713654044473062 9.399661782223262 -0.563011942728269 0.4804209100989146 -0.8868840377634403
P 0.3063745401787966 5.5507914336699455 12.480336220776337 -0.2271569642996088 0.12227832391664747 -0.021569755750975757
P 3.8450458515619808 6.100520990551545 12.685627394584074 0.03473714637086921 0.4480970011552283 0.6443238515348838
P 2.353890504381111 8.476355033199308 1.3989073567623274 -0.1866438346769108 0.3164508628704356 -0.3055758678291447
P 6.223768870151579 7.744130949032803 5.755536509517517 1.2593646378349344 0.05238237025645817 0.7962634499613899
P 4.572515351498197 1.1609789055276956 12.591027469832948 1.348378543271497 0.1273048305969614 -0.3486783554455737
P 3.979306253874459 6.233939152228943 8.244127554865567 0.2924406159987673 0.1893920868460093 -0.03846216063094021
P 4.917761561073663 0.9871060243137151 3.7892007692807224 -0.08185646845617515 0.6795572208158812 -1.0103931487633953
P 0.08356928933685336 5.619393291849845 3.676083323814026 -0.08066450503060302 -0.748428332755982 0.7711198608162269
Ni 1.6736498744657766 1.1479830419649026 2.8163186497138524 -0.6458014645216749 0.6854237068989874 -1.759242885327512
Ni 1.9067694033646294 6.388911429083655 5.095362941959282 0.4874042833952832 -0.7428809205751916 -2.331545766439404
Ni 6.100466652446055 5.794162751804394 9.36751898155632 -0.7846850010951711 -0.6268305798461269 -0.3936713752164962
Ni 8.665225231528261 2.2626477689141153 10.017392761219108 0.10490692251773545 0.5484412440029458 -0.4029574285041125
Ni 2.6590351921056725 4.889505746219367 6.991368872261627 -0.28009263595637574 0.825181932767953 -0.15733505841046452
Ni 0.5825552064075223 0.061332325300559404 8.94997682826279 -0.17682273482143096 -0.10433973716035579 -0.16678771918293211
Ni 1.369465159938188 1.3656343235012116 11.424889161189068 1.0190821918969613 -1.4710741572312214 -0.6089313309682028
Ni 4.107951718619737 6.920537340486493 1.8224801341300463 0.11163447104955614 -0.8390250092986326 -0.6948095189892615
Ni 5.647612881300482 7.814082203499013 8.186084496217276 -1.0274336491854499 1.1140695413081394 -0.6051752063598803
Ni 5.086698731039056 2.845025470843707 4.984367399511933 0.7790725400044002 0.2012613274797695 -0.29760647647042293
Ni 0.9443419352938487 7.403421971265671 6.841309665778213 -1.0604329869296059 0.7525696086178651 1.036677793491537
Ni 5.167626282814052 4.384913042297321 7.4997335463397015 0.05915208488012393 0.5844312889443095 -0.5899501618800097
Ni 8.31804096285702 7.132781980526643 9.450613718105235 -0.31493056957116733 -0.371888732123766 -1.2071794711909467
Ni 4.901161269846765 0.2957577800013317 10.344019113313667 -0.8176174901571338 0.4009239430138515 0.43894593078357946
Ni 8.184025082019243 7.393459985259349 4.585209638575526 -0.26497506358864686 -0.4839800882050826 1.1471750656128565
Ni 7.185562393658321 6.207150466222851 7.033730859300873 -0.16745517756360193 -0.4078576940192073 0.10383837204390504
Ni 2.264911856642825 5.168205889272601 2.587923819087271 -0.5277999136035103 0.35970401713211597 0.9997534096613621
Ni 2.237779029301969 5.216856606387112 11.418460057674626 0.9492065499517459 0.3325243713935305 0.4860572824490855
Ni 0.765152976092858 3.4625599270247003 3.685693017769761 0.5802853850967361 0.8101708040711014 0.20839485320075724
Ni 3.720022927182639 2.5055843822046526 2.4442004357038787 0.3210256267253116 0.2978139644955387 0.5895899503271136
Ni 1.255047222480121 3.382492728586615 8.230832831722585 -0.7699556653047965 -0.022105830760103865 -0.5800956376834332
Ni 3.580491728637725 2.594716987908491 7.147962235930095 0.4532397216984323 0.07065442909276863 -0.2961664015897867
Ni 4.2738640673795745 6.81346410362036 5.908153229499281 -1.2010903275740734 0.6515995592606907 0.9088042348752994
Ni 0.9226700875546406 7.41412657804701 11.235913909189504 -0.2296599332271206 -0.4597626104186146 1.6552013961338654
P 0.42011687385861674 5.617265049384858 8.037046846117057 -0.8799888533055037 -0.23332144123910784 -0.09465156333831441
P 8.504076523349628 1.7103009266181273 7.53237988011751 0.07196646303597283 -1.1275660331326773 2.1101845828859656
P 1.9936379213397584 3.1792048196012397 10.260102965736776 -1.1641700575089564 0.6239242048326092 0.6610720175275002
P 3.9034321459099437 5.885151909445775 3.85664160327334 -0.031000819256888544 2.0983873331407215 0.14014594822568768
P 7.046230434833534 3.938326265984816 10.174675313192196 -0.5191152413453188 0.2154317054428806 1.906656827969523
P 6.401554094960769 7.776588910711584 10.387204322651073 0.3174811039071629 -0.3944529905775271 0.3262115418016253
P 2.5337677462516295 8.471374040196148 5.661518908130215 0.4012738701541025 0.17349135645535282 0.7850434128758544
P 6.974549417342589 3.909173872389951 1.5362414845753012 0.09498992051433963 0.3210618792798858 0.1658613507139208
Ni 5.220823288087812 3.132383485371526 0.36669889362253455 0.6632296873004514 -1.538995503663543 -0.43613931457271987
Ni 1.5507099107968467 1.1634241202747018 6.890976505465368 -0.9164722929435184 -0.26999951338643174 -0.11066002295142877
Ni 7.149798863895625 0.5891835496420926 9.004612887696918 -0.9173436398048782 0.4368872484823379 0.2959568566821419
Ni 2.5868289062616667 1.4440894914764555 9.107550994735336 0.908423711607429 -0.11273464609227037 0.6614386568382996
Ni 6.339409414983149 1.9642500626211081 2.3004118465938994 -0.022310490571742222 -0.04348326799461543 0.9222248791565795
Ni 4.168420973678113 7.0278732115291564 10.669347690322128 -0.5777785595144823 -0.7988949740469661 -1.2828107846730166
Ni 8.242257418401653 7.25902751227949 0.0185437841332229 -0.10102687073703892 -0.04096153001402623 0.4239396871827344
Ni 7.8448375712058045 4.1259919696420955 8.27400445653362 0.03887070892326854 -0.5805756626436454 -1.6446896979692645
Ni 3.0930336406465533 8.555579991002315 12.379797141095258 -0.3999548942323628 -0.6854417046211162 -0.08074420922860287
Ni 0.26414024768744826 4.8088589413227325 10.220576522168964 -0.7479359665005958 -0.46710542393693105 -0.22523635023812824
Ni 8.448416190627032 2.4629199130448494 5.482817180608443 0.9692459851011243 0.5774841682025151 1.8382145760367243
Ni 3.540779629876159 3.0151127973752847 11.716510000092502 0.5781832511520687 -0.5885535386427992 -0.1365147792310036
Ni 0.9668469673172219 3.3477344537754656 12.616344498815378 0.5778443797554113 0.6561524687386958 0.7501214041876887
Ni 3.0337145421543625 8.377921555105932 7.869584050080601 0.9016015464792732 -0.1627320610563197 0.03807572382579894
Ni 5.5135607750590445 7.901032228632376 3.6948526110850284 -0.03009399117190301 0.21982649207646654 -0.35721236105851384
Ni 2.950912325739996 8.296541185785195 3.478744531744608 0.4617809264002241 -0.4602981712071105 0.9872488494364481
Ni 3.6763894284749474 4.407001482178613 9.438247270931022 -0.41373832116970033 0.4622624940223329 0.36994317836162094
Ni 7.269550992042531 5.904070626506872 11.43153018331492 0.7170428764661652 2.343372326760687 -0.4919877890009076
Ni 0.4713341608223933 9.284480394383074 0.29381066455464144 0.9335822131509276 -1.499610316997701 -0.022757348301173708
Ni 4.679452743100608 0.2361615571711468 1.5153249365023906 0.0464264097833394 0.0582308586174352 -0.1706950246571383
Ni 5.771295465744427 5.490530474682611 0.5752050720050397 0.5958814397627803 1.2288525852890062 -0.3357996997106926
Ni 8.200516697035164 -0.17034180999228501 11.170713616413217 -0.7252686068100671 0.9928834220144062 0.6691712495958669
Ni -0.02209659059711396 4.9954650519229755 6.029607045983086 0.40632608786602925 -0.8801827144838648 -1.1030166259280874
Ni 7.857625138697556 8.9498482280798 2.6953674607058207 0.08102471658349916 -0.23787486493774518 -0.29944378678947786
P 8.698869575176886 1.6540609874369816 3.5570276290524703 -1.285210652363761 -0.8035702680354484 -0.10501233774734817
P 1.6422877312476918 3.190742610666744 1.6011900107961554 0.7194106053673933 -0.8831410257812403 0.1343591663405815
P 4.706060302088403 1.0508808474560065 8.27177749984366 0.40408948522602667 -1.0561546712692262 -1.3128572104364358
P 8.465061763608505 1.7866731338829587 12.371910870718617 -0.7972864919092656 -0.30713755588930974 -0.8114139324495833
P 6.56674193564742 7.78487547179866 1.3590766198037771 -1.4426102454635739 -0.7139431544949189 0.08568484106332985
P 1.6954303984159627 3.089311480420555 5.867182297960553 0.04902193842465751 0.7630702510388729 0.09106281754579156
P 6.824974725633119 4.164409010222839 6.102548707521376 0.6770398537106662 -0.4949193608254057 0.01126477428054189
P 2.4014906847895015 8.568575854565108 10.17972513446231 0.4632207441705441 0.5674614938591904 0.32004937885497137
