# total energy = -381173.6587132372 ev
CRYSTAL
PRIMVEC
9.26098212549727 0.00000000000000 0.00000000000000
0.00000000000000 9.26098212549727 0.00000000000000
0.00000000000000 0.00000000000000 13.55438345508450
PRIMCOORD
 96 1
Ni 4.708505590551911 7.087392598356914 2.7485715239105493 -0.38123134968093053 0.7483036342526596 0.543496755513477
Ni 5.648198927731355 3.3948630549851067 12.12686253862943 -0.8130015886516773 0.14377197501404917 -0.533883657903745
Ni 3.6365654282165325 1.912022375468797 0.6026667485409759 -0.38510960168941416 -0.3624355571306661 0.7280389704663526
Ni 0.7389837753534962 5.363794165788863 5.32696787025437 -0.2979687449058481 0.0026973443265050317 -0.42710317251238056
Ni 1.695195000302416 9.127216527547834 8.432683614336035 -0.6339759326416566 -0.5440104619251018 -0.4488133104959625
Ni 0.7745820646543996 4.270748225125026 12.434222497036487 -1.5149510611198294 1.2676477037793328 1.6432737914583442
Ni 0.6819351991880146 7.28513308930436 6.7635693919750866 1.3301329667977477 0.3997335222501761 0.6539739730301382
Ni 6.250551728977318 3.6647188139640146 8.799519452331081 1.0185371180267684 0.11880887731080829 -0.008460986283159621
Ni 5.182575267003755 2.289740793592745 4.483613752126022 -0.1022723131083658 -0.15450350249894038 0.25296004140564177
Ni 7.800275221608206 7.060600576986038 5.822529507990483 -0.585165853117489 -0.78840950113461 -0.08473224734207342
Ni 5.916248795190276 7.699423125953573 7.418761652997639 -0.004495059656876129 0.5850272706570957 0.7681288965087029
Ni 2.6517340640195797 4.141992790241066 10.099452029917433 -1.0622427864448352 0.7547514467605324 -0.8333212740456358
Ni 4.819822596040311 5.386400223226233 9.81193650406949 -1.353141254767463 -0.6084510488976747 -0.17430331083368691
Ni 9.335718279757968 3.4847686697339735 3.229535075477665 0.5837679443286978 -1.8256963889650557 0.9937987347398239
Ni 5.824963294100495 0.31807769305362443 10.838410800619114 -0.16163831377150872 -0.2829807561374481 1.113749181854243
Ni 3.108883926076474 4.707264618943305 2.8892930738354057 0.2823518643041976 0.9003044249344044 0.485982206236776
Ni 4.784260424569807 0.7563471907936128 6.5740119048587164 -0.4863138785445818 -1.5487258435774294 0.14809682764164817
Ni 2.4103002592706138 6.639938984615024 9.072937911144546 -0.20654957246190234 -0.3472357094617761 0.12257142967703406
Ni 8.04111632349933 6.8782518383781674 11.92113445057435 0.3425627294661391 0.7340129286616004 0.24955127283440892
Ni 7.930225323190004 3.237315226585053 11.633917128351758 3.4684942692282457 -1.6510837744210662 2.0969279749863756
Ni 2.0050767241499483 4.4621727262435975 7.266261059871393 -1.0217142302031694 1.8598555513452677 -0.31603485837893963
Ni 7.799395428303596 4.785908879393179 4.603163770749129 -0.8725928179517487 0.45598488854373725 0.4081189181003939
Ni 8.56958500912246 3.891798096374626 9.303702138354145 1.2243277008354592 -0.43857312082519306 0.2326177303038639
Ni 8.614704514175662 7.129622676978137 1.0469531063862731 -1.4652989453103409 -0.16040418425409148 -0.36898775642688714
P 6.828807454659152 6.795495701852017 3.8547310153041336 -0.33243361145193717 -0.2993969927119424 -0.3894953894619356
Ni 3.300688127463349 2.440287319484544 6.225284065268952 0.37754721596112395 -0.06990778073473121 -0.13344668182864117
P 1.0912122661973886 2.946798216421069 10.915752040879951 -1.1663480389968817 -1.174716979786867 -1.6168760181911057
Ni 6.900626371261693 8.8546009958871 1.343915760129286 -0.5806887911827419 -0.0441304146603111 -0.41433841664754445
P 0.20698850772620797 5.9073119474118805 8.367622436411107 1.3429928534795517 -0.830056744361751 -0.6455674941339978
P 0.7177826089088546 2.2100685641238016 5.988380732989614 -1.3664857943951692 1.1204286507569476 -0.5126777132500913
P -0.16954728297670296 4.662589641033485 0.9511269457464965 0.21858233525672033 0.3085179811766042 0.8078138738031508
Ni 7.584688818050431 1.3976118607551002 2.755646914276035 0.27670623598264604 0.6649618395002097 -0.9242064283629824
Ni 5.115497973263948 7.205812777157259 5.25138806879918 0.042757959792816685 -0.9890172541907805 0.11783262944046803
Ni 6.024315195942699 7.980975505392702 12.77713443983368 0.899555719693838 -0.6566420067806046 -1.9377224390260754
Ni 2.3047250627175564 4.197317897627729 0.7932346088103219 -0.35989942097237376 0.021444285916705004 -1.650731276177654
Ni 3.800781163767306 4.524823270513899 5.547863594880904 1.9375054379192629 1.5954250474061815 0.5773970078053475
Ni 7.370500822797876 5.983603918394696 8.491387128012397 -0.3340932585425472 0.33355281265804493 0.49729608858769836
Ni 1.96580089883578 0.5354181266313243 6.033923464927243 -0.9777095424874451 -1.464113409642672 0.002190837003731711
Ni 4.483991600197895 4.1261842937045685 0.5722916531748027 2.163630875630564 0.5422330583097048 1.1417675214440401
Ni 7.809193547422292 0.3934463441157077 12.90022215363953 0.5501643973416396 0.4135542301833523 -0.85066130798598
Ni 6.038178886226904 2.877933553125583 6.5969587664393465 -0.2839418344991368 -0.23571873782669084 0.16337072308158315
Ni 0.6121009110610285 0.2841148932010781 1.0844128531000856 -0.8602067855825701 -0.07356080410628621 0.4255862216472218
Ni 6.965036502141212 4.968979974609042 10.856139098756088 -0.6599592440792956 2.1288289374600304 -0.7959988834460936
Ni 6.1497088943048395 6.582178238921918 0.9861112319306043 0.6088138315537321 -0.702246691993597 0.528124901043097
Ni 2.2973625819053036 1.233812869401247 10.316701705870027 0.7680260523822515 0.00746622647005811 1.0149882243332455
Ni 3.817182363161645 7.5355963516532585 11.025122387919627 -0.31734097878487283 -0.16053248230183967 1.6150063119722187
Ni 8.468121688645677 8.718427514297963 8.0524425046734 -0.40246480513841004 -0.8585507380363859 -0.1413116863990147
Ni 1.4209773187290795 6.222453909122758 0.7525464837177026 0.12506925639822333 1.319841869284385 0.5884506945163478
Ni 5.453421951073118 4.86324734135937 3.67685718327297 0.16890450841561877 -0.05063607698931279 0.14411830260987435
Ni 3.126461270204342 3.263162627776244 12.182991499267041 0.5723527605132208 -0.33723977459132887 0.2789281833346293
Ni 8.562287355185283 1.8423520067259327 7.989902166090728 -0.20525579335114327 0.86307382271772 -2.0590713091499184
Ni 2.315088101747633 5.795374456119179 11.928616398056388 1.288969862295877 1.2507007915123491 0.19792223580420754
Ni 0.7132910325642727 1.11266996184769 3.574074172839276 -0.4869967635442193 -0.5527115892435255 0.7458723991033477
Ni 6.441707661613429 0.9246942504831862 8.504738685983497 -1.1890773622735973 0.07416604179045291 1.787377438780199
Ni 3.7022535746332723 9.06828889810335 4.750893105869749 0.15665551584493667 -0.6952116395236866 -1.400572194555917
Ni 6.078204851095528 5.185640652096656 6.636524460494927 0.07258507045657822 0.4275757412734249 -0.5104143711372112
P 2.4596798161145528 7.157396362457313 2.716962865721493 -0.27856077269288154 -1.3144021863260524 0.36163285872371265
Ni 2.7101523394456053 9.24070986384237 2.3044074110296817 -0.04009866779309868 -0.7517000615287183 -0.992037529074343
P 5.466442891981327 2.8982243650245083 2.4653521676837413 -0.016712941879306702 1.162373627730166 -0.9880996274725176
Ni 1.6436391126523398 2.3296371047112165 7.992626747040368 -1.2043353168739324 0.23057755994538354 1.032006870378429
P 7.9720201356499985 8.346247163501973 10.120244787049092 -0.9576155999510475 -0.6755748391293654 0.5518857509081205
P 9.519085726402754 8.251155398746992 12.93317272814267 -0.37509721175873467 -0.3900898285128249 -0.351850068305336
P 6.776760734954926 2.2093739904622685 10.396836058348443 -1.0572013673661858 -0.9155646935275844 -1.6930876296566775
Ni 9.06689048979813 0.9571039836285441 10.092445170819886 -0.40985338429299745 1.3387937277965396 0.5575910288230139
Ni 3.800327375641771 6.596125278045506 0.47996892208379993 0.46969401059971366 -1.5812572405462315 0.1643055761910267
Ni 3.0377873660819272 1.765217286367124 3.5385620106724027 0.6399496337265882 1.197518551062415 0.19536295971746354
Ni 2.6913618066555918 6.575038021681356 5.067848367886335 1.588022584294523 -0.39694181843765186 -0.8227373278822024
Ni 8.598284792817013 4.286973465858444 6.854763209341543 -0.264601482299312 -0.5536297301824207 0.6593151827373935
Ni 1.1551778699335264 2.014800755411414 12.896725206778264 0.5513422196998247 -1.7804089778821663 -0.14505546971216307
Ni 5.193095742730446 0.8087504583107598 2.4090611398584385 -1.286996797729906 -0.5279348965194779 0.39910334486534493
Ni 2.062513335467673 3.52943438666164 4.63595135196636 -2.157222401001059 -0.37390627677442706 -0.2381486874244221
Ni 0.3883944783508223 5.723073968444641 10.52023494115466 -0.030572730580534443 -0.07220557562997242 -0.5308793238597825
Ni 4.574888140037217 2.5100688200132533 10.072818371341386 -0.08685829254614075 -1.398695289248178 0.9088392018782928
Ni 1.474570622452987 2.5048085821499084 1.7543300757471438 -0.3543610076526478 -1.8352284968252068 0.6264734536170243
Ni 6.323222655938006 9.14446973730032 4.328524714487796 -0.15388720907118014 0.1829213915200011 0.8721688430404528
Ni 5.978714119817501 7.171195225866441 10.349395751167506 2.2247969056169237 1.6317714472456994 -0.27050319249572763
Ni 3.9434558548283944 3.6467617695678407 8.28843733460345 0.5542755912965357 0.7768554777484235 -2.338193610773225
Ni 4.464108271513736 8.840635434799204 0.3848521526770026 0.08059508524524829 0.4598083760548855 2.7360967646828818
Ni 0.947722608706768 7.763638776207863 4.395849276451108 -0.38402999547199024 0.7632499711498468 -1.0836785877211077
Ni 7.696561482468057 2.3150603188011716 4.869439234027386 1.0630773665309887 0.03417510321981211 0.9986159536228093
Ni 8.458129088901753 2.602863861194099 0.5050078395329668 -0.09127570488754602 -0.1495890959164585 0.647063104842918
Ni 0.9877856175040074 8.212666756915894 10.546232370256742 0.02178341442367861 -0.805211146072981 1.162439962191727
Ni 6.083668830566256 1.9992423053930684 0.3824665236741897 0.4023969280149522 -0.2184653500628818 0.8116299051151312
Ni 4.015080290805705 8.904971477821492 9.228677995828182 0.8418923035440984 -0.3080770369844436 -0.760158990929349
Ni 8.629401692853705 -0.05988058450810663 5.565565036169633 0.6463876760424481 1.2246855983955103 -0.09418130857011522
Ni 0.08879244469398301 5.665229873912151 3.020323005936335 0.4154254790641361 2.2342099714007073 -0.8317076497016128
Ni 3.1476411363900305 7.754951974947621 7.036731321582892 0.8402241718130561 0.5324466683469024 -0.1297085549424476
Ni 8.27187221582499 8.392561335253012 3.141038982212603 0.5083682872414599 -0.8231129660540664 0.26748857403911996
P 4.4741656981327385 5.355876026047384 12.254464055137031 0.07489649219857424 0.19284842082572592 -0.5365339510423985
Ni 2.3743583875318057 8.156637814885544 13.13337108375373 -0.9295831192938635 0.5736691653317991 -0.9005615352505328
P 6.829844684660375 0.68100447048156 6.5005195287809885 2.082572991816284 0.0279427491568551 -1.4593463272713318
Ni 7.36911167547481 4.001744476504267 2.309314805472968 -1.235378559332982 0.4215650163029708 -0.6373307080465024
P 4.391659608124739 6.092957595666494 7.675332533076953 -0.5886800369183346 -0.6513054250590397 0.10531984168543797
P 3.603022150855552 0.6044263351501935 12.428881688628405 -0.6778885748642067 1.1835512902490457 -2.494132560167111
P 3.51857125459526 1.4240519648041337 8.239723642376369 0.4508527095234945 0.0774529400718408 0.46595794059604917
Ni 7.213554958237818 4.809709603528386 13.37744426841652 0.1738284280797974 0.14111294012464728 -0.1219636208897061
