# total energy = -340898.56050872046 ev
CRYSTAL
PRIMVEC
9.00610304354641 0.00000000000000 0.00000000000000

0.00000000000000 9.00610304354641 0.00000000000000

0.00000000000000 0.00000000000000 13.18134215508043

PRIMCOORD
 96 1
Ni 6.3905234725198055 1.8946949205304628 11.38856114135315 -0.16976299976117215 0.7134939827726422 -0.17410379322837113
Ni 4.612349511219224 0.386415850727877 6.062929181617104 0.042695739096313565 -0.35101008890254387 -0.36340974811847737
Ni 2.7235535880836887 1.4641401595238992 4.8106756048572645 -0.2743891578136952 0.9886927809718262 0.3661078637759308
Ni 3.5066072163230193 4.429516616388043 5.008343352373827 0.3321651882818989 -0.7970782325532015 -0.4290628673419127
Ni 5.209958474788398 4.525395587787124 2.7802614155598726 -0.0003758952821799978 0.10993445763931389 -0.26697846717192086
Ni 7.216635278690661 6.083208223501315 2.634778630646621 0.4155334653969102 -0.23386651510930048 -1.0310820445713147
Ni 4.810943086113188 4.624192536523544 11.312926088036997 0.5039220785446483 -0.1384904149001357 -0.32238933984205764
Ni 5.57103115197532 7.677810789533489 12.30777443679088 0.04064579854582032 0.3560113987718772 0.6783719422585285
Ni 1.7401862192978272 6.485627919070088 0.35482694483061256 0.9533745652865064 0.5618341203700841 0.4903679940092974
Ni 2.9270915134659203 1.627258695122261 0.40859247849164726 -0.6972258417402378 -0.37350389912968573 0.11825480457955118
Ni 0.45583759365813603 0.04485039240723506 4.729887259465727 0.31459786882209684 0.0881556712013256 -0.4344123045792841
Ni 8.774339841170134 2.350493787946159 1.3698048341606814 -0.5752267396269061 0.15644931337140153 0.07808620278046552
Ni 6.901079445525058 0.6640019540965113 4.700308515734184 -0.35911240629470415 -0.02065727123903539 0.28248633299953285
Ni 0.9759283277962275 7.429773709756851 2.802722636175062 -0.7785151248390334 0.003032359068420584 -1.2453901779327132
Ni 7.53161472127111 3.970052265094888 3.84151716460572 0.7953653636271528 -0.5439294721755212 -0.006197129949647391
Ni 7.553049246156496 3.866572142854099 12.514260960260286 0.5718297981302151 -0.6228039751852371 0.30615359470948567
Ni 8.080401601057227 8.88854623195651 6.879487313839045 -1.1307817118564978 0.33978105295594385 -0.09743323984850961
Ni 6.762385460972563 0.7517475139729071 0.49442063906211914 0.22874513472233507 -0.6687657866273321 -0.7036679978211559
Ni 1.7165091747920802 6.464697735946711 9.217580598711805 0.4235213686983932 0.5151153761573064 -0.421297621574197
Ni 0.16427491920982537 4.7223140275429865 1.3357707713279623 -0.5749973972249194 0.6289465977478652 0.5525534663991064
Ni 6.422981467346246 1.8780876667957356 7.076785811136992 -0.017658593622027655 0.37814911121118094 -0.7240144226879918
Ni 3.5169732407528844 4.309627374676173 0.31349343560310144 -0.33895032952453236 -0.43638305515240977 0.19415634100387208
Ni 5.944901501373222 5.637253026547689 4.8599344846306325 0.09347451231107773 -0.17885339209821455 -0.3528695107087858
Ni 5.201105475644561 2.968681696625882 9.249953936171051 0.27141310590450674 -0.6555762845202516 0.020950119889105855
P 0.18382086431854472 5.522326147529873 12.365707094260513 0.5016404815993232 -0.05322903452746961 -0.09199304266954479
P 3.8746326049433515 6.23028688984721 12.5364844197591 -0.1717059824201559 0.11880682042827925 0.20964723755061956
P 2.3488096467051642 8.469789465739801 1.2795591801211839 0.7940469019260453 -0.11347640935430134 1.0990915798420684
P 6.457781048924873 7.748724843713121 5.7478821932649575 -0.7253930482030733 -0.028406576167151074 -0.14750650235581694
P 4.733544637850581 0.9322667409708709 12.526018427587122 1.3793492806213987 -0.1605006006226397 0.5614325140562911
P 3.910179693062098 6.17277391677239 8.195868846248626 0.05135495743320832 0.3251800152133174 -0.32767192839723563
P 4.633621926252535 0.9250618586564556 3.7798685890824255 0.9696658462473622 1.0420431715685086 0.1725289925420835
P 0.35034100497959975 5.463615362770281 3.55150173863443 -0.6869673972370234 -0.3256507842021488 -0.5745479683923266
Ni 1.4536030191390668 1.073896715066489 2.563322409072829 0.766087954819274 0.17766348555517145 -0.29845956849933764
Ni 1.9074835866385498 6.346006305919612 4.739286028444882 1.1366913924727133 0.4212374577602229 0.28765296480213687
Ni 5.964949086413082 5.73858969629994 9.191323305727208 -0.3598066041482513 -0.452823202986304 -0.3128073525805774
Ni 8.563705106708206 2.27317639460959 10.22068033893627 0.03329090084264589 0.5124380864354594 -0.08278103715297357
Ni 2.261063186218479 5.277008910826926 6.950125781270151 0.15610632820968598 0.16143082574639295 0.7898410913748138
Ni 0.6343700743578999 8.894967583319232 8.890459128210988 0.011519570603825323 0.58195274549683 0.48343912809994805
Ni 1.3677928707743812 1.1778811790692874 11.460359594836877 0.49373125405457546 0.051159296482634474 -0.7771858645046485
Ni 4.024043851938538 6.805587736550376 1.679817410995631 0.3158371405458367 0.4562916211508787 -0.6430197880114796
Ni 5.700728039737688 7.841100441086818 7.757141046866648 -0.31954287153219807 0.36097414209379125 1.2405678168434056
Ni 5.1950623806033445 2.674290205258874 5.058959451853172 -0.105841775627179 0.21472053830846893 -0.45246659097783365
Ni 0.6357921380047076 7.275643264845722 6.630979214881101 0.3882090665503443 -1.0405200500557628 0.9937794514661142
Ni 4.965433775140037 4.494540679275642 7.07388584600544 0.25560313545544366 0.32394999946095826 0.1971424202153895
Ni 8.076519970710336 7.223209733802565 9.005638178109809 -0.48258192230597535 0.252022874303353 0.20602455319636775
Ni 4.549486913025951 0.3365715742664629 10.37245028427914 0.11265468478395439 -0.26641231025580564 -0.7745173165335499
Ni 8.153891400664264 7.035162305396327 4.656506433703696 0.25348351800927954 -0.02586812601601351 -0.10156037464300573
Ni 7.1588160981174775 5.90289703748018 6.878076958125998 0.4816583820504414 0.45226424515904046 0.8331693218488038
Ni 2.468437711433137 5.025171255629433 2.5018980855115704 -0.13286227008008086 0.8957582003246186 0.3552110143577689
Ni 2.266448835748505 5.2238819098610065 11.415437153606499 -0.1711773636101955 0.37558726402127574 -0.5737375566758893
Ni 1.2683384765267713 3.3587810434370042 3.7911514347868 -0.5440767963866631 -0.19150604786521858 0.03241518310591191
Ni 3.754716344922802 2.7836963432032698 2.7278125741417973 -0.4224379058262273 -1.0173888633549382 0.1857202944213769
Ni 1.07243772639782 3.4599916277487526 8.31341920303918 -0.20921632066078807 -0.699019700415867 -1.1013531221827353
Ni 3.59953218597319 2.566180946131073 7.26194408173515 -0.41601888967376094 0.8944448808298338 -1.616382880604771
Ni 4.176111899287165 6.914948843980307 5.956832786485893 -0.5758322344213889 0.14481918533164093 0.14063522915728038
Ni 0.7216500187147266 7.515106534668206 11.357518905901491 0.0030063909264915964 -0.5686040921040659 -0.10624518171318477
P -0.02514413866701999 5.5372132356120325 8.079226304629689 1.1633465331663964 -0.3659291721062214 -1.0891324117468273
P 8.500455246090532 1.6920215810259611 8.007942099621154 0.17653040039199275 0.36821642547850136 0.29756688148173915
P 1.8867335255730338 3.225941025764972 10.483108270525666 -0.796909311075505 -0.40869227410536063 -0.29178986978864585
P 4.061581288796642 6.1240238818124775 3.808551225576113 -0.8125205352502006 0.541453499831203 -0.4535194577223803
P 6.7786234644886765 3.981922308707887 10.424714500587907 0.1487933394880405 -0.004900008404778658 0.04508043727840624
P 6.262438677175288 7.741862193308641 10.150516493127629 0.20625389559835447 0.17082332270488645 0.17912052971667217
P 2.3124430032231533 8.418328593809091 5.783973249998442 0.5967378742258046 -0.2097595947587678 -0.39737427798938013
P 6.910824048855304 3.855791837691155 1.5448267359527466 0.571565488725235 0.7938910930744715 0.09867559689604297
Ni 5.375148414052155 2.7552190458555432 0.4082988795373348 -0.5865079689676803 0.6223298637622959 0.06528442303010691
Ni 1.3604889213281426 1.062918275639899 6.886196860494343 0.33449563618728845 1.0683069903610443 0.40942812383012067
Ni 6.861335513458164 0.7550581573963808 9.172909427752142 -0.5847794163123476 -0.8465452289350777 0.27385385413551544
Ni 2.660591922758592 1.635337169417299 9.16075569189801 -0.36637423006344 -1.050985725473777 0.8155816906740276
Ni 6.3543369510956556 2.053850770855896 2.691168542690681 0.25366426656151797 -0.26290455421286335 -0.1225796572071502
Ni 4.120084933189694 6.943507196254071 10.350359214492855 -0.7611434663298053 -0.24103140828885586 -0.2066398181828635
Ni 8.028130179866146 7.094773700445219 0.2665320126777427 0.09265150218915011 0.2216193223108312 0.3124581967712748
Ni 7.4362130733253595 3.7718819770368968 8.305273182972442 0.6862832266858052 -0.030145156124812597 -0.40856114784413505
Ni 3.0484757682580312 8.576763955903083 12.273543140304803 0.15730317673126457 -1.4651441649000316 0.4435497481041781
Ni 0.11374077526680597 4.728537244642063 10.084873710971278 -0.18923165000874506 0.05913331582704655 1.3909467556510111
Ni 8.614202325629362 2.322052515010004 5.6068286097544915 -0.05181055691338819 0.4156175404702842 0.4958069056366816
Ni 3.7610656474623805 2.4511369877756475 11.369065630420632 -0.22040113363301397 1.0068676521086402 -0.22195870792812097
Ni 1.0875949975667711 3.398903231825404 12.556822901922404 -0.2365057525043604 -0.21559394205235774 0.280627168303607
Ni 3.060615994957821 8.327006710473876 7.87713025632063 0.19940910476237916 -0.22389989081489184 0.6928976466785293
Ni 5.581973566990338 7.824997529114101 3.567200276587252 -0.12439896980407607 0.25157138858823125 0.18238943027593105
Ni 3.0318324901117317 8.455595847580403 3.571115229514847 0.5197027384176727 -1.2271456299002286 -0.10329304106339629
Ni 3.2788068497469944 4.335177688583668 9.210528820146571 0.18324483629769087 0.35398125571572586 -0.1334248274517702
Ni 7.416507720195432 6.015671457906564 11.277138536971009 -1.0470892186328482 0.7070150599165178 -0.13664847659539048
Ni 0.5737653061599066 8.963891288759507 0.2524644799588469 -0.53158612011882 -0.1623073148140753 0.47001796959803577
Ni 4.6556598600317525 0.38602138342116277 1.6488274109407524 -0.393039140949136 -0.8235451684954784 -0.119540099049878
Ni 5.8138446920740074 5.380849277183436 0.3295891426935052 0.27848723914246876 0.9749684894071983 0.39726474899470937
Ni 7.80730954303221 8.894265107293577 11.403679686279663 0.12334096085320692 -0.7015501801472047 -0.3038545142626638
Ni 0.1683438764968914 4.7637240886450885 5.757320589096841 -0.5551407675103084 0.06036153180719282 0.23096682496400223
Ni 7.916022211053844 8.890653660033477 2.4523357000707082 0.3705995809986972 -0.6633780399528575 0.1458234582264392
P 8.603620154730065 1.7267130893698708 3.4649792075309063 -1.2311580934937314 -0.2801520284394014 1.234556577652319
P 1.9573593844600896 3.15789091230532 1.4991405771970394 -0.6110283227065477 0.3934412614835611 0.3946432522114623
P 4.6667103482814865 1.0242550759201678 8.217248433906363 0.9790514012273203 -0.6562226598549988 0.37614879295170056
P 8.496366475377101 1.6297713978294135 12.531514852182733 -0.7900328956706459 0.4446162416954795 -1.0913193920958173
P 6.2635464278311295 7.660564102493358 1.3869011192824998 -0.20653825960799269 0.07316536844008044 0.17636327868650917
P 1.8986485997004983 3.2750062743261403 6.021368718596689 -0.7760466086938829 -0.7241542906999657 -0.13615996699474617
P 6.819493159417198 3.8951034768191835 5.996509172781089 0.4744312681743829 -0.3698583319572985 -0.13264655452484897
P 2.29877173903155 8.543792613211739 10.18855737113745 0.5055863536209486 -0.23155252226414316 -0.38185329953564556
