# total energy = -340869.5086088922 ev
CRYSTAL
PRIMVEC
9.24973495456501 0.00000000000000 0.00000000000000
0.00000000000000 9.24973495456501 0.00000000000000
0.00000000000000 0.00000000000000 13.53792208354538
PRIMCOORD
 96 1
Ni 7.5908875426544435 2.2055993158505984 10.916195032049444 1.3684169499796108 0.4772409697090362 -0.38239657363362534
Ni 7.723796985176806 0.7882494688938806 0.5350527722593459 -0.5714523601861384 -1.0436418835141963 1.4113566867659304
Ni 3.1931010267342637 2.0674915222462147 12.32683327127464 0.8969954151658294 -1.0371606466652268 1.2556283107209536
Ni 0.4399886205770036 5.374355040008561 8.612474527091933 0.3012934384037069 -0.7206462775467073 -0.2962952138581671
Ni 2.70732344288087 1.4639093131603897 6.43342380069973 -0.42008663198523133 0.5554055911359208 0.7389324774504048
Ni 4.626698958229556 1.2198920535610833 5.142786073801042 0.829584432711023 -1.5173820391588255 0.6096391556685049
Ni 8.381101655266868 0.2639717129609525 11.985799240929977 -0.19329296456231226 -1.5682490012120218 -2.0448968174217494
Ni 0.643198824182441 2.5785578816480905 5.820169143702037 0.7127496484074499 2.103022260809572 -2.370701867813575
Ni 3.023729128757579 2.3839249573279884 1.192510987950763 -0.8899413365325254 0.122145397883209 0.9756153789625777
Ni 5.063360449119365 6.145847688937691 5.5237290108689985 1.8974833890003706 0.17784346277646146 0.40705602405351826
Ni 5.555427852787305 5.148578257871438 3.4171610580514176 1.6995449552462472 -0.49050709069032306 0.9103849490988579
Ni 2.2722806556198036 8.713111644124663 7.6700319753914705 0.28295555932646754 -1.4934525249264214 1.4153056441113496
Ni 8.58152491371036 8.788561732694147 3.1865559142331272 2.1852325130607397 0.5219671089718172 0.7868136174023999
Ni 5.9923575859927345 0.6627583138586737 11.704278005712938 -1.2376329025847976 -0.9266111811497332 -0.6830143261265463
Ni 9.009500903415084 5.4890980029489125 11.09095582564959 0.4518019608106412 -1.8176817461906953 -2.7787824764768656
Ni 2.0136303152166573 5.267714844946949 10.687796875007257 0.4619943279626108 1.4186743034732663 -0.8335354469389711
Ni 4.789734787716587 2.9763427362429953 3.9270536260790787 2.3514113950150795 1.0885487713292155 -2.6056636728695834
Ni 3.877942157983005 1.0422786416803402 10.04643782312057 -1.006469388228957 -0.8420985060176335 0.6741982704968131
Ni 0.5838830484107692 2.803964674384359 8.086147029878266 0.05656401243797356 2.2742538746964702 1.3442709488610267
Ni 6.150703799823921 1.533744812571889 9.233363915376282 -1.0491836392680318 0.5430205872080067 -0.38560042528290367
Ni 9.138432959878248 4.876839542413022 1.1797667030382908 -0.3503899388200417 0.04251010544806873 1.5262623723675908
Ni 4.388629278249003 5.249955353705879 10.137277620818644 0.19800733931884607 -0.7202960932961402 -0.28633373177008103
Ni 8.332512797199502 4.470045445907284 6.575775372731927 0.039771366360666985 -0.19282682355917113 1.1126484925908966
Ni 3.1914453241654344 7.345908310612913 10.99371336136971 -0.684315304326157 2.3118472595692117 -3.231862789779299
P 3.2735367224802765 -0.004660941477278744 12.082839136012886 0.25729415000462136 -1.1071463318257448 -0.0383469752093146
P 6.2980983273897815 4.018131141967202 5.6960266000329485 -1.9894712894635929 1.850696767664135 -0.33587117637857644
P 5.975643314809082 8.614490969326596 1.88451973886758 0.3245079288469573 -0.08956360729244575 -1.7076393022186076
P 6.182171398366692 6.258564959908358 9.226486737387878 0.22300694668697724 -0.22222404577436566 -0.8205017536834643
P 0.24409588234698834 1.9233344019378418 13.351193326271543 0.8172055994306957 -1.499230050840147 0.02274500700599954
P 7.471168222272585 5.534625198724197 2.61612198054346 2.137707728006899 0.7841054744426172 0.4958279886826041
P 2.1748161976994105 6.676541986054958 8.970199704282697 0.8487867166710866 0.755030668563848 -0.37716000782503434
P 6.317763264045257 8.231894179636814 5.48644610391828 -0.2192629062635127 -0.010191595821021159 0.11229935832706467
Ni 8.442695640774307 -0.0027998947909749473 5.638016886846297 -0.7230456310168193 -0.33049371411674694 -0.8084646200132722
Ni 7.024951755105679 6.424810447447812 7.160937659496156 -0.8492772831542599 0.3345311174109142 0.27326815683537453
Ni 6.633493719265405 4.523351668835558 0.9941291460264913 -1.079830160509295 0.005214197211087793 -0.6472605655657047
Ni 4.324935602891708 4.025910169120191 13.333675253114532 0.5620860884798901 -0.07124398304765149 -1.8531460005355764
Ni 4.0026563352764155 4.863455175837071 1.8467354962787015 -1.361173123933004 -0.6883771331003564 0.846638302869516
Ni 0.9460628979878348 1.638303817253689 11.075224801298711 0.27260301244754986 1.80020364401059 0.8105094183574427
Ni 2.974659284469102 8.6937981974 0.6776300378260656 0.471508180990317 -0.29322274558043043 -0.10537794861688304
Ni 1.3010862275788504 8.913673648593477 9.964154030317285 0.28849731508030313 -1.5706105594656627 0.20471509035632485
Ni 8.687397380765198 2.4049496050316095 1.842362221560588 -1.129033104596507 1.667771519489392 -0.512467139901182
Ni 5.206638844600706 8.480203316286048 9.370990722759554 0.5036410569691198 -0.3143351020790135 -0.3647541779615137
Ni 6.94127865210218 9.014014774105522 7.623867472873212 -0.2863386168660875 -0.36752916960348964 -1.0325550295724153
Ni 7.973484332344225 6.401732358569442 12.57710890158942 -2.6081728124446824 1.683856340866397 3.3611975063220947
Ni 5.707169755813219 7.036560172557524 11.154828020892799 0.6725450511641062 0.5994503880609612 0.02281082724692846
Ni 7.385275182863952 4.334842069099617 9.071179061511218 0.2706374040807468 0.1588322117812813 0.14675316912956016
Ni 8.395244500114574 7.389252568923149 9.55713701519753 -1.0422048939573536 0.1280555927200569 1.1311784330742842
Ni 8.434759368125956 3.6501304341411753 12.74734842471111 1.6581730771676797 0.6093851306761698 0.5961763452953798
Ni 1.8612316810042249 7.972762853012556 3.595022362830734 0.10762972076553722 -0.795255834632482 0.609683378642879
Ni 1.1213546263782088 6.022678217392853 13.110624367888212 0.8584301532981217 1.4562797725308663 0.2862131470318167
Ni 2.7750592524425133 4.372349744611356 8.135857880803725 -0.7219302864654533 1.4570284777714326 -0.19421367660436875
Ni 3.8624396020871545 4.015087979145164 5.790412746138223 -0.5157059585534538 -0.2636224062154944 0.942256600996474
Ni 1.144182972411001 0.8754985194566499 4.359197546384441 0.8476772856569919 0.06287632780924655 -0.4935911289322854
Ni 1.1569291072704773 0.8066277674078817 1.7915543520615913 0.25380824833855 0.3695166323471636 0.6333385561679739
Ni 4.8890121937011735 8.015061891265375 3.694309018550341 0.8108331202454487 0.9071404740196312 0.7225584069677556
Ni 3.905691363047177 8.468964888235057 6.1221461679188796 0.8138379685100436 -0.8045727411580337 -1.7817132985158863
P 2.0135193183964004 1.5367047277787342 8.880836164294038 1.0351369313669785 -0.7038939977890329 0.0039803248039866936
P 4.769986603445918 0.5167632712015502 7.517378048492448 0.3813989856070464 1.0746951532755749 0.8986365503136782
P 3.8069041930187253 6.328344960909728 3.699061532404331 -2.924648872126099 -1.4746634172443764 -0.8539484633776842
P 0.3973612167309249 7.501313108707297 11.590641311081146 0.25172076968190193 1.376972552859106 -0.18387861322694785
P 1.2462352989020038 7.6242328374065576 1.548995775675158 -0.47626189362521854 -1.0059531107141708 1.2689530528543178
P 5.194715936158134 2.5653215108324803 11.104331867464023 -0.31848820501543856 1.505866068099426 0.005282074334545742
P 2.0789889428778032 4.349928386919506 1.0590299118040787 -0.7124069203560505 0.2470081946975811 -0.09381081260457393
P 2.8650129255255377 2.5311622393984847 4.395682201202814 -2.2446805319147276 -0.9614737973548731 0.3523267508314384
Ni 7.929529591522576 3.9107694675739206 4.336318326809032 0.3239584841013905 0.4813390510378097 -2.097819890673026
Ni 6.442246197963132 2.5708436026402506 13.195115147467602 -1.1307958529238846 -0.7899678467606652 0.607419779419683
Ni 1.6990005784640545 3.8772576775914223 12.395632800363744 -0.6810888269690593 -1.1071080223886416 1.572198472778073
Ni 1.7161680866637554 5.587607680926723 2.9930588573736525 1.6946544599231654 0.8686988822139813 -1.6996264592164598
Ni 6.35835110131912 8.306567290464502 13.248277999503044 -0.2468719262300329 -1.302622677192621 1.0341635117101156
Ni 1.0862981306471384 3.373961095607515 3.1964392561034836 0.7540752466291143 -0.9759462799394354 0.435271824366102
Ni 4.299128842182028 2.6694827769083607 8.259622110310438 -0.8094606653779542 -1.127346975143336 -0.2916433169084526
Ni 3.395660973967697 0.47029815229509647 3.010279089062975 0.011273516031290261 1.3510404063743766 -0.16937244919097283
Ni 2.939806282908502 3.2122757274336062 10.454064395778236 0.5242679891908519 0.3299856641320768 -1.9432459399474664
Ni 4.786469631254037 0.9046980829721759 0.7177729628453988 1.407785938695537 -0.891066194165588 -0.8806403708465737
Ni 3.634803623210731 6.386470295784147 12.755078428268487 0.2884762320343806 -1.755869340869589 1.8997660143869608
Ni 8.164500610270963 7.39351669676801 1.6195009559022062 -0.42576079955187324 -1.0606240198944894 -1.9225297904460374
Ni 6.7015532695527975 4.253259406210952 11.501155674590205 -2.522492856477359 2.1043227247885503 -0.7539094104752113
Ni 5.340140270164437 4.690420382791916 7.729842611986787 0.6211350721232464 -0.6762420403997192 -0.5999301559108572
Ni 2.8230838766735737 6.335300761645814 5.719393280643986 -2.5279644211148913 0.07305223990098386 -0.14579851852577472
Ni 0.3471601298493314 5.667830632767243 4.692446999735103 0.23543668780989774 0.37115468217121883 1.0573592331002886
Ni 0.800510917638236 8.802760075951982 13.441220997234737 -0.8051126728219037 -0.28795044143789766 -2.139920162277186
Ni 6.360497039844081 2.2626794306676 6.836704847844345 -1.2447170631250886 -0.20215067206325832 0.8568160147334664
Ni 0.08700485755820465 0.4113671655003146 7.908759311532044 1.2994219108671363 -1.6770220915533827 2.0637607442057875
Ni 9.102423741439974 7.316207411459227 7.377219588633822 1.3625332375053243 0.4475092469725583 -1.5906512801666217
Ni 4.424065013115952 6.825009482883298 7.793632484588305 -1.3703910429868462 -0.10217126875412727 0.9291254629311546
Ni 7.414374849241246 6.490418817954534 4.615673274084059 -0.37384251341602714 0.3276300194157067 -0.022216902416671416
Ni 4.581208761394357 6.982264227981961 1.2913943552234373 1.2620239298346523 0.6184852932052252 0.6493444446779268
Ni 6.6104711287971645 0.3965361403670168 3.5669447921733024 -0.6229353585567787 1.9165095523938867 1.7221033001627373
P 1.3146833380602947 4.745225062793656 6.390197014024265 0.10895203912138654 -0.47454054005873764 1.0552499000667697
P 9.236036163823963 3.607886894298484 10.246217300006574 0.1132079861842631 -1.0276043704353592 -0.6108344615281867
P 1.211881783032559 8.317759469840384 5.801622500010647 0.4960794425717779 -0.37627991921292614 -0.352042129711484
P 5.176549456576123 2.6923296224111954 1.7543250935739962 0.3898612574417866 1.2662089144502773 -0.4385666930672899
P 5.802044287927622 6.107886776409904 13.006761868253522 -0.2942560719409513 -1.3249521939277569 1.6428223057432223
P 7.797073386016263 0.2932286248336112 9.589370491800072 1.119831383492581 -0.30324079193806486 1.358745488328118
P 8.412957742680536 1.859557478965353 3.8585241892526 0.539911866375696 -1.2327745460512316 0.48767604899943107
P 8.356626856400268 1.805113538629448 6.918528003843567 -2.2949803086105445 1.0127045705053914 -0.5247510994748574
