# total energy = -340870.7488176448 ev
CRYSTAL
PRIMVEC
9.19194435777589 0.00000000000000 0.00000000000000
0.00000000000000 9.19194435777589 0.00000000000000
0.00000000000000 0.00000000000000 13.45333970358092
PRIMCOORD
 96 1
Ni 4.5000357331703045 3.073639038490284 8.756966605359294 -1.2322533834404392 0.6203508856590542 0.4323014288838684
Ni 2.706595518327969 5.484005774061224 7.509264061715098 0.27103618218106224 -0.7126527178182694 0.06626298489329233
Ni 7.096070547771536 4.649294521590219 6.459580812398633 -0.7373029122667818 -1.434559864355271 1.9601306315179468
Ni 0.5193043975277875 5.310305606259083 11.721490832930973 1.6280999119313833 -0.7325900801721448 -1.4020372091372177
Ni 0.14798202738336444 4.249849398448461 7.54182100854996 -0.7233053124361092 -1.8016108087707619 -0.9460497494903191
Ni 4.066396577948111 4.588250820771359 1.1171493614833352 -0.3257009207137939 -0.3258680424192775 -0.5537528860238463
Ni 8.960950552218478 7.138353490666696 10.556969868294486 -0.7946968768052185 1.2481127190701988 0.0047699105848175915
Ni 3.737242251397503 2.0616335680710507 12.981948118218936 0.28508777517812195 1.1338330970883117 -1.0476849432353181
Ni 6.593427468133263 8.383825149475967 3.9422455848582234 0.28420408702158795 -0.6175514685370462 0.7782145628794791
Ni 8.439629442153473 6.896623744523886 8.0180151882129 -0.21637864273718216 0.25370437577083405 -0.3079582520183922
Ni 5.854624960481412 1.2419235683837213 9.303414813836953 -0.4608355317678192 0.563617694633068 -0.27498719640901026
Ni 4.900639041269625 5.102457366097047 10.687480767512453 0.3477615000582591 -0.06508130588036533 -0.07023559638779517
Ni 2.0129438401328628 6.870114177717443 12.072475107542825 -1.0167162627679458 -0.6569202001426557 -0.5223638301896035
Ni 8.42096060367085 5.828005090345676 0.28707176803699447 0.3530502592610243 1.617060109177454 0.2559111536141657
Ni 7.654582263696066 5.6717328485716285 2.6475905907121833 -0.6594185410844773 0.6997486081620916 0.9979292119684297
Ni 6.28890755179114 1.9192687377318676 3.3906719483461423 -1.177533880410372 0.1965130141615067 1.1744945793634158
Ni 7.0230313598922 7.860150901719407 1.4511846103551023 -1.0427497107172299 -0.37968637379131387 -2.3734323793708607
Ni 1.0757332189175257 1.7267894281178113 2.4143367362310313 -0.24050356080984386 -0.042894999591313224 2.472056811313994
Ni 3.306884620221739 7.94065394821415 1.6270338546896097 0.6801573162937253 -2.029354755922092 0.13654511824830678
Ni 4.2150946577774615 6.415361126879993 12.621559565590555 0.6839617776414801 -1.4972333321250924 1.8224411152525517
Ni 6.470623094855146 0.9419536643748814 5.667703100274838 0.4969507894331377 0.8223051254407902 1.5237547754543888
Ni 2.5048783048857306 7.907811131917539 6.070012433200538 -1.7255791745264797 1.6676411645591152 -1.032524433444796
Ni 5.27107438880766 6.450547888924052 2.425811959255013 0.17235390041679996 1.0576721363550172 -0.2467829660606524
Ni 8.750703214644345 7.231127782545142 5.055078409388609 -0.2065518864547475 0.23787075117268713 0.05742636043826885
P 0.38350996883674765 8.918869832093685 9.079779409670039 -2.5182919310221337 0.45536216735807383 -0.4073995234358661
P 4.202134016585684 5.46081449907764 5.999153574463535 0.9653931870139374 -1.2985996720761572 -1.7259563553602404
P 1.9432045601881713 0.8885337619989 12.141759386254188 -1.1580624019493215 2.3991578091614225 -0.40803715701986504
P 3.9526095018395915 9.038502984654667 8.227658615059157 -0.7986710309616181 0.7080267890104839 0.5501152892712591
P 1.2554541101101726 3.750386731471433 3.4365746788308926 0.21199388340592526 -0.004277287219115214 1.1686314357144196
P 1.366308956048354 0.6074790405747691 5.357388582367255 -0.8026094467840758 0.502743999076147 0.4491015311603427
P 0.9788960877435009 6.371552321262963 6.47472913628803 -1.1045415472130462 -0.6002037212872179 0.8431732271390511
P 2.5521616653754498 3.0614045608830103 7.80009809247535 -0.7772786813287711 1.0994502487330677 0.428929684198158
Ni 7.071178763128037 8.923346308874107 10.520040313647618 1.0715874608845288 0.00015066664525135342 0.0929842029382205
Ni 0.6744919898971337 6.028729573824289 2.9100647163171236 1.2663156152314707 0.2828637709436096 0.7859854650741495
Ni 1.8176426036777604 6.0199144994250595 0.8788813014914636 0.11183758819929772 -1.1695891716419988 -1.6203552349889576
Ni 3.661114570297999 1.0304353183550583 10.704149438957252 -0.3033395222994582 0.19936411045705665 -1.2654206142210271
Ni 8.583777509649538 0.20762395672580966 6.688112765191689 0.3529160476760051 -1.0035511861408974 0.7224653330333171
Ni 5.1010877664250085 9.095015057028458 2.4966974746299284 -0.7375394537576201 1.1818512768388032 -1.2781858843064953
Ni 0.9644279677180699 8.227571291590136 1.2223640305170664 -1.3479149733715172 0.15104434030574632 -0.2267605001921385
Ni 2.071229957719431 7.718824761064387 8.286315167993264 0.19768800830621439 -0.3248275169699051 0.9418724781841779
Ni 6.3512381247850715 3.9473057500894813 2.027821920865495 -0.462152707917346 -1.0561626416890262 -0.1546693386528433
Ni 9.075105306091302 4.638576714760707 5.28900511417844 1.1850289032358365 1.8549352312255152 -2.3158864626355924
Ni 7.571634160068691 0.7528165456383644 12.957839487213409 -2.8018172468091422 -1.129324667694997 3.722711580079756
Ni 0.1610492951267905 3.9896622285375027 1.486136977824417 -0.7427953028399208 0.687680621253964 0.8199397105324072
Ni 3.051578372631939 1.711218274799463 4.2008728818541154 -0.2691556773288978 0.04608213907004322 -0.42068184236706896
Ni 8.175002563238522 1.653354986641847 8.691112760188902 0.8296397114289905 0.25358301970162134 0.30324156326901325
Ni 5.180359092409327 5.320913109759305 8.048459826291825 0.29294378088743095 0.4575884855854313 -0.022408449602187217
Ni 6.465503181987188 7.303523534336943 12.029222414544307 0.6630227134959679 -0.6253725072433617 0.9768968167781626
Ni 6.829246794214859 3.9157406140238336 9.265274680151109 0.8625035520365469 -0.020264406675990908 -0.014826266379555109
Ni 5.573976522986839 1.017805587151156 11.998508452503028 0.542998989941452 -1.4323785404332365 -0.16583024036566923
Ni 3.117043398566577 8.56969545127663 12.771833144639956 2.7828329923971555 0.4059273097657138 0.7356705188696814
Ni 1.7854799912451156 8.651963351040038 3.4986350086680593 -0.7875188709995404 -0.029734293839639117 0.2795928135018217
Ni 2.76416466427414 0.805888073332666 1.12119565527952 -1.0931551597529754 0.1574417591916579 0.7348349103422636
Ni 4.51420971098429 4.5965235704682375 3.6144415548970286 -0.5461709599115304 -0.24938132291544793 1.2179091989036253
Ni 7.440851179305138 2.6769606905249264 11.428719140352829 -0.368843517539539 -0.028461854885118723 -1.3492344635138893
Ni 3.877373439318529 7.60990022338881 4.176629129270205 1.3255718297896266 -0.18844206422791418 -0.7070844797018726
P 8.49584737231582 7.81184723543374 2.8292914266656166 2.2602084523469976 0.5014371073392655 1.8932037877884105
P 7.634424330268003 3.066395786533461 0.4239352198277533 -0.36452817799363674 -1.5005729380212867 0.0722189453664111
P 8.965390261222469 8.107515309600203 12.76224135096363 -0.5008233850146665 -0.7165317411577015 -0.36380132712994123
P 6.0586861196710995 2.808423875152444 7.403695502833222 1.507551426221649 -0.7188135952133428 -1.097959008899522
P 2.469516895903626 4.609787545815569 12.635079996178488 0.535828954555574 -0.13858091773141293 -0.0070209114025233926
P 4.09627958824206 2.0007185544696973 2.1901636033338203 0.12447584578859854 1.4083387258752131 0.807356474550758
P 6.836729036718481 4.182509215915864 4.3733707433669755 -0.3038298316723154 -1.1191621253396984 -1.0099470623649123
P 2.951413757690948 6.3165017680022855 10.035033817168681 -0.8022775173659538 -0.7085476945109603 -0.49496924022673466
Ni 8.42813032007481 3.0015006611334973 3.425771386921179 -0.8655582797024706 -0.13495823337716112 0.7248276626179065
Ni 8.495259087892931 0.4740644062131982 4.294440438509051 1.481666330924771 0.48736854506134125 0.18140675464768757
Ni 2.8886052036034187 3.8551748942985697 10.396000543081431 -0.5822232255493973 0.4550634051707324 0.5000111735260163
Ni 3.7376466969382394 1.582668936454068 6.626280395568392 -0.2801378873720143 -1.6775985328821432 1.2279930655021882
Ni 1.8944872564176605 8.562681997922496 10.503035217048476 0.22219344964674637 0.3238859789922422 0.3525969737736895
Ni 5.801523099371555 8.09219233877276 8.821206345144383 0.4365424635484094 -1.3553269495648725 -0.7966570858553829
Ni 5.729853511164259 3.6486502940880348 12.84273244793103 -0.25489093987976746 1.2432394501382975 0.12592389108903473
Ni 7.5530848168594655 5.144234752066287 11.714952603087207 -2.503627129921108 -0.2685830926548794 -1.496417006871384
Ni 4.723914723856071 3.084090278940675 5.402323401137471 2.366218892341557 1.5149616026427908 -0.2816224423373408
Ni 0.09797601304896195 3.4222710946049886 12.680821867641354 0.8492981090898664 -1.2990699268443564 -0.5482003316367332
Ni 1.6197492389843022 1.1298094261027927 7.907469191596735 -0.08733137552781733 -1.196180806087598 -1.712057228780645
Ni 0.9970501773560968 5.466577848033132 9.018849688958113 0.7054564571801464 1.5488523418529647 3.8297165227771015
Ni 2.281624366399284 3.7725393167708545 5.69004963559493 -0.1164455192849543 -1.0906449917366121 -0.21301126892684605
Ni 4.364813043402759 7.765437109634248 10.756900167802199 0.38083822800756995 0.7037225052081753 -0.921266371898052
Ni 6.427255502555283 6.203633886304531 4.89416331664579 -1.3017559583169516 1.0857717228047108 0.2700272813005737
Ni 5.826828521499897 1.8006926587432655 0.9630142467143143 0.2074977953077846 -0.9619790191260659 -0.28882178829925736
Ni 8.91264688593281 0.7965058559819943 11.452813983442196 4.383917294971644 -0.43050448488444565 -3.459722950793519
Ni 0.45765586678664366 1.2847212601489097 0.3231722093253538 0.3413034031377412 -0.08779314565558428 -0.8704444041501783
Ni 1.496898905985646 1.9442800176487658 10.053141947060737 -0.7533023730188316 -0.39622036689059503 0.7847263958560678
Ni 2.090487080624944 3.0943760643971276 0.7522337763819398 0.7917439648244816 0.8831754785636016 -0.049343583430134376
Ni 8.785981896129481 2.4742875148954933 5.833556105392282 0.038074695384534424 -1.5448671319529717 0.4785332061578985
Ni 4.620257170154174 7.461229719391785 6.677201927535916 1.3169087547979899 0.1546873363749723 0.20780221392208081
Ni 2.388517484427071 5.918003415103614 4.738871855308028 -0.4604400961016135 -0.45478315492615223 -0.598880374490104
Ni 7.883801773908373 0.8714845440680428 2.1187660966721094 0.700579074483187 -0.13818702472710395 -1.2645952901062543
P 6.2378095344967495 5.637529624547087 0.6689878537654768 -0.35320066879595946 0.546831990534297 -1.3358099625778672
P 0.060732093913611764 3.501956058074151 9.790425154131356 -1.1677359204833435 0.7416035965246648 0.32674941658296625
P 5.412786591115202 8.667415009084987 0.029690898662099462 -0.8022726322699473 -0.1265880070355949 0.8612575954445877
P 3.04170622466033 6.0047018319269085 2.5473763392730104 0.6747914239961217 -0.10618630345079132 1.5865891942821062
P 5.118212358297548 2.7371495405417763 10.923560225612293 -0.41661101473180506 1.9821852973251408 -1.1894090345814032
P 4.655710498577355 0.2564037657162525 4.914289997463887 -0.6436566502645302 0.059915702519025844 -0.68462923602215
P 6.750104155448048 7.858477967891816 6.852162310875214 1.4729842297697406 0.5890937274169855 -1.2607255227382028
P 6.582810772688934 6.210288853838464 9.827435597886371 1.0770166023199 0.43643756253942895 0.1186237578831957
