# total energy = -340890.8006355263 ev
CRYSTAL
PRIMVEC
9.06454527780342 0.00000000000000 0.00000000000000
0.00000000000000 9.06454527780342 0.00000000000000
0.00000000000000 0.00000000000000 13.26687827234818
PRIMCOORD
 96 1
Ni 6.563492163909397 2.1225448450854607 11.725333699845647 0.3489285237831668 0.6905800542889462 -3.3313719383202307
Ni 4.683269806294714 0.7498916972835978 5.720452293450382 0.47395561408954506 -0.8512272077917792 1.0000843106382196
Ni 2.9639793845853224 1.818619708272994 4.662260003374737 -0.7497434520229798 -0.17203019852879406 -1.234330577684442
Ni 3.6196179406307074 4.411396901393992 4.780400940641519 -0.2984577687271247 0.3444854004101487 0.10953773642152748
Ni 3.9932584947602634 2.2907284171698805 2.0933144061019195 -0.947459228243336 0.9098758706729233 -1.188054834546354
Ni 4.92605458557191 4.354335589209481 2.6526059109623685 1.4762968390827413 0.1588000729917652 -0.33859885972238457
Ni 5.629671779487449 3.0366951663715254 13.655730128183714 -0.5557547469452234 0.3733730299787763 -0.2648220829505504
Ni 5.850447842960993 8.18825750802386 12.300093851130697 -0.15159301372036474 0.28029189645137537 0.30665804514972994
Ni 2.2801954156196977 6.564879039328656 0.3199675689497421 0.9070443147613992 -0.08670711168025712 -0.43977871109752
Ni 0.9213294411034011 9.440905141606383 0.15632352111345632 -0.2793084494921835 -0.32571583311212937 -0.17638384751179945
Ni 8.192064617017902 0.026837399044429316 6.941602445288864 0.2634964221605913 -0.17529318555078197 -0.403274445523899
Ni 8.909586823306919 2.440782898806481 1.4134934563081878 0.3430440399779318 0.7490916773715938 -0.4263069018633303
Ni 6.874088806006663 0.9454592604894487 4.386839235473376 0.9604083322048363 -0.6547707578998208 0.9108104666720508
Ni 0.98023992051359 7.090169435054221 2.105440048247943 -1.3865452841492056 0.5883319095502964 1.3927948646033432
Ni 7.781549492917482 4.059574707618387 3.7399996334768395 0.670127185751233 -0.7869252032795996 0.7991330581997012
Ni 7.675902218332815 4.325474077216552 12.687327597278028 1.0336107245304391 -0.8671947868646293 -1.0103918632118147
Ni 8.435882754450624 7.475793317969786 8.864357462003177 0.050783915421086734 -0.27604726224240844 -0.16423744195725265
Ni 7.295970869817865 1.0311736001267384 13.584221743821336 -1.3834118807265465 -2.312900640534391 1.9319215160735825
Ni 1.9839842067927778 6.969982629930402 8.871866531266663 0.4938045304946722 0.2342580941207643 0.17484118561502793
Ni 0.3380259559448149 4.842470414062239 1.2594097843195595 0.0213650959393374 0.45884138415592585 0.7335539867473109
Ni 6.56817853379016 1.816707089230749 6.807474369610672 0.13455328462925858 1.1392892351068764 0.2877807486292528
Ni 3.637765160168975 4.382544453946288 0.21708316774932274 0.34360993978373083 0.42509694071562915 0.0321102502709834
Ni 6.291845872639273 5.886923572942006 4.6888726016976126 -1.1222338222864867 -1.6827785344211856 1.225089004481516
Ni 5.347456228486246 3.4206330438754424 8.890201386891066 0.451311651437784 -0.5603323390135769 0.7448480716038914
P 0.4372664099652226 6.0092133525577704 12.511489016752016 -0.12862534918059784 -1.6276170587576937 0.04507298107923851
P 4.3063206931584315 6.4129481968307065 12.549259163791005 0.019578693462875957 0.3789063010921797 0.37031624543032354
P 2.460752091934754 8.461970515605037 1.378030236028686 0.8450943554211638 0.7923492025086483 -0.00023474171862540217
P 6.539879023601113 8.199515673191955 5.801685121928971 -0.17272362505139285 -0.1618026072635149 -0.9574520777899899
P 4.741781445715051 1.3286901034659009 12.539494835675807 0.26251606052519305 -0.8624089354402116 0.5399686877555604
P 4.413119164986535 6.654699617952376 8.01251773104079 -1.0244694243508035 -0.6631378989175934 -0.3819422597050261
P 4.884647742989091 1.2824790519144096 3.561904887644597 1.2379725453124033 -1.4363503805967908 1.1007406854097173
P 0.6021559263152735 5.699650068616032 3.7296778358303735 -0.5283287895237868 0.4267686719910973 -0.7575413508008437
Ni 0.7093088218616319 8.923555287496963 4.290786782008217 0.8716926747349827 0.4820394195389441 0.9603419977432751
Ni 2.382443485745398 6.799070629733586 4.721137850422119 -1.3620151602183252 -0.4750197936880013 -0.6613759219211641
Ni 6.368758538864148 5.782155559244058 8.98642606671548 -0.9771022479207495 1.4672177595996088 0.5652405749484718
Ni 8.898129238143897 2.585788428753364 10.165214879359063 -0.6142745975579873 0.6214837137119168 0.13059892796720088
Ni 2.516698465056724 5.439443233418482 6.919963562930347 0.6785107818292379 0.05046149908466148 0.43611720308553276
Ni 0.8367146308017717 9.406006642494331 8.938864397925625 0.28457278321491636 -0.57092759803092 0.3969269060393164
Ni 1.6707225883996841 1.29045585171145 11.230744012338942 -0.015416591665386352 0.5113960183241902 -0.21934775266783516
Ni 4.73414909863652 6.775983233048288 1.6565556106692356 -1.4041483419429495 -0.3435001536787439 0.05735539799101735
Ni 6.1171630216293105 8.16536953133349 7.9772412403929005 -1.207329880725882 -0.3558615034575742 -0.1362810659536427
Ni 5.431004141815022 3.0192459168154997 4.995324933718505 -0.2018331408228395 -0.3095590208466088 -0.8980102295835889
Ni 0.6881884314899225 7.453675827623446 6.4508606572297085 1.3404569744315753 -0.11431844563962248 0.8269086856510726
Ni 5.0629110893624985 4.870851505158301 6.913051847197115 0.8301945554911961 0.7793296503205288 -0.32974937975155466
Ni 1.1896762379120225 7.6275972568346 11.251002364459858 -1.1970719504432996 0.05463465662574461 0.25330945432526053
Ni 4.90801614057633 0.400243181452686 10.402970648946035 -1.5449550636810878 0.9192879080154426 -0.03742703449820651
Ni 8.214626270080213 7.266275419664337 4.581199401255402 0.08161015677332396 0.4132431267008366 -0.35453789955014425
Ni 7.603095791094372 6.181131517274441 6.649346097543136 -0.22963370797487548 0.28623911517374573 1.603446375048761
Ni 2.754316453556292 5.384856542080097 2.5612507048322404 -1.18241666242397 0.24386373553132842 -0.12841786115548207
Ni 2.610924412659265 5.529118779318619 11.456878128494338 0.9337729890054951 -0.1249368445854171 -1.0540018865922816
Ni 1.2432748938210003 3.5686208092009917 3.608524750185687 -0.316833443020835 -0.28072281334120686 0.05019230458367485
Ni 1.6523759488664909 1.183512347159764 2.4840905765227537 0.5566538617207251 0.5405073338678497 -0.5212063195463926
Ni 1.1053759673296628 3.567406160140988 8.222625731240313 0.7218798928434923 0.014580983137968438 -0.40937644465657885
Ni 3.750401199121276 2.9682850435666794 6.973110804487174 -0.3254988320053169 -0.2605329686568933 -0.27114262585193943
Ni 4.2499845445918325 7.4585162947730135 5.880437890834298 1.4137257012187394 -0.5770123707724192 0.7337092813782525
Ni 8.330298931682524 7.728032417915519 -0.3167958845758961 -0.5804553350156971 0.4682781040887935 1.1971092314391383
P 0.45334328737434876 5.6068653837040925 8.087568539676672 -0.739356709472017 1.6067047340850587 -2.3992367420284744
P 8.70240757766924 1.8779924794896021 7.899921576087474 -1.654568133425241 0.5447748508949521 0.7843358452858685
P 2.0631902029593006 3.3822084366712897 10.2868193793559 0.09355781605350338 1.1929782399899003 1.2522971894651918
P 4.392814583684977 6.17739692464219 3.779163001116741 -0.7470913591121133 1.5053557041219108 0.103298440380035
P 7.182129246350785 4.117524345234841 10.307555433010116 -0.5360487838758639 0.26965807088661303 0.15279320467605298
P 6.6381205647378465 8.171243356638582 10.168319486098252 0.854251853550716 -0.3408560311876775 0.07239892258770111
P 2.423097971074633 8.93975362981209 5.721248160521041 0.3247264726156665 -1.0680586217956638 -0.14759571963551354
P 6.956023230285582 4.331139417981496 1.5108058815594698 0.5605621956361959 -0.28088942082605817 0.4300995361365431
Ni 2.7860151682043037 1.9868395385383093 13.24799963237608 0.028381122245854346 0.061574321168371374 0.7222203069020465
Ni 1.4862590930931225 1.5223903703556263 6.898603868564726 1.102323713626121 -0.48878959377858394 -0.8270755502462401
Ni 6.72713439883664 1.2091378165077566 9.105337490326294 1.4612851961652575 0.28010137770712407 0.8285655045282053
Ni 2.87612581227519 1.8668793470450888 9.030936609582964 -0.7321195682936295 -0.06757373328491588 1.0443319676026854
Ni 6.556113624097136 2.3430942949284064 2.4794866940035307 0.24324332833851012 -0.199908670106617 -0.11896597171396286
Ni 4.326579951733869 7.0809326634710565 10.187423921612165 0.3627024376388076 -0.015249469959902768 0.35556196993928446
Ni 7.7768178003106 6.423163939298052 11.008948187527709 -1.105740452617154 -0.21302926664897504 0.6671897003894638
Ni 7.6444391818606245 4.145144014532093 8.065280635880123 1.2528800585518551 -1.731977878963972 -0.4144980821538603
Ni 3.320796142779302 8.68921866436845 12.339510119582346 -0.08747510019453321 -0.466681449025635 0.578835540024087
Ni 0.5685355280797926 5.293322764409058 10.13487312713107 0.19414477103964628 -1.4378413633200207 0.9540672204781568
Ni 8.71675675275869 2.4244485883129956 5.532765445862199 -0.14630296896601902 0.7217066004904216 0.48090607726544915
Ni 4.183595815371918 2.9329695753743272 11.185199204861407 -1.30083293228205 -0.10327247223810601 -0.48751998303754107
Ni 1.2596182688597095 3.8806587139888578 12.467694572957221 -0.7914593437045272 -1.248587344713772 -0.27459253207375295
Ni 3.252639827240725 8.858916015505264 7.873891828022494 0.4212266591269455 -0.975011941050624 -0.3231035923002629
Ni 5.9492967086277275 7.83913654872498 3.480114589634738 -0.44635533587377324 1.4914486071225153 0.09785644342885727
Ni 3.4056312215298723 8.653359323462665 3.422323581559702 0.03593810865750585 -0.16945395316118558 0.43617068203128756
Ni 3.5311026565192294 4.9243595156150395 9.234742031488304 -0.23280979171001193 -0.5254568672926305 -0.08139238433556305
Ni 5.39875248990835 4.909457403266932 11.394696254712839 0.3943205787647209 0.007156151428807031 -0.20998225229253514
Ni 8.439717057080339 -0.19277930909497618 2.28705093117254 -0.4427722465082052 0.5996406496948963 -0.08700535964696629
Ni 4.638345920165018 0.03661169815937109 1.3347542842206965 0.5033451229952557 1.0883595381365447 -0.6450211347122247
Ni 6.3489887657308 6.092879104974457 0.20204418076833425 0.6175362990283945 -0.1981523495371426 -0.4845673281671203
Ni 8.403712683450967 9.3006766269925 10.96224855698865 -0.6771401267339564 -0.2157914027751445 0.1643811666239685
Ni 0.496159666739486 5.005033968107835 5.788391966358107 -0.714351445676931 -0.8795728488140078 -0.3316124011022224
Ni 7.422249049332152 6.070081773736324 2.6482948132538775 0.7855347506899762 1.253805655689918 -1.8029819780866754
P 8.771216540463938 1.763525402402071 3.4708279630528427 -0.6580260316123249 -0.41929627487345206 -0.10765980267252424
P 2.215474562720982 3.494953250166278 1.6196076178820575 -0.8874059717051813 -0.7753205291611356 -1.0246308896293321
P 4.717452206334078 1.3852800592987689 8.24259220500502 2.3466767085435714 0.19517449785574129 -1.15843444057676
P 8.629818699516171 2.015093726001236 12.40096229747332 2.257515221785551 0.6970641193513931 -0.8034237151552549
P 6.725856297960068 7.98977116125591 1.3212671473820414 -0.35298932411610173 -0.10257776016392657 -0.2963103833668187
P 1.9823253950168023 3.3450981885246036 5.7149999694982005 -1.1537666027874451 0.9676369887427917 1.4602906934624722
P 6.969067110862788 4.079326351661286 5.946930862324288 0.9044773253651713 0.3215938405239558 -0.15303848791763966
P 2.6705872493230385 8.635701589366489 10.206129517136224 0.4990503522746437 1.2313426987007117 -1.227872480763924
