# total energy = -340869.3845052535 ev
CRYSTAL
PRIMVEC
9.23191101780284 0.00000000000000 0.00000000000000

0.00000000000000 9.23191101780284 0.00000000000000

0.00000000000000 0.00000000000000 13.51183495042097

PRIMCOORD
 96 1
Ni 2.143852777137244 1.593298547919699 0.8407418028713446 2.755667230615641 1.7707202898394923 -0.7562339448433298
Ni 4.799162641484918 0.05075981485188186 10.930168733048898 -0.014505135594710502 -0.49672196125178325 0.6067785462912583
Ni 0.560543156644156 4.5608593294118 1.8691194220713805 1.148145657056242 -0.04220722949566925 0.16851190096289043
Ni 1.3230712884887053 8.31969641280988 8.105871512078405 0.19689045210558348 -3.5874137039749896 -2.100387908510518
Ni 7.049902481233349 5.650187869735655 3.5676783699289123 0.8183487118962035 -0.1762007849667159 -0.005461794445519626
Ni 7.4519337303775846 3.7177643124914317 1.9178565252789275 1.6986764365983649 0.2861866646692555 -0.5196068362697568
Ni 2.4822484655128743 2.1005828114731715 5.162831608717379 1.2324493015013291 0.13979602108543665 -0.12844845728310136
Ni 3.5485803161697347 6.962873258635693 10.381412880044573 -0.25026192574818834 0.6356358368425827 0.2101383182544252
Ni 3.1199980917214933 4.000842391680136 13.616280867598872 -1.111381195842699 -0.8515673647400174 -0.2636180353401202
Ni 5.1204608311599165 2.4139600217285464 4.758800727705672 -0.6807597257644147 0.713665732463816 -0.041081343421342155
Ni 2.9017834174305435 7.447622428059445 3.8070535068395817 -0.5911331264445173 -0.49420562258783274 -0.3665220684952139
Ni 5.821439814064339 2.68839703245948 0.5055855919763036 0.895207212917155 0.40727431071191145 -1.7614460636264178
Ni 3.8560491035480013 2.4963548251319705 7.127601011640546 -0.30643615894691095 -0.09873087561401062 -0.03706013807709101
Ni 4.087696207973628 0.5144657669223824 8.378796335829229 0.7836051377674311 -1.5313187038445755 -1.1040558658258792
Ni 3.457304414629158 7.843791413880299 1.2481127891907668 0.9016457694536472 1.1010227354265103 0.07274319330099731
Ni 5.800548000047314 7.169077217046771 8.465840329484077 -1.7992754757693659 0.9367690955193415 0.19990789877566859
Ni 7.154130753549837 0.8846533863322281 9.990690721563551 -1.8179715095169722 1.1330802780826872 1.7174956261873968
Ni 5.123516593616671 8.351518809149555 4.087005661049866 0.6002451160481147 0.7063792261047319 -1.2863838467362554
Ni 6.479158063215435 8.947669445539034 6.10264750813601 -1.0196506628059214 0.8199538515997943 0.3189345485242378
Ni 2.402641699154586 9.182039963634576 9.826427333669196 0.8876301719008456 -0.004656524935404883 3.06485035618007
Ni 5.953862341797529 1.2935568698354003 2.730687492393457 -0.01857750589187123 -0.32519209939817545 -0.32560836099998763
Ni 7.418791170801305 1.7993640276695955 5.643947098071709 0.4050932439001927 1.2271731407040543 -2.1123671923595815
Ni 2.7426991314644034 9.005202713304875 5.830992072112689 -1.537128111437501 -1.3288942092946403 0.6847544487461046
Ni 2.5012477378270757 5.864211256548156 8.41690012424013 2.060176626398955 0.30564245940102197 -0.2674908880319651
P 0.17849253192636622 3.1996879452764917 0.08592231649927244 1.2797146622461961 0.5768771307461354 0.09608649601262807
P 6.580505979379333 9.364757941109149 8.265094276705728 -1.789830528306382 -0.020161048328907215 -1.9028878478453937
P 0.8725521977270507 0.513786298291515 11.275896404938589 0.9901709081792495 1.8873817817899947 -0.32565001287120043
P 6.710675920890624 4.5485439604773275 13.510767513306613 -0.6402977610946263 1.6463539730455647 -1.4307037238339746
P 7.027228908442446 3.196826052945392 3.9583460601365346 0.6373003690291992 0.496683394704364 0.9505422380440339
P 5.619131721987854 7.237393356563336 10.854273194810293 -0.21977661267513762 -1.173356866214547 3.5995444258002527e-06
P 0.42150227209753105 6.692415201436062 9.841871397155312 1.2028433057094379 1.4375140618875888 -0.27373069829408986
P 5.807324222534498 8.518533306446063 1.3348650544660583 -0.8952342095003486 1.3323338311038087 0.6075655609689278
Ni 7.8865259287211344 3.1824427360039316 12.144883238735737 -2.1179176898641656 0.028685283749834468 -0.0250883104271955
Ni 0.34010174548139555 5.827329773119957 7.83945795497637 -0.5059424514087867 0.10974856688075293 -0.9121340705794807
Ni 1.120818587876693 0.2252124626360253 3.808107791046716 -1.486775370016562 0.12879787020272013 1.4843220233800631
Ni 7.561488815194216 0.29217705041945113 12.188404312372086 0.10529747308793477 -0.2434078789408324 -0.6191558369096886
Ni 0.1731389468850614 2.0544878811209815 1.7521603448368732 -0.9284466916965751 -1.027683817523043 1.041000075015975
Ni 0.21034631676257617 6.651000849831831 3.624293062575579 0.14111833944128602 0.6664422807004781 -0.7366300545694734
Ni 7.921662581018437 8.164868037697406 1.2738956695207482 0.4758224920949547 -1.242998794882401 0.9052106039867701
Ni 6.822400504732444 5.262733807658535 11.202662426567906 -0.11801492065460321 0.06938841789615147 -0.037881348426805725
Ni 8.96522853977694 4.748433291938496 10.146171792765731 -2.4259785288986926 -0.3386844774576554 -0.694012991229895
Ni 5.124033580618417 6.931530921654783 5.855434479002427 -0.31879288074005097 -0.29127770603891767 1.2364427389314385
Ni 4.667238636931985 4.941047877732226 9.755111746351426 0.14559308738318796 -0.8080948953786793 -0.5344081629486473
Ni 3.9188168647065313 5.150981528084478 4.7362222435954475 -1.8473625610845799 -0.9051812934107314 -0.1948284273702322
Ni 1.941932425312069 4.346494361901716 6.566940609729923 0.439854558640778 -2.013668198424771 -0.07599178214528203
Ni 0.7004536871830052 7.699478185106931 11.911047248272357 -0.09379050088959977 -1.9793876799753458 -2.0318597817321327
Ni 1.9357101174696143 4.87692302569411 10.441648328085616 1.1681444687756721 0.2585843295709547 -0.382651884177541
Ni 0.8323315321822109 7.108654361217595 0.7888658500103339 0.7721830119734184 -0.12145197136061019 0.4894801920877053
Ni 7.542055643074976 7.780525129541513 4.412087087748362 0.32962211014507103 0.747878630900099 -0.08234369250523883
Ni 3.39007764058056 0.5950280360428282 3.249758136395686 1.0845800164894546 1.5681307304666026 -0.08716785336675956
Ni 4.516518462101251 0.8047475060657862 0.002263664514792105 0.2628184222569603 -0.089814032740355 0.3227510940568506
Ni 7.601666090758552 7.424948855268542 10.185126763347366 -0.07717037583441548 -0.24993462431575664 -0.713799686938519
Ni 9.013585288261773 4.6597607892281445 5.379547943894337 0.2586519495840965 -0.037301821774251884 -1.2512702908625741
Ni 0.4664699861476978 8.21412028152455 5.814223229434596 -1.1873105001811617 -0.06257473740842773 0.007125812411503857
Ni 7.955728331669264 7.896117883985689 7.594799395546062 1.3538773616025392 -1.1052064344905548 0.9679169818770557
Ni 7.25920836165491 5.393669997761701 7.949201370772209 -1.4405767599733124 0.5277729170203168 0.8341031465169828
P 1.8547185644995037 9.138123764218319 1.9163434151077428 -0.7119947725192963 -2.4213274032799266 -0.8939391448380088
P 1.6957819891052912 5.281963877741373 4.06577872867278 1.1922213072192176 -1.239345771510846 0.18756326116738664
P 4.988462971321019 6.277459277248152 3.2538663366774254 -0.9518794687982186 1.137116395825274 0.06999879778664074
P 3.595090682505471 7.5973363246189205 7.5922864694411425 -0.013903240344653475 0.1451860817527564 -0.1788258812943888
P 8.307177941839006 6.0757143317271405 1.7197997281007362 -0.39705237587358716 0.11803806058305477 0.4395259716567656
P 4.144149342182248 2.7244384120098406 1.6309592046148171 -2.2766336877825566 -1.1957563169556698 1.1191634108912791
P 0.6218799716371362 1.724142418915411 5.845463092206232 -1.664483335656424 -1.0413078360643808 0.7704133216675055
P 8.150549344131164 0.6206955174884908 3.1538515084251753 -0.03775664992348336 -0.5926233378367988 -0.15770555437600584
Ni 2.901081792213887 8.430940937292934 12.531631982831902 -0.27494477320684907 -0.354795266976589 -0.40038735378409107
Ni 4.995756180809949 2.064735302048466 9.83217050534396 1.4844168970867144 2.2466888205940085 0.3765005198641645
Ni 6.264045310934968 2.522545755916902 7.570559167501651 -0.25039485178162685 -0.22312855986650604 1.0356403533659584
Ni 7.691215624989724 7.219464985895611 12.530835268934567 -0.3647608628297331 -1.1312619939270259 1.1638561258129634
Ni 5.353520417929601 4.14716817699602 2.837606866692253 -1.817161097800535 -0.33681168591497473 -0.14286103316400559
Ni 1.593049286329571 1.2479881583957029 8.169093483245614 -0.002924629845962705 1.3548968040059892 -2.442753177253871
Ni 8.703550029696261 2.471982580763899 9.67847303929781 -0.5052829634479169 -0.5044139305794023 -1.104681158114704
Ni 5.9598353880498545 4.674661093171352 5.7026426634004075 1.8242097771172003 -0.8874571366580909 0.6099350896423689
Ni 0.5814035821646463 5.131142151892439 12.375570224443832 -0.7559832622851045 0.2257773103432628 1.4217529423985902
Ni 2.7612737358843127 1.7415999621351168 12.051948362834196 0.557447304156298 -0.3966600255311749 -0.6712301890074247
Ni 8.54673679377351 1.0014776776698513 7.446845101174675 0.3101161789016595 -0.3279089841087062 0.595913064331664
Ni 0.19222407596919563 2.688637062138863 3.928795637031323 -0.603742844788728 0.21941254446749953 1.1072653739021123
Ni 5.239321682007993 7.7491458649176215 12.91798929391246 -0.5028275599288888 0.46436951306300667 -1.3932118975361039
Ni 2.689486397927447 3.3874003864643702 3.2444350166598412 0.0632869329841039 0.412354039227664 -0.8719896371501111
Ni 2.962667868796995 5.728825285465668 1.846054416264869 -0.07038574881241427 -1.1062400179613914 0.7374785186126976
Ni 9.025623699873881 -0.13266532698579522 9.58847114144011 1.6535659174129718 -0.15896873735914557 0.33334995261861944
Ni 0.7573961126611362 2.8761925608440686 11.517136387819845 2.17623493754782 -0.7158182600304446 0.0875802583138298
Ni 2.7968073603436716 2.5074700456695305 9.564974082210709 -0.4188265343258851 0.8414372182845508 0.8521618037909066
Ni 5.588601793152547 6.239959255800005 1.0557548505157617 0.7165096296705143 -0.8244054596132446 1.2825122795959911
Ni 2.221243884916617 6.539303961722249 5.99278223111833 0.0896584809990972 1.0209056182589449 0.13560383738096002
Ni 7.4850024346679 1.0232372912969516 0.8094927081889638 -0.4718588794615164 1.2489814948283975 0.643280240761718
Ni 4.7620503602880815 5.121430181788193 12.404823380023041 0.12913622737874536 1.0490450568076386 0.19894502064176706
Ni 8.474137047671043 3.5688535921668123 7.368313852418235 0.6131859924794989 -1.238647459892241 -0.11950667470878128
Ni 0.459718689819527 0.2717772972451603 -0.2339467733923255 -0.16332984254131871 0.5068546788104109 2.3789481669827675
P 3.4994388552715354 3.7280486610618984 11.285759778379063 0.5277947713971879 -0.9542361419558535 0.3032559614467164
P 2.3828300186947824 6.107056668708052 13.020409034913907 1.0820446516621105 0.9877152475499054 0.5141203592338888
P 4.504480050489143 0.6752201055423802 5.754230580646158 1.8768801109277222 1.0116388482450385 0.20514652146678863
P 6.1055334034350475 1.8783891836509188 11.78791386913127 -1.3127973037327778 -1.0961844334976025 0.7365125551550025
P 8.107002421144728 6.352099275625371 6.155803003826343 -0.7433480900195972 0.7897608729561818 -1.5377333491216678
P 4.275288634321815 4.575741169533516 7.094699404934724 -0.5465625389229941 0.669417561278718 0.1848504902219139
P 1.0901871080231846 3.3343168996778507 8.483135391074663 0.31359205326540185 1.638018713706992 0.08820812170581584
P 6.670369398575852 3.810111115678485 9.453595695021844 0.45745864487578636 -0.35889489096725935 -0.26335449726608834
