# total energy = -340891.5207211257 ev
CRYSTAL
PRIMVEC
9.07199828201216 0.00000000000000 0.00000000000000
0.00000000000000 9.07199828201216 0.00000000000000
0.00000000000000 0.00000000000000 13.27778649736340
PRIMCOORD
 96 1
Ni 6.107124006454898 1.918645961949709 11.19738316203289 0.000601895250057028 0.6646394231637844 0.5213474731099473
Ni 4.640962096517641 0.35625827477462996 5.749334378391583 0.7099836556265385 0.32892868362247224 0.4142833950398929
Ni 2.8614624422802453 1.765111465162437 4.960063281246105 -0.5501445998472977 -1.3721350222611466 0.7639439118930779
Ni 3.622122271642238 4.317735874227775 5.177606168220819 -1.1094970914461086 -0.02190451338257518 -0.4674175558607111
Ni 5.111653648828609 4.550006243008472 2.6768418366126103 0.7759887588727539 -0.49621673948059053 -0.7015401528448756
Ni 7.435246392454839 6.2564400240997635 2.782439895145099 -0.6389186213589125 0.34140393327134755 -0.920628481203737
Ni 4.917385880322189 4.442049464955498 11.54306983735667 1.5345143279637379 0.5687287906073882 0.2543798045713038
Ni 5.505877328685078 7.812006475861562 12.5667876756404 0.4712958078691948 1.0138841926357893 -0.4434962691584233
Ni 1.7180277947342912 6.467763149138921 0.4985425866490031 0.6602482360746241 -0.3864738290267925 0.19722161019275714
Ni 2.8463757093472957 1.779109558316701 0.19235539129519488 -0.5789183295458804 -1.0681378117730316 1.17193941704173
Ni 0.39318947206671834 9.260242117443132 4.577171434285937 1.538409806363402 -0.05502186476183427 0.5351774370145042
Ni 8.653407088809393 2.105692419924181 1.22125878372473 0.6444277241025999 1.0417333536375737 0.799258785144288
Ni 7.1169099771709 0.6100791751742212 5.124096801498983 -0.493540221089692 0.13860791431460645 -2.765710473784256
Ni 0.7611624180598193 7.39366942490721 2.5450193530114045 -0.2416523297023064 -0.1008065271961167 0.8601440506654349
Ni 7.640863230654054 4.006774993444432 3.63172679608969 0.2865499615459452 -0.9976823860649463 0.6275597447026676
Ni 7.445080438455631 3.7346966967564694 12.658403970615305 0.3737059878381629 -0.5539035526690977 -0.6632448568091028
Ni 7.875583038936793 -0.39858458936992036 7.0393244345436194 0.9201397144927765 0.18122574898513305 1.1859035925313062
Ni 6.912780946669223 0.6939116957315254 0.2150154282885326 -1.3070413750856071 -0.25717665059015066 0.5943819723991183
Ni 2.0402288812325624 6.280816483144162 9.401243648778287 -1.2479119159133023 0.39408429438419873 -0.12857572688958502
Ni 0.03406988907377681 4.812341213677199 1.2060931244078261 -0.4282827946427785 -0.40375087093968537 0.590138366631416
Ni 6.69469918300406 1.8536088071714087 6.942502627026967 -0.5309397447840727 0.6870818113277006 0.32145551517387866
Ni 3.247122155877723 4.359276553782781 0.4243009825419174 0.5739453018113212 0.05745695656588814 0.26142694122607235
Ni 5.835072925761403 5.674054030495669 4.8795329680174815 1.0611333554307403 0.4583191931038687 -0.9431942823193951
Ni 5.496442450603137 2.830037040668858 8.739438661719642 0.45709072001340634 1.9224649986463729 1.8824822876058482
P 0.25100404497224255 5.739045825283191 12.406484561029151 -0.7258666454053821 -0.7182199274934018 -1.0975854276101873
P 4.145758005189941 6.124968626827183 12.848050463261202 0.04999227275772681 -0.7336768854784202 -0.7119207247482513
P 2.5295089577645835 8.277291117271725 1.6229704908589244 0.19285099192888722 -0.2173896005001998 -1.29505437792706
P 6.336981223726175 7.665702361604393 5.738831726126716 -0.9618255242673371 0.7150785536509426 0.4606753520408711
P 4.6746101376771785 0.9754303137003213 12.567238553948737 0.6490171432454952 -0.21397851793612183 -0.06716389944100691
P 3.914240612256168 6.122301459369405 8.376796421842837 -0.7091943269560238 2.0921750336824223 -0.45284814268696844
P 4.80554628705857 1.0499567785494963 3.671998303102712 0.13252365579373954 0.48157250720485456 0.1853953069817904
P 0.1999495609513415 5.445875132883199 3.5784297141246975 0.6197636456970165 0.7079794807123163 0.6785105247189218
Ni 1.7591783783686015 1.0487411307966308 2.4677168567265815 -0.5583466760421159 0.9236253590485319 0.7048224231405733
Ni 1.6807509543124701 6.44277886621809 4.900658022922872 0.7825684689728006 0.994212682348791 -0.9154165979854946
Ni 5.887944531012894 5.630336071383292 9.159786974665117 0.6986792863573128 -0.4248549999081522 0.814532937694539
Ni 8.434037101406119 2.281534960176349 10.303893857274408 0.7003055091068261 -0.269522059529381 0.781027606848242
Ni 2.30091274823695 5.396242230973297 6.930552991056263 0.5807656671672644 -0.1372871386206539 1.3259695794486777
Ni 0.6831885939114738 9.014508903399356 9.2673772439926 0.03874395353741715 1.0440026092877246 0.19482071406074833
Ni 1.7336679195547389 1.0822530919838314 11.453604513144482 -1.5397321247192517 -0.2080657519961126 -0.05244227696011613
Ni 4.265943836756814 6.6907982237971035 1.7613112051350093 -0.4232007521341809 0.9674007043622692 -0.2803898554818204
Ni 5.4650442649862185 7.914120887102258 7.869531108967117 -0.22714359456317013 0.2987115366091436 0.32086801810152477
Ni 5.4347891511369175 3.0659543527081516 4.629685602810091 1.0280486570616294 -1.3393650269189772 0.6621187136244596
Ni 0.9833864560828808 7.604257718095755 7.336229161384503 -1.18315251214873 -1.0709570263893815 -1.0117794875879607
Ni 4.962101759231695 5.088048309627446 6.9808227472366955 -0.2491728064490676 -1.5191851538058352 -0.25267619161663574
Ni 8.46596146291607 7.143853811693366 9.462042366018238 -1.5540063752500786 -0.11302080987412148 0.564263298636867
Ni 4.657863229081734 0.18487280721636357 10.056847925097502 -0.18687189152731687 -0.6061915634395367 0.5590323892552308
Ni 8.263755696023402 7.305471458837377 4.8995956919388375 0.2512240325511415 -0.9876450564336023 -0.1418163939495751
Ni 7.201651511943408 6.226892526106609 7.1543365055622905 0.6141833233957616 -0.573273215444961 0.11586882084587785
Ni 2.194298625911021 5.284593149670948 2.628244956892092 0.3330306216059878 -0.6563823253613147 -0.16318560365397056
Ni 2.529908125683435 5.08969034129363 11.56890870250377 -1.2995334967443362 0.5096543530427352 -0.6283956103404017
Ni 1.2705514857037918 3.293806658387017 3.863211529830103 -1.0278671371784427 0.36016115927419257 0.10163287975215399
Ni 3.484445627631151 2.6982481234608287 3.027428298140289 1.0105466436221242 0.9784980998270116 -1.975598645246559
Ni 1.0660505032777294 3.431601238374128 8.13924342853607 0.8633525303004035 -0.01676590660442919 0.08672665206428289
Ni 3.505302151391133 2.7162378958036055 7.31860952656648 0.33924934882218993 0.652104009700935 -0.41757646396886794
Ni 3.947988445395417 7.1880979466987736 5.841654660423373 0.08839555512627356 -1.3491429322413475 -0.19744735305031802
Ni 0.7912061543520912 7.861222065856301 11.701314515586386 -0.9241043555674794 -1.0964657121834471 -0.9755228192487716
P 0.23306326141950626 5.711185718946998 8.179740828303169 0.08795358249284853 -0.9137078428245038 -0.5109820707152232
P 8.780995670871327 1.6315353643177322 8.197280629537422 -1.2926460255958836 -0.6331192410683161 -0.7212062638152353
P 1.865166532821786 3.2957752819868062 10.184274118392452 -0.43174144261534025 -0.47812902874094426 1.4357109472405791
P 3.949294813129839 5.938294120777096 3.8259546478042243 -0.8655518519445673 1.483379971181768 0.31362290650333735
P 6.935070846137807 3.957486827464447 10.395789569792509 -1.3565268834102444 -0.8663504365864627 -0.7220683547052145
P 6.250280137352035 7.647803309243173 10.061892863271895 0.7666088603197507 0.17148229644512403 0.3906091913514047
P 2.2073623032552465 8.580613375607959 5.687539555754135 0.5709967607059586 -0.5343929934399958 -0.2161045631401891
P 7.020383916794124 3.8587471995376768 1.4773531268621427 -0.8406720579837522 0.5911832629561625 0.31728621428753745
Ni 5.037771295848489 2.8691373527199775 0.7659905354782893 0.6967882399821871 -0.33719966538201285 -1.0123556718064048
Ni 1.3785264077530772 1.0290004628098013 6.9036917117170145 -0.45187523725073797 1.3675260627342254 0.5075424489060549
Ni 6.862086620975104 0.7241141919915223 9.120019870749552 0.5021415896054578 -0.714275083913041 -0.34305278172868015
Ni 2.7841236580027995 1.4404700111602795 9.255294249649006 -0.34336877030720214 0.6723424482349969 -0.1083408878999489
Ni 6.447423729273814 1.9979352258306327 2.480556455716361 0.7525415835934072 -0.8054037216997613 0.9748461048967211
Ni 4.099799262533103 6.750292387702263 10.566077325573936 0.9600771741176627 0.3332244827843487 0.18992713341387293
Ni 8.20441575608689 7.331979837448368 0.23828601075774974 0.035656058640712786 -0.00689364179603974 -0.08881387361061478
Ni 7.842932917574385 3.703280367143239 8.229319298224134 -1.2770389151862458 0.884554104078683 -0.4203087752983664
Ni 2.9629781016426633 7.904822088992653 12.46989964253721 1.4351262783817025 1.8792051595164734 0.32598297073058696
Ni 0.028849861334980065 4.666908011242978 10.19796376360942 0.9035776963690374 0.41783614538815783 0.7138680782826093
Ni 8.624857510613367 2.5473445061387134 5.786180298901009 0.7699695492618674 0.696076301516827 -0.04488169100403883
Ni 3.508368486767764 2.625517914246485 11.484023830160401 0.7636330655208784 0.30180045994711246 -1.1130238736524445
Ni 0.9148384380183201 3.4817240281844377 12.519677696417602 0.20053164840259657 -0.7488811040226845 -0.28223179378656554
Ni 2.9858486089932135 8.513008845351592 7.885437950533342 1.7589639206345127 -0.2748403864185009 0.611089000741154
Ni 5.704490584308083 8.006328676356915 3.5529501001045647 -0.022214845534142384 0.19183694884207605 0.19542260931080538
Ni 3.197189878028683 8.372220505973097 3.6379937324156564 0.20947060276343926 -0.17900457296409816 0.9423543029166027
Ni 3.6013746118601246 4.25651803067303 9.31136645584983 0.05037305313591325 -0.5807037035810774 0.41544116279341997
Ni 7.204273319410408 5.850159658694352 11.292544793887048 0.17644915353209611 1.489250828140248 1.0827622465544253
Ni 0.844143985190118 -0.02629790825377825 0.542073662599372 -0.6147229979493155 0.26736130443263634 -0.90055176505852
Ni 4.485595056102916 0.3577206808773308 1.5089536180379346 0.5009946204852082 -0.5551471952682117 0.2268008665117707
Ni 6.18914394178069 5.736369585827255 0.4963607710925543 0.19499734884792871 -0.6045283168045008 -0.025835215895549053
Ni 7.735919627329604 8.964095809648066 11.28455145631205 -0.2811154207939352 -0.7915771002293142 -0.5397881963136381
Ni 0.07716460191285603 5.175992259748919 6.086696588207682 -1.1238649301320065 -1.4836414523732708 -0.6692699799572602
Ni 8.10231041684435 8.960076914465084 2.6348176195559048 -0.8539088683890004 0.5510059194063285 -0.6758442907406683
P 8.610142729604801 1.8864494404950864 3.63233734156557 -0.8356535217232384 -0.22731251604086658 -0.5007218264397957
P 1.8691400680139878 3.1590784137765366 1.4932998852202535 -1.5954916389780587 0.18817724060230173 1.0885364300340414
P 4.786005203031166 1.0956977932505967 7.9066564470197385 -0.22752720315483396 -2.108435718515659 0.1127881250380251
P 8.67036265336242 1.4354622681783265 12.444154218971114 1.0819842307378205 0.4086439373659285 -0.5678047361312222
P 6.461213166470498 7.820978682037562 1.4329656542858744 -0.4400196234637325 0.1751461184499564 0.12361761155336129
P 1.8773411543467518 3.3328888264418244 6.1332350315466675 -1.2329480955146184 0.3744986589427873 -1.4992575616439727
P 6.753558307038319 4.141974981959009 6.209954198350079 1.2735967222739162 -1.2782193086475921 -0.18590489962835724
P 2.499154051935571 8.299617304732932 10.261909557009588 0.1100450150752492 1.1180956317483968 0.313458355901015
