# total energy = -340858.3422007843 ev
CRYSTAL
PRIMVEC
9.34684851883216 0.00000000000000 0.00000000000000

0.00000000000000 9.34684851883216 0.00000000000000

0.00000000000000 0.00000000000000 13.68005760124064

PRIMCOORD
 96 1
Ni 0.20973767367405116 6.8519503581325125 4.620097707042657 -0.598676486009414 -0.09468987277541757 -0.14759366275298452
Ni 6.040139172927648 7.811497831744913 6.626195924758655 -0.5467008642730713 0.6631479262199224 -1.9830638432753525
Ni 8.398106047641214 8.358540837668476 6.332621692886995 1.422596264235492 0.17391121760159078 -0.6496136391789135
Ni 5.896132277097274 7.697989702779893 10.519732248296979 -0.4608566148137418 -0.6195319893021846 -0.3466980917907513
Ni 1.675179587090481 6.416209624912793 10.658761947266857 1.8086273492979108 1.3193430752710955 2.5478732442236764
Ni 6.7933269239371405 6.509210768127709 2.463833020292403 0.09691259145834923 -0.7230484592302967 0.20857842996647305
Ni 7.8256956947141045 2.7234660409724714 9.952761761234301 1.0544114633258743 -0.18401822412860566 0.48154062552565463
Ni 3.3510508409747213 0.993887795237687 3.871538515442214 2.0838847686491726 -0.6351313864023385 -1.2736522581022
Ni 4.867165759197719 7.6887363227012235 4.1192842141181885 -0.06856000845758516 -0.45635358473706567 -0.4043126569804263
Ni 2.50932039351549 7.084126076470055 0.1871267123121209 -2.0914846924836175 -0.12021887028445748 0.1592505302656225
Ni 7.699438464307361 6.1813233204916 13.397811054165752 -0.1387287561631869 -0.07256758695508148 1.1539653490618127
Ni 1.3776600504398255 9.216160927687039 0.2770480689250967 1.5022307853396837 -0.47233299088445757 1.3024887227179183
Ni 6.094808890180317 2.387904830665061 8.212562691475886 -3.5535376200528352 -0.7445979032662983 1.9648563191283903
Ni 2.1179117630363073 0.4645252880583794 8.102629732086717 0.3460254912037589 -0.06799359443115387 -0.4976658132222913
Ni 7.50169653608075 1.99123392444417 12.527211930230782 1.5392803818938137 1.8816029703246884 -2.8444433090097854
Ni 5.358314610706689 3.365968411283365 13.674120722054267 -1.5531846506797315 1.3842531456809193 -1.3866676686596828
Ni 2.4879067634546486 5.311430818308093 8.837522896401278 0.42730834654465116 0.9431354040570016 -3.7038008592181826
Ni 8.753417148965019 0.6864026486477606 0.9365065572165114 -2.011472990545665 0.6078283277120112 1.2390104996586147
Ni 2.9251149518989656 3.009087039400756 8.61679426350045 -1.4148251049305052 -1.2031983750560116 0.3605352547841597
Ni 3.980860190935278 4.455119287088533 4.061430960244515 -1.169321776913225 -3.15130755663305 3.0037082374531106
Ni 3.8584632089855955 8.991079467409811 5.969894801912265 -0.342190690838701 1.4661744059367587 0.4657082864790883
Ni 3.4744946699636063 1.9458736683615576 0.8935624614877742 -1.3221916004634842 0.5107570991886108 3.2443388107591224
Ni 8.774643842054573 4.683911446245793 2.3607260644097505 1.7829582266665809 0.9592847601233545 0.6411053445975862
Ni 9.090576670376926 0.4006423821758675 12.41488524292429 0.2617293029578396 -0.3336003780665287 -2.1847159784356376
P 2.9641193509578447 3.710063294329994 2.2311628536658095 0.5479833305299208 0.4066233073914739 -0.8110583488823774
P 7.752425748818454 7.590314007319004 11.789104384694953 -0.0464624052275974 -0.010175140760788928 0.0891206062177562
P 0.7577004094963422 2.9044864571175264 7.74980769653559 0.7303462784432906 -0.37473442910267724 -0.20690155648468236
P 5.225383730425025 7.713215719091159 8.569297317836037 1.2039355103323524 -1.9944242625934943 -1.2669604479043213
P 4.344723658695429 1.6940228337961367 12.731085391115583 3.202761758648284 -1.2757160826097642 -2.0642628806531866
P 4.054204911619444 7.44875598581248 11.783427108876989 3.7435200321846756 -2.208409208287519 -0.2620211231666455
P 1.568475963880281 8.845362098292169 6.1584198027696075 -0.514862636716552 -0.18208629721321545 -0.6655056278188216
P 6.415985300547249 4.333900008057954 3.019078820516007 -0.8115949381121377 1.6586207062280596 -0.8632530286080617
Ni 6.0441115835674815 3.6059487481721084 5.139405809221333 0.37060369476375526 -2.0599377709152717 -0.3341061140583536
Ni 7.586407024619121 7.415144718375209 8.314725615653543 0.8842286024184642 -1.7732260869804817 2.0877956736678045
Ni 7.765137462865919 9.224694600426258 10.292082274034279 1.4692856978722308 0.2181565605732114 0.7174575954060806
Ni 9.167370378181324 1.6844142734720227 4.6246664466208935 -0.13923269238279892 -0.5405407582089465 0.374358019599865
Ni 1.3325801998141427 -0.04788016645555114 3.280819555547328 -0.3647001847951268 -0.5064859826170826 0.9396528448250397
Ni 2.5168446066097623 7.341416776899906 4.711904323011055 -0.07006436091725353 -0.13373541671365355 -0.33380298099563804
Ni 8.100446308262093 8.986284534096319 3.883207121189902 0.4233920422093804 -0.4993010348328692 0.23881537447414355
Ni 5.224402311325773 2.633941925423479 2.2637898979492577 -0.6101567187348718 0.7641483145944001 1.4197325695344516
Ni 9.062031394861513 5.691118500687627 7.2976950233706175 -0.8015282979047551 -0.11161055979015616 -0.3757633845878238
Ni 6.353529658440508 1.4603422728397406 0.4549055115159882 -1.1977332381763826 -2.0780794748213047 1.8167330091241807
Ni 1.8767443763798968 6.064235348526449 2.4739014455658817 0.8999231303355857 -0.7038153220322976 1.9025242938583877
Ni 0.17716764516684513 3.737944943597341 5.816760708458839 0.20195912487774248 -0.09245069903225368 0.08493382182991825
Ni 4.339508117196543 5.743124366099466 2.556775278361365 1.0836068539429078 2.0596037846146205 -3.201198270815906
Ni 0.8788383709444114 1.9623521623804419 10.47093515599727 0.5657483678228257 5.032578597539616 -0.10634159808173298
Ni 5.371596482516577 5.722187425315404 5.725241040741365 0.5075658459448226 0.5182307818578364 -0.6173336960992852
Ni 4.355706205758497 5.27744567692825 10.182354010628666 -0.4084647314755869 1.0943774621958509 -2.1927823003835396
Ni 4.599443975770094 7.285746946850857 0.6463401863314011 3.7777828100222877 -4.126016878841591 2.7641300166710137
Ni 2.332356509647347 1.5843001784996633 12.712931941833974 -2.6490122150585473 0.45328060223869676 -2.3659016182114545
Ni 4.044231824201322 9.012044448739568 13.587429636305119 -1.7452175175826978 4.912018027645024 -2.7664496659431257
Ni 4.989936615089974 0.12569735417774125 1.9150982347786998 -1.2345815173529835 -0.2116061610492033 2.146175399158278
Ni 7.6990178561219675 2.746403207349296 7.0207011661671945 3.363820288656923 -0.12279048766637563 -1.4633870729996088
Ni 9.210421962668551 7.909826678641489 1.9669732443106385 -1.2522943612517143 0.9058819190221818 1.047566158269267
Ni 6.150656310352089 9.05948905205202 12.277222053214516 0.31811102418167797 0.5028406725550114 1.7982997421196576
Ni 8.83234193824208 5.538204058175461 11.232927638354344 -1.042099735838057 -0.07767122673023397 0.039378501797622506
P 9.151723753684664 3.373810417228824 11.821772555112085 -0.49924601322521756 0.1953148800883475 0.18425939360513427
P 0.12754803019347527 6.805589989253519 9.44765339139453 -2.211289872269424 -0.34270645413285494 -2.4423572273670326
P 5.815553095624329 3.5380999744437585 10.026442968466782 -0.8838097697134908 0.44778846877587397 0.5169747979635484
P 7.183959765985485 0.8125299578594603 6.178242599204802 0.937100253606515 0.09577462119916409 -0.31690106303397675
P 1.1375955919140035 4.782044009322518 4.306277266495839 0.18669371407823976 1.449361191034162 -0.6964180011269618
P 3.1615247926361416 8.066405085790864 2.6256952009351853 0.5600793424625063 -0.2061122278141676 -0.1214188041298296
P 1.240401579272885 1.478344303174608 1.8088320440813095 0.9026914371093421 0.40806621048558755 0.03353489853265192
P 6.9522140026819015 7.1585737252848105 4.5985102255985195 0.6689023122051964 0.8265168495292926 0.4264840508711429
Ni 3.9796264069247886 3.457044103694034 11.527514133925518 1.0566326393469094 -2.614225446396665 -0.01892383348769644
Ni 5.932229806252653 0.42159334323277564 4.469316215372869 -0.854333871741561 1.2050639675098407 -0.31630713820371975
Ni 2.5124048535417134 8.546571390236766 11.860719003709866 -3.992840162844885 2.218483047583754 -0.7577485817156434
Ni 7.719721125691922 5.16426468766298 4.543105846048696 0.9706161259757735 -0.1273858203465419 0.6413717108850955
Ni 3.6117064068877256 5.427649533356765 12.652643833909297 2.2539686420848732 1.7760252469921736 -1.4746621316927957
Ni 6.09735123298981 5.50201306053444 11.376513925999324 2.123244501393718 -0.7768390226881912 2.3705905390466913
Ni 2.0757294354655618 4.28903513494925 -0.13260467526676875 -1.1201697406686062 -0.8924831291177726 1.8445978538552492
Ni 7.445746300574771 2.5403799712947026 3.1245252925943072 2.12101484073225 0.5171275214913288 1.1388182090077292
Ni 0.3843526944979823 2.752712330130208 0.24870375065381672 -0.9800021951763639 0.1939305981463112 -0.4087526950296509
Ni 0.2917216864862121 4.404412633627134 9.238936393583701 0.18891077633421657 -0.49558913319892073 0.8609066398630721
Ni 2.2476179805632825 2.1115932934068318 5.406687356081579 -1.5796456730847375 0.3487441756865026 1.7645681541951674
Ni 3.3247955433575656 7.91409818843538 9.314683254348896 -0.7204411035144366 -0.5966396580850435 0.8559788635441516
Ni 9.151200330165063 1.100591418447887 8.457599673437924 -0.7606801535401415 -0.6488266245012438 -0.03839685461064355
Ni 2.754787330511485 4.533473918603171 6.375714403507906 -1.0846484078335448 -0.5654166955150198 -0.8600905717196801
Ni 7.096959299548857 4.986291344149891 9.073489696516505 0.38571458226326477 0.1441231877058808 -0.7740519468613573
Ni 7.447568936044811 3.924470653546776 0.7303711589791466 -0.4988197243210764 -0.31931892844685006 -0.3333406966472388
Ni 3.3926443170859155 0.8358307166454367 10.179604167781045 0.029772860387058404 0.9006882906363842 0.06086623935775323
Ni 0.46006123318406333 7.462271528836476 12.547403927184268 -0.4730428724672885 -0.8381855441164726 0.8353239062979614
Ni 5.8896362173450765 1.3407867328536096 10.63060830470629 -1.0517737685927113 1.159252822712997 -0.22386672358411122
Ni 4.619605128123318 4.241085801814323 7.730655069142455 1.5263405339036937 1.0140088911391119 -0.31457987109996793
Ni 6.846818938270705 8.358017414148874 1.0777682836235472 0.7036032060214914 -0.5542761055171679 -1.2836361087877892
Ni 1.4943274142195835 7.224627904088812 7.711476270573341 -0.5038670569369967 0.9260648217279599 -0.45127899842763564
Ni 6.740171396151891 0.13967743557538462 8.23308276281398 -0.11114776122112471 1.3713192112280705 -0.3016068558790677
Ni 3.6916780432039897 6.759313742011604 6.710123147387336 -0.3180099798274394 0.2210480231883935 1.7703086562233705
P 0.9491818185545766 9.420501731000057 10.444751829114058 0.10053553292291717 -4.375799036739883 -0.5178404883979533
P 7.072461209461792 0.7311161028097224 2.337251454240478 -0.9889473201847935 -1.4215518821313775 0.48270893480214283
P 2.3922604620960306 4.440080207748553 10.675629270186018 -1.5586916965408897 -1.5664276317325667 0.6138940742901169
P 4.542287996799319 0.34846733880501435 8.02922238751717 -1.7558282032190082 1.907009069102619 0.3474228857719178
P 0.5980674522361488 6.403553991956713 0.9397798235837339 -1.4197400257336195 -2.413617950450811 -3.2454646968334493
P 5.527810362571945 5.461793571162201 0.07616653426573239 1.7211941580849068 0.13651966432701004 0.13299262501035808
P 4.289549211620288 2.5600550875225823 5.507139806971967 -1.0853816864551438 -0.2725222798082855 0.05217051135596822
P 7.024885750269437 4.746105376592734 6.73223031361165 0.5545404149221481 1.0912977948292626 1.0434943021927383
