# total energy = -381165.8150378245 ev
CRYSTAL
PRIMVEC
9.25068125177425 0.00000000000000 0.00000000000000
0.00000000000000 9.25068125177425 0.00000000000000
0.00000000000000 0.00000000000000 13.53930708517199
PRIMCOORD
 96 1
Ni 0.5219835621810309 0.26088678585900626 4.756724319792079 1.2259122717137596 0.8269498233016532 -1.4443701655774737
Ni 1.9346134586770998 2.5376468641064114 10.668581199809324 0.5921047463291674 -0.650882478589008 1.5202015108854916
Ni 0.4151021167771265 4.083509696444899 6.335122722944758 0.8067995736060234 0.7975747125736458 -0.9349513255843124
Ni 9.045982116861564 4.204619614587511 3.9702665575864677 0.295425152548388 -0.6308939512822231 0.39944453025484755
Ni 2.433798717064786 8.967434582875244 8.579371282149067 1.0832355866464185 -2.854317373590387 0.1710053568087055
Ni 5.840695089893212 4.619059382591416 1.6913575460985701 0.4705077647502607 -0.8078629818735311 -0.8656485254234318
Ni 4.683860404329042 6.7481499119309145 1.084391676095288 -1.4916306412263345 -1.365138022118023 -1.3847521968045249
Ni 1.554891497180162 7.306474775167799 3.8673407034595093 3.0198179985307796 1.0154898465600124 -0.234639388719583
Ni 8.648489596798179 7.526326464335024 4.002598613414473 -1.5107912733151854 -0.9508433142242206 -1.0304276988167675
Ni 4.111918538380124 4.094906535671274 8.427609231882599 -0.6905821111714753 0.08911726378364651 -0.10018560578266618
Ni 5.537901793174303 6.309436356483821 7.671601936950897 0.29462785345807324 -4.430910633002045 -2.2140291255774582
Ni 6.233849040478377 5.24534900053299 9.79463234504267 -0.6357736479720276 -0.18919976832954513 0.19699895265898976
Ni 5.043989423065052 4.351381671670655 12.974893504187069 0.28890843447579273 -0.31529798021291505 0.5822131982470683
Ni 2.615269329973708 5.582332814931021 12.299418014356993 -0.08276535342368972 -0.004142818523779962 0.32765778732984857
Ni 3.4236401057827583 2.1631792895255293 4.660202712253124 -0.6117888550216561 1.0211053929745768 -1.0977566630807287
Ni 8.189322785239467 2.033873267848366 5.1514351600215615 0.2954485495871557 1.6082396826723464 -0.8338905162855444
Ni 8.542883820330406 0.6713080579538717 0.42824548461221834 -0.5140715082738243 1.670996454184593 0.6818964104720192
Ni 4.796487447820204 8.36117268971054 6.9451903463511275 -0.26769734761581643 0.873057159182677 -0.5006030414737442
Ni 1.245095434800242 3.897756018144897 9.081760976501053 0.40149498502597303 -0.5825610685047903 -1.7444492719581053
Ni 7.21982364445883 8.47532609559809 10.307772256005832 1.815111671470674 -1.062014472484113 -2.0553195554169696
Ni 6.032683727315436 8.218314420089676 13.308407388070641 0.6509236162395886 -0.6580219178472668 0.616683464109796
Ni 0.48954697365557626 5.911065021707361 2.4643167143113853 -0.6789833505902823 -1.0922979539590028 0.07734238263590551
Ni 1.534114467226885 6.854995279678176 0.7703930292506426 2.177550056814818 -0.6011923104527324 -0.4884792616270168
Ni 5.4181424744854665 8.920339364935737 11.324885577940748 -2.611895512711908 1.1655795362619732 0.6209787490510402
P 5.495496670598247 1.3974634046846717 5.295114890132119 1.5596026383909334 -0.9575983735598669 -1.1389691327632967
Ni 8.49231034626337 5.966171329557616 9.569446713101152 -0.730215152182065 -0.7424412619346116 -1.3269913358449728
P 5.247347147670081 5.336865989548025 5.605516872129999 1.4050718821984833 -0.5048836711269692 -0.4242649317326371
Ni 1.3105902576271353 1.7873333634473016 1.2596985601271538 1.1822539115938606 0.6258162796489996 -1.3599675336606771
P 2.3572123274907963 4.767403306158092 0.9365047361794104 -0.5347676031705951 -0.31780429157453655 -0.6774095783452591
P 8.59139439249202 0.3276868798018424 7.525404171420357 -0.1435773425047398 -0.10112482976748391 0.007941366334263743
P 6.582155688653263 2.516953090283846 1.5963521252066948 2.6385054019899528 0.5071410997025783 -2.0360941315284546
Ni 0.7731959856512851 8.818239596639067 1.826750515998911 0.7667109331152537 -0.762024583383178 2.3860284708683164
Ni 8.368277212864642 3.4889314136234666 9.391336872668646 -0.5063085764989539 1.0868567283387731 2.465426193371354
Ni 4.790011970987036 9.016870223155882 3.881408214345506 0.984761050017588 -0.22240093767186211 -0.6089644981989835
Ni 7.382210102072288 6.058298863531208 11.689932258797489 0.41877974024834974 -0.14371592496513313 1.3433800616156413
Ni 4.31791270712437 1.994104589411528 6.822632696602244 -2.010931001999266 0.5079047173414801 2.671941313050895
Ni 2.9581920816958744 3.0804768363496464 12.897476403442194 -0.6839376092717641 0.11753926656976531 1.4980820532786328
Ni 7.231858780687331 7.793643398689365 7.816268714744453 0.7609655459910443 1.070934143571246 -0.4126301757071861
Ni 3.1087376673858267 9.271957756976727 5.467010122941024 0.23050402639497075 -1.2273397481889057 -0.7428693506109657
Ni 8.480191953904157 2.6054543572308644 7.42639135543687 -0.6443462201323871 -2.711654058259485 -0.21880319301827478
Ni 0.21284244802938004 7.67238546964771 6.209871274833277 -2.862182378160761 2.641118157022451 1.4044877275602394
Ni 6.540990157356698 7.127446342093101 5.210182535988295 -1.0248098384093576 -1.518688673785391 0.3093998695609252
Ni 4.8811219300297015 0.3948977039895251 9.098820157683972 -0.39878529940429386 0.15344035134174863 0.3246475397486151
Ni 6.313867432773946 6.803848263377344 2.6422498667331595 1.2462900640391632 0.9950544615237961 1.2534981517518284
Ni 7.4094996115834935 3.7088016041530714 13.33965618913127 -0.8545308182437155 0.3540121089536613 -1.8863741664610867
Ni 8.406316013918905 7.496992554280776 0.9865805235984131 -1.2391156577779112 -0.11121949499932458 0.22949409707321766
Ni 2.5474803382116353 0.6185578986027709 2.8921042902046867 -0.07773113343389194 1.0987511657835143 1.884789081362154
Ni 4.700224859354575 1.6646785815459204 0.9074418710840361 -1.8496906949971241 0.40254553777767443 -2.000299490427349
Ni 2.0403857474062947 2.6811989348165426 7.289982660741841 0.6573194924636035 -0.7124017781497279 -0.1479047662355001
Ni 6.620148236301575 1.5194891402651165 12.781417357229454 -0.8635319933010612 -0.5983406999365501 -0.21824809184575314
Ni 3.591123688732039 8.765408956361611 1.3143747113020623 0.23955302397111647 0.267506571761249 0.6033306969519738
Ni 0.25271103382307286 6.9275761242967935 11.38107421549026 1.6946364622010361 1.7695252410901265 0.7336370333794204
Ni 2.322984807086911 4.787329273441867 4.012549571170813 -2.954089803095035 -0.6365637479734909 -1.050119777929056
Ni 4.16629404241635 4.410021739735582 10.90608781402812 -1.2275215251824085 2.299256567388395 -1.8977451273021895
Ni 1.469035925053552 6.128437528315601 5.969033490317876 2.124568105301148 -2.848930655357177 -0.7943688040418384
Ni 6.286124639884418 3.249218511940799 8.515696068312295 -1.6000805439003216 0.5765968805015553 -0.7958325330715584
P 7.5743560010747455 9.215889378282688 3.3738464641400583 -0.9249260801378265 -0.6416285640909078 -0.1863389018419823
Ni 5.137920839870741 6.426827500787957 11.90493659102103 -0.7977983985486776 0.08043799084209373 -0.19233908528947521
P 6.7723034405186295 6.139575348468649 0.4166543810808487 0.13339140311067352 -0.5405052769853207 -0.7390679745870046
Ni 1.4744383228686517 0.400733033684328 6.811530954105838 -1.9560304933066444 1.352700824795935 0.5785262363137844
P 5.522989695095638 7.5451145978324 9.189195612640134 -0.24762988744198 1.2391285132937175 2.665021703112927
P 8.335224528971919 5.742452855652871 5.29694282473531 -0.18400999659848954 -0.0976353285569867 0.3227102135165862
P 3.356868688951612 0.8321727785115359 12.758495094308161 -0.21046253436306336 -0.01121566621016133 -0.17330726546900477
Ni 1.7235869193653637 9.04385446018781 10.731958541711773 -0.4241870273068501 0.05281740091134775 1.3885206627080215
Ni 6.572951260868974 3.939966876415958 3.818084526393962 1.6947629604765717 0.8191573238404278 0.9195977259463775
Ni 3.617959914864923 7.504180333565592 10.27994898218995 0.06250583184370526 -0.5315043590382911 -0.21424925509900522
Ni 9.096472334797891 5.483267270064751 13.516290545913936 -0.27611488225555025 -0.3266861674451987 -0.07210658815826292
Ni 3.5114290702781283 6.671535770313353 5.239427639503117 1.5549160315485415 1.7229057414593747 -0.553674210267111
Ni 6.929130238736754 1.5796555707264321 9.815265989437497 0.13399458391231114 -2.194878777901252 0.4147981298927824
Ni 0.5779326070877165 3.2155460324083283 13.065336489115918 0.1863810679338274 0.06307301720108492 0.7247507866333841
Ni 8.73866523704063 1.6922456114928333 11.665561339201806 0.32886672003628525 0.02986182055643889 -0.5965499265847145
Ni 1.7254093035598406 5.901259299645708 9.761353019460785 2.2840472066378084 1.9444906109878448 1.9020542962005047
Ni 1.2515986636769802 8.733392348762193 13.184536141592746 0.2328434731614248 1.3804368572586225 -2.132588661612779
Ni 8.418138384480033 3.853639519548646 1.7618699384030494 0.4316733083815662 -0.6426058404025127 1.0058515521392999
Ni 0.32037699152531535 1.2982128461945954 9.344085318217022 0.028953192699240463 -0.5630643932327593 -0.6659501715554079
Ni 8.199202512750642 8.510848711368608 12.329583560650246 -0.16276162874267452 0.09279599818681439 -0.47252556651123784
Ni 5.306588510012372 2.159108989801824 3.105672916707501 -1.4829433978649813 -0.6272360428146617 1.953658650640358
Ni 3.212225037861032 3.0932057736674152 2.110534587939997 -0.6257941681618127 0.6822715344232508 0.31656450563016447
Ni 0.3370633702562688 4.690400635930541 11.284267686970647 -0.05395177162610708 -1.4696063144364433 -0.06300411163636246
Ni 3.254630160437089 6.410518549849565 7.637996987391115 -1.4064201686962616 0.254078214170485 0.6637133118050892
Ni 4.487116916775035 2.3872215372719316 11.385744884423213 1.6279831838478607 -3.2799015383550802 -0.45729280872188344
Ni 7.468962990274351 -0.08760025059908891 5.538145086089607 -1.0919796513876356 0.23767611866337773 0.6429097447961766
Ni 3.4154069995234457 4.424804328277584 5.930744920871476 -0.26781330436839035 -1.6197021747859912 1.8143028024161334
Ni 3.43451890686248 7.868573916330303 12.818501487984886 0.05581247898392968 0.06830649768588237 -1.6374173326775672
Ni 0.17407561836544475 7.913134447623685 8.863724270983354 0.9354102674986019 1.2641155222563585 0.07081820836414256
Ni 6.208899953308301 3.382197054050487 6.157379209487384 -0.26360595115526214 -0.07375080862990524 -0.4901695048452462
Ni 6.265116342901385 0.22904224092972691 1.6617063376794967 0.9546724581623237 -0.31903610709910857 1.2592504808545733
Ni 7.6255030173755785 4.825978619454686 7.299000224766087 0.2292184748143278 1.733127933408015 0.4844621700478237
P 3.07753511973115 1.5320608160026516 9.082329893394252 -0.3775562148221885 2.997599039231579 0.2719766917174606
Ni 4.435812638893968 4.892787039010594 3.500750083912116 0.8605909083948663 0.5432404165282967 0.38175045540919417
P 4.068680854496947 7.059842363954833 3.1320345828953253 -0.3999785483814466 0.5907199501664987 -0.1939812488785885
Ni 8.924483670108964 1.3707289360448804 2.700008344880656 -0.6247096768483822 2.259695517266321 1.1013256113789098
P 1.354614249411484 2.683613362607195 4.60701962102232 -1.1734561107965729 -0.12872767908641702 0.42066333042430776
P 6.985476137866501 3.151771836282819 11.133209613542755 -0.4898738279816982 1.169283981696754 1.3349836100218297
P 0.8212986027724097 5.920102937230225 7.956400808618553 -0.6575393217838933 -0.1455295811351042 -0.9020193507429819
Ni 6.315144026778199 1.080525816425887 7.440728986213622 2.3382612307863666 -0.5941042932576993 -0.5387751816680916
