# total energy = -340890.4335966799 ev
CRYSTAL
PRIMVEC
9.09166698328538 0.00000000000000 0.00000000000000

0.00000000000000 9.09166698328538 0.00000000000000

0.00000000000000 0.00000000000000 13.30657362982149

PRIMCOORD
 96 1
Ni 6.428317803722193 1.9395253516949935 11.588308946775639 0.00039877810031544223 1.0552059342027116 -0.6026776367490073
Ni 4.351817394845195 0.35424862774095955 6.041423726769537 0.5859538962364231 -0.0636186052919098 -0.1798394101605677
Ni 2.8483738576819153 1.628390318714606 4.651379644718789 -0.24719897055214846 0.25704475299797663 0.8918472953059865
Ni 3.5922449716852562 4.373882871002153 5.009605876834971 -1.0293486068199758 0.13224520532137224 -0.6492472569784302
Ni 5.189150847082374 4.306822734152661 2.7734357912526932 0.7449977098078783 -0.006764058196710931 -0.30823156028443693
Ni 7.123675781848514 6.207108450456872 2.3998410049973575 0.3796719756136106 0.4528764248217426 1.346408821139636
Ni 4.964477568635429 4.338361727473009 11.630570652324876 0.639387333465215 0.534135626013551 -0.3505166942058931
Ni 5.685146748088892 7.850163628273733 12.560354540242836 -0.07165047445745079 0.3651943508227259 -0.45804357084497893
Ni 1.9552993941887395 6.638844448094054 0.3105740771176416 -1.410635749439506 -0.9662619627721359 -0.21721913636060652
Ni 2.9286350952235805 1.4940700283384667 0.19545356941486963 -0.6196230063540941 0.20299502234142458 0.9194941104889777
Ni 0.45931738825002233 0.12182379388757825 4.653761661510352 -0.5163374214898656 -0.28622137456193286 0.07171526625711519
Ni 9.040753807366528 2.5797423685967797 1.374210034553856 -0.17454062365547357 0.39505771404106155 0.5405322735685143
Ni 6.850052967501669 0.44742821512663816 4.672536863328123 0.20435642146532548 1.3023673666487054 0.02678600984459258
Ni 0.9015997197735134 7.799168467266574 2.6335304897503815 0.008462271834740265 -1.5856777382114304 -0.23309389860933405
Ni 7.71599789623903 4.021035269167987 3.757536935351998 0.5294420771926236 -0.07254701812979118 0.14951273415256833
Ni 7.569603871896496 3.8896606789462993 12.828043223445203 0.8933668172743067 -0.6416319065250176 0.15165034932086138
Ni 7.906959272918362 0.18048686696345492 6.78362470151864 0.1130496062295279 -0.40171147191215334 0.239762054658129
Ni 6.9236045546915275 0.9510338415321559 0.47425863403343554 -0.3377689076219215 -0.28352865822111817 -0.4013399475053475
Ni 1.6756488045258402 6.478494714686448 9.262559573996453 1.3495715351383337 -0.034231924599676535 -0.2931859788052241
Ni 0.10747714313534133 5.198360705898606 1.4234705054700603 -0.2500122716312275 -0.6818485879532192 -0.19007574317659523
Ni 6.392242068497303 2.0077674052731243 6.8880815928289545 0.5397118345497479 -0.3038241752453606 1.425325747351513
Ni 3.038962476008368 4.064111588093271 -0.018602460142048124 1.245813381513061 0.4260647039455372 -0.7206941000655072
Ni 5.7382239008718825 5.3701841232411445 4.956365983210116 0.7143195639977311 1.2127417957700726 0.05954880609791034
Ni 5.42772528459153 2.668377031577488 9.32559301146815 0.450265726671773 0.06719732378210364 0.22614266410248146
P 0.21019570768784313 5.803211137612686 12.483229927865633 -0.051641121215059455 -1.4130356171302505 -0.44418583902628017
P 4.014571093829051 5.921130060462188 12.755881752161566 -0.11922128225787854 1.4896048690455572 -0.41057252184720905
P 2.39067205868327 8.64632092001859 1.2157313662443556 1.0245337019298355 0.15177761892734506 1.2327894584495673
P 6.321363431447595 7.809660251150022 6.0508581497642115 -0.6480192981086002 -0.11928787382975585 -0.5996771593597866
P 4.891707864819901 0.9130397645400151 12.676307844655938 -0.41375040535455837 0.4130531221772176 -0.3270623198376948
P 4.220415529622078 6.106218220166902 8.207415233672148 0.6003335619968629 0.5674838624566936 0.5056920259608775
P 4.899644890236062 1.0550788803208753 3.8838165553065416 -0.7415457467035358 -0.8462271834740264 -0.4004909692414909
P 0.011208207254345794 5.931267269327044 3.5939060192723495 1.5756051844667769 -0.790689298307722 0.12923187241634518
Ni 1.664520603942356 1.148304835208985 2.6681942890679062 -0.4199971575952186 0.03964152565102205 -1.2279416434389625
Ni 2.1361781120060734 6.240829443891629 4.822861215376736 -1.1983137932702008 0.14596975399631634 0.5568680346140603
Ni 6.174751207093621 5.794219478807894 9.396703486030013 -0.3988089535533777 0.302087395059912 -0.4775854975326485
Ni 8.705462214786209 2.2416323592020153 10.298808702496698 0.0614305965016555 -0.07297587813709368 0.7058128120783006
Ni 2.6300920212367593 4.944121325901425 7.25811062723066 -1.39206055754048 0.8452380800878798 -0.5522886427734941
Ni 0.7339602876503538 9.068647042162386 9.347708491794394 -1.2849124043970517 0.8034286002512615 -0.909653213139156
Ni 1.4404655588611606 0.8090229099194401 11.454964192283981 0.6471705769550598 1.9681151923853202 0.4688432325636442
Ni 4.001188159794012 7.139113432657955 1.2772846803051092 1.5233603682294474 -0.19213159726435944 1.2683562998105835
Ni 5.8691984577392615 7.975201326496491 8.201586565866533 -0.9394209313198918 -0.1623404820448559 -0.334060862642715
Ni 5.236372966225035 2.8383366571556357 5.040171152604265 0.823372133252724 -0.37124235678901873 -0.8943019274940662
Ni 0.497651493593325 7.800832242353811 7.105391530056485 0.45676984633887785 -1.8155431025811377 -0.16446549880765868
Ni 5.541089282202203 4.39567559714481 7.377416938486239 -1.6463069218577129 0.12425498802704407 -0.3754203994261083
Ni 8.489516936796898 7.13858611596364 9.355799166385278 -1.0335572455846846 -0.5304005844511511 -0.5193376417687701
Ni 4.554352463798035 0.31921025173712825 10.291051692089974 -0.13289518020054533 -0.45259026103989153 0.3127399896777517
Ni 7.8209339184078 7.333165976166032 4.543756125742439 0.31614438737361034 -0.05167171734267875 0.5071722100508298
Ni 7.272624564658336 6.020547440674933 6.92681664069328 1.0231777021225734 0.3902412664890247 0.20292688810765053
Ni 2.2114389326188855 5.303042161387362 2.581408871184159 0.5871054933423631 0.3517418248622458 -0.15720058971512924
Ni 2.394345092209191 5.319743553929731 11.303136078489857 -0.8401231274588176 0.5837720580937559 0.5217853319783143
Ni 1.1076559914109805 3.356079825969093 3.9067039181732595 0.5798958629678013 0.32882198284127884 -1.122104495797474
Ni 3.8333287093259822 2.453559120313956 2.4880501779557562 -0.2732974674114132 0.2584719723628065 0.11074255536290604
Ni 0.8022077962287704 3.295438406122819 8.281385946717315 1.279418728272332 0.3263246703407219 -0.5178741698493662
Ni 3.791988898825082 2.75640255285959 7.031060786992439 -0.3940578120216375 -0.419390120138839 0.24120495775224263
Ni 4.092632147922021 7.094837013669747 6.208208542181219 0.2776176920533218 -1.0000169477353937 -0.03830146668335984
Ni 0.7089518388390875 7.665811893607631 11.47417852162478 0.5808325158494578 -1.782605985533485 -0.05816838081061595
P 0.18179970369895748 5.457336844477485 7.997304078488737 0.12665074195273027 0.9080069357849846 -0.1495232756755296
P 8.389844989904141 1.733362707551949 8.191939397860704 -0.161380946345064 -0.37968843067384284 -0.25404607538096896
P 1.9393253350178394 3.4858088244378305 10.325435468059483 -0.35157264627423324 -1.490216534487627 -0.3652858820952677
P 4.144809225657818 6.028602657763957 3.4113798913686373 -0.7526937929005554 0.9350479990631766 1.1009430312285104
P 6.9017481868788675 4.093295839623487 10.691912388108275 0.027521602459036475 -1.508947278127911 -1.2390218125125243
P 6.870754693587121 7.896249289023473 10.563170744691307 -2.2034230679268374 -1.3087722417337848 -1.3801782042805972
P 2.1375964120804394 8.450522776418987 5.742997935288865 0.7988558932789145 -0.21650025591671104 0.8514452373398562
P 7.163251808923602 4.136608541894499 1.673581359417438 -1.16486117003871 -0.9071615570655537 -0.9994165951472337
Ni 5.279067435130297 2.938608654079857 0.4807455385402296 0.03569693918097723 -0.1412728627412793 -0.04584431202762427
Ni 1.2811250005064687 1.1761798866705557 6.894348478990879 0.7569479401912189 -0.0524751870805806 0.6247839817297434
Ni 6.875382352163096 0.6520089091867364 9.467094809720836 0.6480347247275678 0.3888523565612981 -0.6485034368338702
Ni 2.67725959037656 1.650710361551578 9.18687235419462 -0.03860434263575932 0.4439397844537451 0.09179763882928706
Ni 6.434363762372533 2.0037397967286115 2.5719608106887697 0.847491909119063 0.7556541610804598 0.5082574726952085
Ni 4.258936923308534 6.742898578549918 10.590862144476581 -0.21561759620144155 0.5057208223162838 -0.33821010892439823
Ni 8.221140014391777 7.2726063813240485 0.3395155811351294 -0.7961446649953384 -0.018263317085562097 0.024065268479319845
Ni 7.560403104747406 4.080331122277042 8.468116970674837 0.6095864480536985 -1.1888755306754362 0.10919320859791518
Ni 3.2043762680148307 8.32862170336069 12.413755953389575 0.7355586758821655 0.18403827873326367 -0.41504675556847875
Ni 0.009411693826816 4.648496677067626 10.411915405927212 -0.07842121752238107 1.431480196988683 0.023326590541082406
Ni 8.813107553763702 2.359187615365782 5.641095802445839 -1.2430011088752464 0.125316596522339 -0.05410089560946167
Ni 3.6439220077281678 2.4765610381866807 11.434685228720696 -0.3705805548353037 -0.6271000314574297 -0.700813044870864
Ni 0.8897487316521314 3.449914922555808 12.36810123766243 0.5130158133158004 -0.004318939090328045 0.210843828961882
Ni 2.6737774818606495 8.551840315064696 7.990358044791203 1.639776576938363 -0.34149443610262475 -0.21789302249917958
Ni 5.46310096144638 7.828243618791069 3.640452627546258 -0.07346335929647348 -0.2888876085401863 -0.1162442019074256
Ni 3.0351076091395797 8.138760418405708 3.798028493308422 0.7136564764924355 1.0565526780385932 -0.8202675261854712
Ni 3.7276198954500264 4.235553155415788 9.274695131299424 -0.3126836825185196 0.4056527159480885 0.7981077022589803
Ni 7.011475517632193 5.998591064523694 11.654336270237643 1.1720260632182655 0.5198881149556015 0.19401698721253038
Ni 0.5169294646041255 9.156490730101622 0.38293829257857603 0.6840738777393122 -0.4118845557904132 0.8885840511736826
Ni 4.692063946018652 0.3810763191476139 1.6982779640456864 0.0035946593297938095 -0.33277505395175594 -0.16831649712263272
Ni 5.94013164479183 5.544289549036669 0.45529614387251005 -0.7934457780069367 0.19389511692268543 0.031203679296314006
Ni 8.022432537306296 9.09366731014094 11.791154950744781 -0.3605064584287533 -0.36584226881936993 -0.46114586391938645
Ni 0.18165969202494958 4.819247277687246 5.719870552409562 -0.10978404810437867 0.626648802852624 0.457278153433864
Ni 8.047116413600545 9.007151005604635 2.3136401813109297 -0.681130221729956 -0.3468310178241898 0.8981215583504727
P 8.597325925782973 1.7063695478032852 3.417580408360415 -0.19300860055267405 0.35642354660863135 0.7714566753303552
P 2.0973930599724597 3.379318127187545 1.5977332171071645 -2.1153018495078735 -1.4647618418599484 1.666262024823401
P 4.651005977199196 1.0177939533659173 8.094229432737485 0.04105280417625188 -0.34065188559667137 1.0356629790737775
P 8.79316043605115 1.6623567871622342 12.707272244612827 -0.754354725542746 2.8388213348373172 -0.9514069000371744
P 6.273268512259171 7.935607116087118 1.3193718258451947 0.3340279525222506 -0.3223188916154385 1.1605995665488786
P 1.8624189226520778 3.2470161869172336 6.042594733497603 -0.19066786823463938 -0.4438492816224678 -0.3370657109073098
P 7.13920434932939 3.835828917790409 5.934359345322504 -0.5358361536444255 0.9261296135276242 -0.04472768192467781
P 2.517328073657549 8.344195729177281 10.311729779840855 0.638421884228152 -0.24432010634245668 -0.4169264890896948
