# total energy = -340864.5560362105 ev
CRYSTAL
PRIMVEC
9.28624272806965 0.00000000000000 0.00000000000000
0.00000000000000 9.28624272806965 0.00000000000000
0.00000000000000 0.00000000000000 13.59135490033001
PRIMCOORD
 96 1
Ni 6.507315808808428 5.944913108652502 5.713166571248125 0.5610175380060596 -0.14612890528199995 0.5904738955939638
Ni 5.785514757379011 4.544603467992154 0.10952751493913916 -0.12344817585503255 -0.9878157776835118 -1.7822126067498079
Ni 8.880136473964418 7.804371719913871 1.3784758274640638 -0.25916462755445685 1.2586712113123357 0.7955502259444492
Ni 5.207836188429324 2.7524329693627516 3.646913555985926 0.32368414739408125 -1.7909178478332899 -1.20864165755877
Ni 5.390180844741954 2.197440690664224 1.2725653039505598 -2.0722371571079146 0.14238615041011607 -0.4130202120567532
Ni 8.375438484254952 0.2073515785464996 3.4471479088787103 -0.191402946628451 -1.0363360938814021 1.681801515219897
Ni 5.001217294410379 4.723874378061176 4.337136740039549 -0.38983426085859313 2.222645149381243 0.9000023203129532
Ni 1.0035177879621244 5.949296215078433 2.3007854253949223 -0.4993239176510046 -0.2749707413487781 -1.1400173715221529
Ni 1.8540075869562402 2.5304917753379073 11.60790054031767 -0.28110410794002555 -0.6108339473075545 -0.3154900416190631
Ni 8.859428153350384 8.711498311475248 12.084060049797968 1.227590687857447 -2.733119427222112 -0.999989179821252
Ni 4.479599770997429 7.331534827974248 10.665611591803364 -0.6741813012159485 -0.3216828006933363 1.1786561669402735
Ni 0.7741522431162401 4.640567497241221 11.167880300493712 -0.9491805818098169 -1.6749996618067153 2.3284043925969446
Ni 3.134942581206992 2.427720930389248 7.613306353337278 0.2299152437710363 0.2760066388124601 0.5096957478036319
Ni 2.968663124294488 4.678483225074002 12.291721788841558 0.4397684266848749 0.6371412177435156 -0.44733878283296513
Ni 6.71611696979791 7.064601789386627 9.275283733128676 0.3102820150555624 -0.22876801754047052 0.17593930377521314
Ni 3.9431614046696817 6.4035513359199925 5.956927649105613 2.512597451740518 -2.3747649821393555 0.5898480890845067
Ni 3.7395048219852107 7.090491833275382 8.416799408028451 -0.9544235753763112 -0.4667722089672283 -0.8409049999301647
Ni 2.2294967995250508 1.5500131548391987 5.6332630982779675 1.0387380184546757 -1.243389859673233 -1.3332108343921234
Ni 2.1733057465943255 8.657201651999797 9.308827498026439 0.31775492639383984 0.407691086534356 -1.5009465193106215
Ni 9.230998571614656 2.336112148838826 4.788818643104361 -0.8350022612924844 0.3613497802656551 -2.612890786745642
Ni 8.43620765470259 5.971703918056757 7.343599514136468 0.04655470783108757 0.7358859773145972 1.110943336974332
Ni 1.1346766760126223 4.956986921726684 9.087030240759226 -0.4987809006633409 0.9676053641739079 -3.3334619880800394
Ni 6.892128408774768 4.3250952694833975 2.0905950425382387 -2.284296860754769 1.0540337682714815 1.0295908047377687
Ni 7.597167792621974 6.9364887888524525 13.27956904270674 1.4352887721014957 -0.9656924634219112 -3.6205922476094874
P 4.769284103533203 0.7986855669862918 4.110446561637119 -1.5016885396829687 -1.4751095036428596 0.7837804870030308
P 0.27140622156510086 0.5988001273517576 5.738188351469881 0.2010759509418408 -1.3641520040556698 -0.7811790448244417
P 0.9852331766217512 0.43041362203238126 10.687493693460274 -0.7961174113018289 1.2288551563921677 0.6822432522884766
P 3.3115111947295186 0.06959481525103729 7.494110002782295 0.15208460864480258 0.45716451067413527 -0.9840786792385827
P 8.677649957825853 6.322185279767454 11.32961692761053 -1.0566555221650449 0.6809019077692338 0.1197103060791551
P 3.8113153346795254 3.732307984103652 0.44582506996558763 -0.13991917692686226 1.9374892399693466 0.6312845018524225
P 7.152523932693205 7.807343317490774 4.980252673505339 0.60968929218015 1.4763991689885605 -0.5251280231983021
P 8.37323764479956 2.970548231507334 11.531299255154845 0.7417007842241613 1.8504753956819486 0.05640280426976093
Ni 4.972299935490155 6.6464794378317045 13.436942993130966 -0.0004293742279347444 0.37822367320285827 -3.1514481959759726
Ni 6.231310111368829 9.071869521371571 3.0066930729091297 0.22471981561302587 0.9872573340768804 -1.9051141660727515
Ni 5.336199917509049 2.9757578135093405 8.408522580152537 0.21578728901008645 -1.790022332602214 -0.531826261154084
Ni 7.684959928534563 1.2101273957386416 12.409667282541513 -2.538099195556048 0.2747365138507849 -0.8678205933740861
Ni 8.946737404656727 4.53951460714171 5.586889460841932 -1.4639948817869366 1.5692044231467555 -1.470441665853545
Ni 0.9152102655947917 3.109711860530611 6.669807407434626 1.8974185972007067 -0.5631821497575462 1.544122283367147
Ni 6.5953958182362795 6.7040912858538855 1.473411869676373 -1.1573805453909487 0.37883071065923785 3.2037904570231146
Ni 8.977084844910836 3.7317508095579828 2.8362162344192514 1.2069277601914568 0.403352349949686 -0.36297240347074267
Ni 7.359282120348567 9.246348730347838 9.977752685071863 0.6978156528054369 2.1020863792588638 -1.7826571504863944
Ni 2.1575748519216025 6.5905298272041035 10.494673227064823 0.0889830521986274 -0.5373219941613326 -0.13500142791027073
Ni 7.307492746328627 2.016618978109757 2.1570836096971706 1.0315877805631395 -1.1783787449091705 3.933416312360613
Ni 0.0015461593642316545 7.798094220032667 5.804595199695448 -0.14801840899522895 -1.866384353602721 0.30904505732466775
Ni 7.761422848685215 8.543389464804463 7.588135064612436 -0.4184385548588472 -0.2746529529980431 -0.17697494412857906
Ni 8.123354147309412 4.845663447502004 9.584908414029703 -1.1413486887390665 0.48466425875630076 1.83724989813061
Ni 1.343552126941527 2.505298199631238 9.122775773736626 -0.3441370159317944 0.10176966244033442 1.289687714298508
Ni 2.5683424994736925 2.1366622339741568 0.9617594130127136 0.022195048039800484 -0.3671944119718902 -0.2151529978601972
Ni 4.560817247271123 2.197942147755326 12.709126313856808 -0.7308648699509219 -0.959989756610179 -1.4758648937516454
Ni 0.9014471256925229 3.6702573122009734 13.545429520293947 -0.30721828852857413 0.3743503062903811 0.5454343388558219
Ni 4.172550165121636 7.942792449542923 1.4370135138562985 1.0658742125498353 1.2266823171105647 2.424635127496921
Ni 3.0000970549126507 0.26886457701260713 11.550000818780227 0.5979162108046219 -0.8934166966756356 1.0800224790257593
Ni 0.5212999339219191 1.2315786157469004 2.0362565949718627 0.7534178155507734 0.177272677874656 -0.18468234007516582
Ni 4.8933668748537045 9.01796288407809 9.120478357359984 0.6005945289677335 1.3470256287880285 -0.8629218705208881
Ni 6.0276070974722185 3.0834503669447426 10.984084204489616 0.9994410206272658 -0.6813688201033233 0.5564129493545127
Ni 9.201895487845876 7.651325158461007 9.760753629267104 0.24037269165893438 0.02122805614084086 -1.163417238503332
P 3.96831783540664 0.584321946782547 0.5097617777053556 0.4718429386219164 -1.1289896529530814 0.2060744325976967
P 4.917158227953774 5.823402626484507 2.3422661416957413 -0.9385164172277514 0.21655630596562706 0.47914358604838775
P 8.447379004343254 5.181648984782878 0.9547139408827283 1.386304114672677 0.6339211681443212 -0.1635769255551183
P 7.122696522015055 3.6517312585574775 4.119756948295249 1.2266591771821131 -0.22118891964163198 1.7968812645055763
P 5.405280274929585 0.7729831051945778 11.011742348936627 0.006999314135968591 0.17378291955384265 0.5564299186353772
P 0.9622590128553303 5.912104814155022 4.428579297850513 -0.0010945186157594053 0.9509207044293752 0.15552140224049343
P 5.526484311097463 5.6154743722832405 11.506195755999725 0.3110919125513675 -0.12043098629526354 0.6955461400449698
P 8.06505511734757 0.5941059318044959 0.8478747931264423 0.8356476081859673 -1.3077661690667737 -0.22872765122083835
Ni 5.752465020578407 4.812994446640942 9.50255894480406 -0.982941480310346 1.9409908253647026 -0.3078888322330375
Ni 6.54939177324887 8.099859953967032 11.530469993706042 -1.3918628397073771 -1.0877753834983008 2.051607139562389
Ni 8.10076071948253 6.33006929958867 3.3524430941028536 0.3735715191428276 0.164030211042453 1.4229575042296527
Ni 2.7383457395997515 0.5076816594015243 2.884860358128889 1.939624026924163 0.8891738622388815 -0.047998382256149594
Ni 8.00088718217135 2.233462025041729 9.46265410384324 0.4194921929343421 1.0749810599471097 -0.0810411716437314
Ni 3.1695059755233297 4.420269968126101 2.7256235874736414 0.8229389023700472 -1.034866194204095 -2.115889860800859
Ni 6.131548008966782 8.98217370576128 0.3352862832260591 0.06481802491664966 0.18682766855294275 -0.08935020573005903
Ni 2.39554410037686 5.301970827920114 7.128108544101987 -1.0422791988387146 -0.9900022438118691 -0.0068923562444590985
Ni 1.198482447734158 8.593860192399653 3.908696444523079 -0.29956514285869057 -0.9663537511549939 -0.13379583763794375
Ni 2.9938381275163013 6.648178820195996 3.487854152561049 -0.6676419574355341 0.24820067234378548 0.26071937363608644
Ni 5.3243785308984375 8.62464408604787 6.255271402705327 1.1717627822545498 -2.681366205909221 0.3188545872159218
Ni 1.9481793714167401 8.114272202215005 1.1227039236504368 -1.149211893537227 0.6797801354599647 -0.8359859653619924
Ni 7.260300062310458 1.1971359425821244 5.8944070933360875 0.5416879844395122 -1.458326884867882 -0.12027543455400577
Ni 0.8435371892884087 6.169640175405692 12.990426098104507 -1.7873663830366056 -0.4332169987196023 1.9028423393194394
Ni 0.3637885471097601 0.9066492787005864 7.765488365620112 -0.30935744635876405 -0.7650379162882049 1.0325696848604347
Ni 0.8579782248879081 0.9701058877068363 13.215499541700254 0.18110542135718488 0.3308395274919399 0.1080909766726719
Ni 4.831696938890566 1.4225966224871114 6.207130593335277 -0.7030385917672731 2.432791180945152 -0.049066161399031624
Ni 2.459433448280246 4.111669559764862 4.822742215317422 -1.0424473489854627 -0.14067019616027385 1.229520043669676
Ni 3.7417056614406037 2.058295634125803 10.111478290529408 0.38173605723149096 0.5204835824477552 -0.42405898636941813
Ni 2.982378904360374 5.974907671694353 0.9433977258601896 0.0036075148456002383 -0.848401822527842 -0.9064547608065163
Ni 6.553208418886704 3.3211410281271654 6.351688600584874 -0.1457758928179554 1.4892287166530611 -0.6767048389687508
Ni 3.1241148225361566 8.16706449041715 5.358622478475258 -1.3764339067468165 4.026277359457408 -0.38104083093667923
Ni 7.804436723610866 3.0085011043098255 0.2902247918450735 0.792526608626777 1.4501602898966897 -2.0804919409175398
Ni 5.1462962598601765 7.487413693367596 3.9753215194457 -0.29667085203003096 -1.6121007082896497 0.46559412949872714
P 8.81732433018266 3.764438382903901 7.977051255107628 -0.8067682061474558 -0.1859331817631314 -0.34459158697070974
P 2.846911199823369 4.159261552207428 9.945188618750233 1.0397230080757642 -1.1991185485596831 1.1466680440694508
P 6.705279924884647 1.1336459031031345 8.106414183872586 -0.4821661749247954 -0.002182095252983339 -0.98089436797333
P 5.538417132617209 6.288309067390775 7.686672311638254 0.7166037320462174 -0.5470109393143225 -0.47159714115969753
P 1.1973773848852476 6.933684343639253 7.892608666838753 -0.5468836697078387 0.8933665601639905 0.5708671771066298
P 2.3646394855770825 7.330782642337595 12.44633679664048 2.8677102499575255 1.6871455531406299 0.8126588606002779
P 4.066287693020117 4.138311789290271 6.381752810444934 0.985228990792942 -1.2818553627382827 0.12136763917692
P 1.733518591455305 2.8568567654635615 2.8815572416973145 -0.6047638298540746 -0.6908842157929262 1.3496646090727722
